MODEL 1
REMARK VINA RESULT:    -6.322      0.000      0.000
REMARK INTER + INTRA:         -10.334
REMARK INTER:                  -9.278
REMARK INTRA:                  -1.056
REMARK UNBOUND:                -1.056
REMARK  Name = 
REMARK  9 active torsions:
REMARK  status: ('A' for Active; 'I' for Inactive)
REMARK    1  A    between atoms: C_1  and  O_2
REMARK    2  A    between atoms: O_2  and  C_3
REMARK    3  A    between atoms: C_3  and  C_4
REMARK    4  A    between atoms: C_4  and  N_5
REMARK    5  A    between atoms: N_5  and  C_6
REMARK    6  A    between atoms: C_6  and  C_7
REMARK    7  A    between atoms: C_10  and  C_11
REMARK    8  A    between atoms: C_11  and  N_12
REMARK    9  A    between atoms: C_20  and  C_22
REMARK                            x       y       z     vdW  Elec       q    Type
REMARK                         _______ _______ _______ _____ _____    ______ ____
ROOT
ATOM      1  N   UNL     1      45.758   4.642  13.514  0.00  0.00    +0.000 N 
ATOM      2  C   UNL     1      46.978   4.248  14.116  0.00  0.00    +0.000 C 
ATOM      3  O   UNL     1      47.444   3.123  13.935  0.00  0.00    +0.000 OA
ENDROOT
BRANCH   2   4
ATOM      4  C   UNL     1      47.730   5.179  14.997  0.00  0.00    +0.000 A 
ATOM      5  C   UNL     1      48.468   6.277  14.580  0.00  0.00    +0.000 A 
ATOM      6  S   UNL     1      49.151   7.184  15.859  0.00  0.00    +0.000 S 
ATOM      7  C   UNL     1      48.366   6.230  17.023  0.00  0.00    +0.000 A 
ATOM      8  N   UNL     1      48.444   6.539  18.346  0.00  0.00    +0.000 NA
ATOM      9  C   UNL     1      47.751   5.762  19.114  0.00  0.00    +0.000 A 
ATOM     10  N   UNL     1      47.033   4.673  18.687  0.00  0.00    +0.000 N 
ATOM     11  C   UNL     1      47.043   4.244  17.372  0.00  0.00    +0.000 A 
ATOM     12  O   UNL     1      46.617   3.134  17.083  0.00  0.00    +0.000 OA
ATOM     13  C   UNL     1      47.693   5.167  16.449  0.00  0.00    +0.000 A 
ATOM     14  H   UNL     1      46.599   4.044  19.351  0.00  0.00    +0.000 HD
ENDBRANCH   2   4
BRANCH   1  15
ATOM     15  C   UNL     1      45.097   3.735  12.557  0.00  0.00    +0.000 C 
BRANCH  15  16
ATOM     16  C   UNL     1      43.559   3.715  12.474  0.00  0.00    +0.000 C 
BRANCH  16  18
ATOM     17  C   UNL     1      43.886   4.314  10.233  0.00  0.00    +0.000 C 
ATOM     18  O   UNL     1      43.089   3.542  11.132  0.00  0.00    +0.000 OA
ENDBRANCH  16  18
ENDBRANCH  15  16
ENDBRANCH   1  15
BRANCH   1  19
ATOM     19  C   UNL     1      45.392   6.046  13.489  0.00  0.00    +0.000 C 
BRANCH  19  20
ATOM     20  C   UNL     1      45.989   7.034  12.514  0.00  0.00    +0.000 A 
ATOM     21  C   UNL     1      46.015   8.393  12.851  0.00  0.00    +0.000 A 
ATOM     22  C   UNL     1      47.107   9.162  12.471  0.00  0.00    +0.000 A 
ATOM     23  C   UNL     1      48.166   8.562  11.780  0.00  0.00    +0.000 A 
ATOM     24  C   UNL     1      47.977   7.304  11.196  0.00  0.00    +0.000 A 
ATOM     25  C   UNL     1      46.859   6.548  11.532  0.00  0.00    +0.000 A 
BRANCH  23  26
ATOM     26  C   UNL     1      49.514   9.236  11.757  0.00  0.00    +0.000 C 
BRANCH  26  27
ATOM     27  N   UNL     1      50.671   8.387  12.125  0.00  0.00    +0.000 NA
ATOM     28  C   UNL     1      51.575   8.823  13.218  0.00  0.00    +0.000 C 
ATOM     29  C   UNL     1      52.750   9.787  12.882  0.00  0.00    +0.000 C 
ATOM     30  O   UNL     1      53.327   9.615  11.580  0.00  0.00    +0.000 OA
ATOM     31  C   UNL     1      52.313   9.441  10.591  0.00  0.00    +0.000 C 
ATOM     32  C   UNL     1      51.513   8.176  10.928  0.00  0.00    +0.000 C 
ENDBRANCH  26  27
ENDBRANCH  23  26
ENDBRANCH  19  20
ENDBRANCH   1  19
TORSDOF 8
ENDMDL
MODEL 2
REMARK VINA RESULT:    -6.077      2.073      6.035
REMARK INTER + INTRA:          -9.975
REMARK INTER:                  -8.496
REMARK INTRA:                  -1.479
REMARK UNBOUND:                -1.056
REMARK  Name = 
REMARK  9 active torsions:
REMARK  status: ('A' for Active; 'I' for Inactive)
REMARK    1  A    between atoms: C_1  and  O_2
REMARK    2  A    between atoms: O_2  and  C_3
REMARK    3  A    between atoms: C_3  and  C_4
REMARK    4  A    between atoms: C_4  and  N_5
REMARK    5  A    between atoms: N_5  and  C_6
REMARK    6  A    between atoms: C_6  and  C_7
REMARK    7  A    between atoms: C_10  and  C_11
REMARK    8  A    between atoms: C_11  and  N_12
REMARK    9  A    between atoms: C_20  and  C_22
REMARK                            x       y       z     vdW  Elec       q    Type
REMARK                         _______ _______ _______ _____ _____    ______ ____
ROOT
ATOM      1  N   UNL     1      49.520   7.786  14.174  0.00  0.00    +0.000 N 
ATOM      2  C   UNL     1      50.308   7.762  15.351  0.00  0.00    +0.000 C 
ATOM      3  O   UNL     1      51.520   7.547  15.304  0.00  0.00    +0.000 OA
ENDROOT
BRANCH   2   4
ATOM      4  C   UNL     1      49.693   7.983  16.685  0.00  0.00    +0.000 A 
ATOM      5  C   UNL     1      49.719   9.167  17.408  0.00  0.00    +0.000 A 
ATOM      6  S   UNL     1      48.849   9.106  18.878  0.00  0.00    +0.000 S 
ATOM      7  C   UNL     1      48.281   7.543  18.536  0.00  0.00    +0.000 A 
ATOM      8  N   UNL     1      47.385   6.932  19.358  0.00  0.00    +0.000 NA
ATOM      9  C   UNL     1      46.995   5.768  18.946  0.00  0.00    +0.000 A 
ATOM     10  N   UNL     1      47.460   5.138  17.818  0.00  0.00    +0.000 N 
ATOM     11  C   UNL     1      48.473   5.664  17.037  0.00  0.00    +0.000 A 
ATOM     12  O   UNL     1      49.039   4.964  16.208  0.00  0.00    +0.000 OA
ATOM     13  C   UNL     1      48.842   7.033  17.380  0.00  0.00    +0.000 A 
ATOM     14  H   UNL     1      47.194   4.185  17.609  0.00  0.00    +0.000 HD
ENDBRANCH   2   4
BRANCH   1  15
ATOM     15  C   UNL     1      50.181   7.675  12.859  0.00  0.00    +0.000 C 
BRANCH  15  16
ATOM     16  C   UNL     1      49.841   8.694  11.755  0.00  0.00    +0.000 C 
BRANCH  16  18
ATOM     17  C   UNL     1      52.165   8.478  11.556  0.00  0.00    +0.000 C 
ATOM     18  O   UNL     1      51.003   9.127  11.039  0.00  0.00    +0.000 OA
ENDBRANCH  16  18
ENDBRANCH  15  16
ENDBRANCH   1  15
BRANCH   1  19
ATOM     19  C   UNL     1      48.179   8.336  14.220  0.00  0.00    +0.000 C 
BRANCH  19  20
ATOM     20  C   UNL     1      46.972   7.608  13.673  0.00  0.00    +0.000 A 
ATOM     21  C   UNL     1      46.105   8.282  12.804  0.00  0.00    +0.000 A 
ATOM     22  C   UNL     1      45.524   7.583  11.755  0.00  0.00    +0.000 A 
ATOM     23  C   UNL     1      45.833   6.229  11.573  0.00  0.00    +0.000 A 
ATOM     24  C   UNL     1      46.442   5.520  12.615  0.00  0.00    +0.000 A 
ATOM     25  C   UNL     1      46.981   6.209  13.696  0.00  0.00    +0.000 A 
BRANCH  23  26
ATOM     26  C   UNL     1      45.589   5.586  10.232  0.00  0.00    +0.000 C 
BRANCH  26  27
ATOM     27  N   UNL     1      44.194   5.174   9.954  0.00  0.00    +0.000 NA
ATOM     28  C   UNL     1      43.266   4.932  11.086  0.00  0.00    +0.000 C 
ATOM     29  C   UNL     1      43.248   3.527  11.756  0.00  0.00    +0.000 C 
ATOM     30  O   UNL     1      43.510   2.427  10.873  0.00  0.00    +0.000 OA
ATOM     31  C   UNL     1      44.593   2.725   9.993  0.00  0.00    +0.000 C 
ATOM     32  C   UNL     1      44.209   3.940   9.139  0.00  0.00    +0.000 C 
ENDBRANCH  26  27
ENDBRANCH  23  26
ENDBRANCH  19  20
ENDBRANCH   1  19
TORSDOF 8
ENDMDL
MODEL 3
REMARK VINA RESULT:    -6.007      2.753      6.428
REMARK INTER + INTRA:          -9.873
REMARK INTER:                  -8.758
REMARK INTRA:                  -1.115
REMARK UNBOUND:                -1.056
REMARK  Name = 
REMARK  9 active torsions:
REMARK  status: ('A' for Active; 'I' for Inactive)
REMARK    1  A    between atoms: C_1  and  O_2
REMARK    2  A    between atoms: O_2  and  C_3
REMARK    3  A    between atoms: C_3  and  C_4
REMARK    4  A    between atoms: C_4  and  N_5
REMARK    5  A    between atoms: N_5  and  C_6
REMARK    6  A    between atoms: C_6  and  C_7
REMARK    7  A    between atoms: C_10  and  C_11
REMARK    8  A    between atoms: C_11  and  N_12
REMARK    9  A    between atoms: C_20  and  C_22
REMARK                            x       y       z     vdW  Elec       q    Type
REMARK                         _______ _______ _______ _____ _____    ______ ____
ROOT
ATOM      1  N   UNL     1      49.112   7.553  16.040  0.00  0.00    +0.000 N 
ATOM      2  C   UNL     1      48.811   6.967  17.294  0.00  0.00    +0.000 C 
ATOM      3  O   UNL     1      48.707   7.653  18.311  0.00  0.00    +0.000 OA
ENDROOT
BRANCH   2   4
ATOM      4  C   UNL     1      48.622   5.498  17.424  0.00  0.00    +0.000 A 
ATOM      5  C   UNL     1      47.411   4.825  17.363  0.00  0.00    +0.000 A 
ATOM      6  S   UNL     1      47.553   3.124  17.476  0.00  0.00    +0.000 S 
ATOM      7  C   UNL     1      49.248   3.214  17.462  0.00  0.00    +0.000 A 
ATOM      8  N   UNL     1      50.005   2.084  17.432  0.00  0.00    +0.000 NA
ATOM      9  C   UNL     1      51.280   2.300  17.366  0.00  0.00    +0.000 A 
ATOM     10  N   UNL     1      51.867   3.541  17.384  0.00  0.00    +0.000 N 
ATOM     11  C   UNL     1      51.141   4.706  17.557  0.00  0.00    +0.000 A 
ATOM     12  O   UNL     1      51.711   5.753  17.833  0.00  0.00    +0.000 OA
ATOM     13  C   UNL     1      49.695   4.522  17.493  0.00  0.00    +0.000 A 
ATOM     14  H   UNL     1      52.873   3.639  17.436  0.00  0.00    +0.000 HD
ENDBRANCH   2   4
BRANCH   1  15
ATOM     15  C   UNL     1      49.181   9.022  15.927  0.00  0.00    +0.000 C 
BRANCH  15  16
ATOM     16  C   UNL     1      50.450   9.676  15.347  0.00  0.00    +0.000 C 
BRANCH  16  18
ATOM     17  C   UNL     1      51.137   9.268  13.146  0.00  0.00    +0.000 C 
ATOM     18  O   UNL     1      50.287  10.058  13.977  0.00  0.00    +0.000 OA
ENDBRANCH  16  18
ENDBRANCH  15  16
ENDBRANCH   1  15
BRANCH   1  19
ATOM     19  C   UNL     1      48.927   6.782  14.825  0.00  0.00    +0.000 C 
BRANCH  19  20
ATOM     20  C   UNL     1      47.579   6.596  14.167  0.00  0.00    +0.000 A 
ATOM     21  C   UNL     1      47.070   7.618  13.356  0.00  0.00    +0.000 A 
ATOM     22  C   UNL     1      46.349   7.281  12.219  0.00  0.00    +0.000 A 
ATOM     23  C   UNL     1      46.165   5.932  11.893  0.00  0.00    +0.000 A 
ATOM     24  C   UNL     1      46.410   4.954  12.864  0.00  0.00    +0.000 A 
ATOM     25  C   UNL     1      47.086   5.294  14.030  0.00  0.00    +0.000 A 
BRANCH  23  26
ATOM     26  C   UNL     1      45.798   5.553  10.481  0.00  0.00    +0.000 C 
BRANCH  26  27
ATOM     27  N   UNL     1      44.354   5.354  10.217  0.00  0.00    +0.000 NA
ATOM     28  C   UNL     1      43.416   5.224  11.359  0.00  0.00    +0.000 C 
ATOM     29  C   UNL     1      43.201   3.821  11.999  0.00  0.00    +0.000 C 
ATOM     30  O   UNL     1      43.289   2.716  11.088  0.00  0.00    +0.000 OA
ATOM     31  C   UNL     1      44.392   2.873  10.198  0.00  0.00    +0.000 C 
ATOM     32  C   UNL     1      44.179   4.151   9.376  0.00  0.00    +0.000 C 
ENDBRANCH  26  27
ENDBRANCH  23  26
ENDBRANCH  19  20
ENDBRANCH   1  19
TORSDOF 8
ENDMDL
MODEL 4
REMARK VINA RESULT:    -5.940      3.072      6.511
REMARK INTER + INTRA:          -9.775
REMARK INTER:                  -8.305
REMARK INTRA:                  -1.470
REMARK UNBOUND:                -1.056
REMARK  Name = 
REMARK  9 active torsions:
REMARK  status: ('A' for Active; 'I' for Inactive)
REMARK    1  A    between atoms: C_1  and  O_2
REMARK    2  A    between atoms: O_2  and  C_3
REMARK    3  A    between atoms: C_3  and  C_4
REMARK    4  A    between atoms: C_4  and  N_5
REMARK    5  A    between atoms: N_5  and  C_6
REMARK    6  A    between atoms: C_6  and  C_7
REMARK    7  A    between atoms: C_10  and  C_11
REMARK    8  A    between atoms: C_11  and  N_12
REMARK    9  A    between atoms: C_20  and  C_22
REMARK                            x       y       z     vdW  Elec       q    Type
REMARK                         _______ _______ _______ _____ _____    ______ ____
ROOT
ATOM      1  N   UNL     1      48.801   8.245  17.403  0.00  0.00    +0.000 N 
ATOM      2  C   UNL     1      48.719   7.053  18.164  0.00  0.00    +0.000 C 
ATOM      3  O   UNL     1      47.851   6.904  19.025  0.00  0.00    +0.000 OA
ENDROOT
BRANCH   2   4
ATOM      4  C   UNL     1      49.688   5.946  17.956  0.00  0.00    +0.000 A 
ATOM      5  C   UNL     1      51.001   5.918  18.401  0.00  0.00    +0.000 A 
ATOM      6  S   UNL     1      51.823   4.458  18.056  0.00  0.00    +0.000 S 
ATOM      7  C   UNL     1      50.412   3.752  17.430  0.00  0.00    +0.000 A 
ATOM      8  N   UNL     1      50.398   2.448  17.043  0.00  0.00    +0.000 NA
ATOM      9  C   UNL     1      49.242   2.026  16.640  0.00  0.00    +0.000 A 
ATOM     10  N   UNL     1      48.116   2.804  16.536  0.00  0.00    +0.000 N 
ATOM     11  C   UNL     1      48.125   4.165  16.783  0.00  0.00    +0.000 A 
ATOM     12  O   UNL     1      47.185   4.863  16.427  0.00  0.00    +0.000 OA
ATOM     13  C   UNL     1      49.365   4.654  17.374  0.00  0.00    +0.000 A 
ATOM     14  H   UNL     1      47.271   2.440  16.113  0.00  0.00    +0.000 HD
ENDBRANCH   2   4
BRANCH   1  15
ATOM     15  C   UNL     1      47.756   9.275  17.557  0.00  0.00    +0.000 C 
BRANCH  15  16
ATOM     16  C   UNL     1      48.123  10.634  18.184  0.00  0.00    +0.000 C 
BRANCH  16  18
ATOM     17  C   UNL     1      46.601  11.136  19.892  0.00  0.00    +0.000 C 
ATOM     18  O   UNL     1      46.965  11.399  18.537  0.00  0.00    +0.000 OA
ENDBRANCH  16  18
ENDBRANCH  15  16
ENDBRANCH   1  15
BRANCH   1  19
ATOM     19  C   UNL     1      49.619   8.276  16.206  0.00  0.00    +0.000 C 
BRANCH  19  20
ATOM     20  C   UNL     1      49.049   8.109  14.816  0.00  0.00    +0.000 A 
ATOM     21  C   UNL     1      49.045   6.837  14.229  0.00  0.00    +0.000 A 
ATOM     22  C   UNL     1      47.972   6.466  13.430  0.00  0.00    +0.000 A 
ATOM     23  C   UNL     1      46.908   7.358  13.247  0.00  0.00    +0.000 A 
ATOM     24  C   UNL     1      47.080   8.707  13.581  0.00  0.00    +0.000 A 
ATOM     25  C   UNL     1      48.180   9.095  14.337  0.00  0.00    +0.000 A 
BRANCH  23  26
ATOM     26  C   UNL     1      45.573   6.836  12.782  0.00  0.00    +0.000 C 
BRANCH  26  27
ATOM     27  N   UNL     1      45.548   5.422  12.338  0.00  0.00    +0.000 NA
ATOM     28  C   UNL     1      45.143   5.103  10.947  0.00  0.00    +0.000 C 
ATOM     29  C   UNL     1      43.630   4.935  10.624  0.00  0.00    +0.000 C 
ATOM     30  O   UNL     1      42.839   4.380  11.684  0.00  0.00    +0.000 OA
ATOM     31  C   UNL     1      43.185   4.962  12.940  0.00  0.00    +0.000 C 
ATOM     32  C   UNL     1      44.659   4.652  13.233  0.00  0.00    +0.000 C 
ENDBRANCH  26  27
ENDBRANCH  23  26
ENDBRANCH  19  20
ENDBRANCH   1  19
TORSDOF 8
ENDMDL
MODEL 5
REMARK VINA RESULT:    -5.871      3.189      6.661
REMARK INTER + INTRA:          -9.673
REMARK INTER:                  -8.335
REMARK INTRA:                  -1.338
REMARK UNBOUND:                -1.056
REMARK  Name = 
REMARK  9 active torsions:
REMARK  status: ('A' for Active; 'I' for Inactive)
REMARK    1  A    between atoms: C_1  and  O_2
REMARK    2  A    between atoms: O_2  and  C_3
REMARK    3  A    between atoms: C_3  and  C_4
REMARK    4  A    between atoms: C_4  and  N_5
REMARK    5  A    between atoms: N_5  and  C_6
REMARK    6  A    between atoms: C_6  and  C_7
REMARK    7  A    between atoms: C_10  and  C_11
REMARK    8  A    between atoms: C_11  and  N_12
REMARK    9  A    between atoms: C_20  and  C_22
REMARK                            x       y       z     vdW  Elec       q    Type
REMARK                         _______ _______ _______ _____ _____    ______ ____
ROOT
ATOM      1  N   UNL     1      49.737   7.552  16.807  0.00  0.00    +0.000 N 
ATOM      2  C   UNL     1      48.964   6.664  17.594  0.00  0.00    +0.000 C 
ATOM      3  O   UNL     1      48.488   7.018  18.674  0.00  0.00    +0.000 OA
ENDROOT
BRANCH   2   4
ATOM      4  C   UNL     1      48.710   5.270  17.147  0.00  0.00    +0.000 A 
ATOM      5  C   UNL     1      47.668   4.853  16.332  0.00  0.00    +0.000 A 
ATOM      6  S   UNL     1      47.709   3.188  15.945  0.00  0.00    +0.000 S 
ATOM      7  C   UNL     1      49.200   2.990  16.731  0.00  0.00    +0.000 A 
ATOM      8  N   UNL     1      49.858   1.800  16.688  0.00  0.00    +0.000 NA
ATOM      9  C   UNL     1      51.009   1.807  17.280  0.00  0.00    +0.000 A 
ATOM     10  N   UNL     1      51.535   2.879  17.958  0.00  0.00    +0.000 N 
ATOM     11  C   UNL     1      50.836   4.057  18.146  0.00  0.00    +0.000 A 
ATOM     12  O   UNL     1      51.220   4.877  18.969  0.00  0.00    +0.000 OA
ATOM     13  C   UNL     1      49.599   4.145  17.378  0.00  0.00    +0.000 A 
ATOM     14  H   UNL     1      52.392   2.787  18.489  0.00  0.00    +0.000 HD
ENDBRANCH   2   4
BRANCH   1  15
ATOM     15  C   UNL     1      49.874   8.959  17.227  0.00  0.00    +0.000 C 
BRANCH  15  16
ATOM     16  C   UNL     1      51.102   9.385  18.054  0.00  0.00    +0.000 C 
BRANCH  16  18
ATOM     17  C   UNL     1      49.478  10.338  19.448  0.00  0.00    +0.000 C 
ATOM     18  O   UNL     1      50.760   9.710  19.406  0.00  0.00    +0.000 OA
ENDBRANCH  16  18
ENDBRANCH  15  16
ENDBRANCH   1  15
BRANCH   1  19
ATOM     19  C   UNL     1      50.021   7.221  15.424  0.00  0.00    +0.000 C 
BRANCH  19  20
ATOM     20  C   UNL     1      49.242   7.797  14.264  0.00  0.00    +0.000 A 
ATOM     21  C   UNL     1      49.479   7.308  12.973  0.00  0.00    +0.000 A 
ATOM     22  C   UNL     1      48.414   7.187  12.091  0.00  0.00    +0.000 A 
ATOM     23  C   UNL     1      47.125   7.532  12.515  0.00  0.00    +0.000 A 
ATOM     24  C   UNL     1      46.968   8.296  13.678  0.00  0.00    +0.000 A 
ATOM     25  C   UNL     1      48.045   8.465  14.541  0.00  0.00    +0.000 A 
BRANCH  23  26
ATOM     26  C   UNL     1      45.931   7.001  11.765  0.00  0.00    +0.000 C 
BRANCH  26  27
ATOM     27  N   UNL     1      45.780   5.527  11.744  0.00  0.00    +0.000 NA
ATOM     28  C   UNL     1      45.075   4.884  10.608  0.00  0.00    +0.000 C 
ATOM     29  C   UNL     1      43.524   4.758  10.660  0.00  0.00    +0.000 C 
ATOM     30  O   UNL     1      42.972   4.569  11.971  0.00  0.00    +0.000 OA
ATOM     31  C   UNL     1      43.595   5.435  12.918  0.00  0.00    +0.000 C 
ATOM     32  C   UNL     1      45.091   5.096  12.979  0.00  0.00    +0.000 C 
ENDBRANCH  26  27
ENDBRANCH  23  26
ENDBRANCH  19  20
ENDBRANCH   1  19
TORSDOF 8
ENDMDL
MODEL 6
REMARK VINA RESULT:    -5.840      3.048      7.095
REMARK INTER + INTRA:          -9.628
REMARK INTER:                  -8.088
REMARK INTRA:                  -1.540
REMARK UNBOUND:                -1.056
REMARK  Name = 
REMARK  9 active torsions:
REMARK  status: ('A' for Active; 'I' for Inactive)
REMARK    1  A    between atoms: C_1  and  O_2
REMARK    2  A    between atoms: O_2  and  C_3
REMARK    3  A    between atoms: C_3  and  C_4
REMARK    4  A    between atoms: C_4  and  N_5
REMARK    5  A    between atoms: N_5  and  C_6
REMARK    6  A    between atoms: C_6  and  C_7
REMARK    7  A    between atoms: C_10  and  C_11
REMARK    8  A    between atoms: C_11  and  N_12
REMARK    9  A    between atoms: C_20  and  C_22
REMARK                            x       y       z     vdW  Elec       q    Type
REMARK                         _______ _______ _______ _____ _____    ______ ____
ROOT
ATOM      1  N   UNL     1      46.332   7.662  12.304  0.00  0.00    +0.000 N 
ATOM      2  C   UNL     1      45.183   7.397  11.521  0.00  0.00    +0.000 C 
ATOM      3  O   UNL     1      44.285   8.230  11.403  0.00  0.00    +0.000 OA
ENDROOT
BRANCH   2   4
ATOM      4  C   UNL     1      45.020   6.095  10.822  0.00  0.00    +0.000 A 
ATOM      5  C   UNL     1      45.558   5.759   9.588  0.00  0.00    +0.000 A 
ATOM      6  S   UNL     1      45.240   4.151   9.104  0.00  0.00    +0.000 S 
ATOM      7  C   UNL     1      44.497   3.796  10.588  0.00  0.00    +0.000 A 
ATOM      8  N   UNL     1      44.080   2.533  10.875  0.00  0.00    +0.000 NA
ATOM      9  C   UNL     1      43.584   2.394  12.063  0.00  0.00    +0.000 A 
ATOM     10  N   UNL     1      43.417   3.414  12.967  0.00  0.00    +0.000 N 
ATOM     11  C   UNL     1      43.696   4.733  12.661  0.00  0.00    +0.000 A 
ATOM     12  O   UNL     1      43.289   5.633  13.384  0.00  0.00    +0.000 OA
ATOM     13  C   UNL     1      44.387   4.917  11.390  0.00  0.00    +0.000 A 
ATOM     14  H   UNL     1      42.926   3.259  13.839  0.00  0.00    +0.000 HD
ENDBRANCH   2   4
BRANCH   1  15
ATOM     15  C   UNL     1      46.515   9.004  12.890  0.00  0.00    +0.000 C 
BRANCH  15  16
ATOM     16  C   UNL     1      47.637   9.915  12.356  0.00  0.00    +0.000 C 
BRANCH  16  18
ATOM     17  C   UNL     1      48.871  11.349  13.737  0.00  0.00    +0.000 C 
ATOM     18  O   UNL     1      48.740  10.008  13.265  0.00  0.00    +0.000 OA
ENDBRANCH  16  18
ENDBRANCH  15  16
ENDBRANCH   1  15
BRANCH   1  19
ATOM     19  C   UNL     1      47.498   6.807  12.181  0.00  0.00    +0.000 C 
BRANCH  19  20
ATOM     20  C   UNL     1      48.041   5.987  13.329  0.00  0.00    +0.000 A 
ATOM     21  C   UNL     1      48.972   6.566  14.200  0.00  0.00    +0.000 A 
ATOM     22  C   UNL     1      48.922   6.248  15.551  0.00  0.00    +0.000 A 
ATOM     23  C   UNL     1      47.931   5.376  16.017  0.00  0.00    +0.000 A 
ATOM     24  C   UNL     1      47.227   4.586  15.100  0.00  0.00    +0.000 A 
ATOM     25  C   UNL     1      47.312   4.866  13.741  0.00  0.00    +0.000 A 
BRANCH  23  26
ATOM     26  C   UNL     1      47.577   5.370  17.482  0.00  0.00    +0.000 C 
BRANCH  26  27
ATOM     27  N   UNL     1      48.637   5.833  18.408  0.00  0.00    +0.000 NA
ATOM     28  C   UNL     1      49.364   4.842  19.238  0.00  0.00    +0.000 C 
ATOM     29  C   UNL     1      48.754   4.413  20.604  0.00  0.00    +0.000 C 
ATOM     30  O   UNL     1      48.021   5.436  21.292  0.00  0.00    +0.000 OA
ATOM     31  C   UNL     1      47.181   6.157  20.391  0.00  0.00    +0.000 C 
ATOM     32  C   UNL     1      48.064   6.833  19.334  0.00  0.00    +0.000 C 
ENDBRANCH  26  27
ENDBRANCH  23  26
ENDBRANCH  19  20
ENDBRANCH   1  19
TORSDOF 8
ENDMDL
MODEL 7
REMARK VINA RESULT:    -5.826      2.295      6.452
REMARK INTER + INTRA:          -9.607
REMARK INTER:                  -8.032
REMARK INTRA:                  -1.575
REMARK UNBOUND:                -1.056
REMARK  Name = 
REMARK  9 active torsions:
REMARK  status: ('A' for Active; 'I' for Inactive)
REMARK    1  A    between atoms: C_1  and  O_2
REMARK    2  A    between atoms: O_2  and  C_3
REMARK    3  A    between atoms: C_3  and  C_4
REMARK    4  A    between atoms: C_4  and  N_5
REMARK    5  A    between atoms: N_5  and  C_6
REMARK    6  A    between atoms: C_6  and  C_7
REMARK    7  A    between atoms: C_10  and  C_11
REMARK    8  A    between atoms: C_11  and  N_12
REMARK    9  A    between atoms: C_20  and  C_22
REMARK                            x       y       z     vdW  Elec       q    Type
REMARK                         _______ _______ _______ _____ _____    ______ ____
ROOT
ATOM      1  N   UNL     1      49.856   9.352  15.318  0.00  0.00    +0.000 N 
ATOM      2  C   UNL     1      50.221   9.119  16.666  0.00  0.00    +0.000 C 
ATOM      3  O   UNL     1      51.334   9.433  17.089  0.00  0.00    +0.000 OA
ENDROOT
BRANCH   2   4
ATOM      4  C   UNL     1      49.273   8.477  17.613  0.00  0.00    +0.000 A 
ATOM      5  C   UNL     1      48.484   9.133  18.547  0.00  0.00    +0.000 A 
ATOM      6  S   UNL     1      47.447   8.100  19.431  0.00  0.00    +0.000 S 
ATOM      7  C   UNL     1      47.904   6.757  18.499  0.00  0.00    +0.000 A 
ATOM      8  N   UNL     1      47.301   5.550  18.672  0.00  0.00    +0.000 NA
ATOM      9  C   UNL     1      47.707   4.632  17.856  0.00  0.00    +0.000 A 
ATOM     10  N   UNL     1      48.699   4.795  16.921  0.00  0.00    +0.000 N 
ATOM     11  C   UNL     1      49.433   5.962  16.811  0.00  0.00    +0.000 A 
ATOM     12  O   UNL     1      50.471   5.980  16.162  0.00  0.00    +0.000 OA
ATOM     13  C   UNL     1      48.918   7.068  17.611  0.00  0.00    +0.000 A 
ATOM     14  H   UNL     1      49.043   4.008  16.386  0.00  0.00    +0.000 HD
ENDBRANCH   2   4
BRANCH   1  15
ATOM     15  C   UNL     1      50.778  10.093  14.436  0.00  0.00    +0.000 C 
BRANCH  15  16
ATOM     16  C   UNL     1      51.657   9.316  13.438  0.00  0.00    +0.000 C 
BRANCH  16  18
ATOM     17  C   UNL     1      51.847   8.442  11.273  0.00  0.00    +0.000 C 
ATOM     18  O   UNL     1      51.130   9.352  12.107  0.00  0.00    +0.000 OA
ENDBRANCH  16  18
ENDBRANCH  15  16
ENDBRANCH   1  15
BRANCH   1  19
ATOM     19  C   UNL     1      48.462   9.261  14.926  0.00  0.00    +0.000 C 
BRANCH  19  20
ATOM     20  C   UNL     1      47.987   8.415  13.767  0.00  0.00    +0.000 A 
ATOM     21  C   UNL     1      48.680   7.239  13.452  0.00  0.00    +0.000 A 
ATOM     22  C   UNL     1      47.967   6.132  13.015  0.00  0.00    +0.000 A 
ATOM     23  C   UNL     1      46.572   6.204  12.919  0.00  0.00    +0.000 A 
ATOM     24  C   UNL     1      45.948   7.457  12.938  0.00  0.00    +0.000 A 
ATOM     25  C   UNL     1      46.670   8.581  13.326  0.00  0.00    +0.000 A 
BRANCH  23  26
ATOM     26  C   UNL     1      45.763   4.933  12.889  0.00  0.00    +0.000 C 
BRANCH  26  27
ATOM     27  N   UNL     1      44.414   5.035  12.285  0.00  0.00    +0.000 NA
ATOM     28  C   UNL     1      43.388   4.018  12.620  0.00  0.00    +0.000 C 
ATOM     29  C   UNL     1      43.344   2.695  11.800  0.00  0.00    +0.000 C 
ATOM     30  O   UNL     1      43.723   2.819  10.422  0.00  0.00    +0.000 OA
ATOM     31  C   UNL     1      44.879   3.645  10.282  0.00  0.00    +0.000 C 
ATOM     32  C   UNL     1      44.546   5.046  10.812  0.00  0.00    +0.000 C 
ENDBRANCH  26  27
ENDBRANCH  23  26
ENDBRANCH  19  20
ENDBRANCH   1  19
TORSDOF 8
ENDMDL
MODEL 8
REMARK VINA RESULT:    -5.746      3.359      6.922
REMARK INTER + INTRA:          -9.490
REMARK INTER:                  -8.678
REMARK INTRA:                  -0.812
REMARK UNBOUND:                -1.056
REMARK  Name = 
REMARK  9 active torsions:
REMARK  status: ('A' for Active; 'I' for Inactive)
REMARK    1  A    between atoms: C_1  and  O_2
REMARK    2  A    between atoms: O_2  and  C_3
REMARK    3  A    between atoms: C_3  and  C_4
REMARK    4  A    between atoms: C_4  and  N_5
REMARK    5  A    between atoms: N_5  and  C_6
REMARK    6  A    between atoms: C_6  and  C_7
REMARK    7  A    between atoms: C_10  and  C_11
REMARK    8  A    between atoms: C_11  and  N_12
REMARK    9  A    between atoms: C_20  and  C_22
REMARK                            x       y       z     vdW  Elec       q    Type
REMARK                         _______ _______ _______ _____ _____    ______ ____
ROOT
ATOM      1  N   UNL     1      45.864   7.214  11.765  0.00  0.00    +0.000 N 
ATOM      2  C   UNL     1      44.594   6.653  11.487  0.00  0.00    +0.000 C 
ATOM      3  O   UNL     1      43.613   7.367  11.277  0.00  0.00    +0.000 OA
ENDROOT
BRANCH   2   4
ATOM      4  C   UNL     1      44.402   5.180  11.449  0.00  0.00    +0.000 A 
ATOM      5  C   UNL     1      43.779   4.414  12.424  0.00  0.00    +0.000 A 
ATOM      6  S   UNL     1      43.658   2.754  12.035  0.00  0.00    +0.000 S 
ATOM      7  C   UNL     1      44.300   3.018  10.486  0.00  0.00    +0.000 A 
ATOM      8  N   UNL     1      44.373   2.005   9.580  0.00  0.00    +0.000 NA
ATOM      9  C   UNL     1      44.830   2.361   8.422  0.00  0.00    +0.000 A 
ATOM     10  N   UNL     1      45.270   3.622   8.106  0.00  0.00    +0.000 N 
ATOM     11  C   UNL     1      45.344   4.640   9.039  0.00  0.00    +0.000 A 
ATOM     12  O   UNL     1      45.982   5.656   8.794  0.00  0.00    +0.000 OA
ATOM     13  C   UNL     1      44.710   4.327  10.315  0.00  0.00    +0.000 A 
ATOM     14  H   UNL     1      45.713   3.809   7.215  0.00  0.00    +0.000 HD
ENDBRANCH   2   4
BRANCH   1  15
ATOM     15  C   UNL     1      46.044   8.676  11.683  0.00  0.00    +0.000 C 
BRANCH  15  16
ATOM     16  C   UNL     1      45.317   9.584  12.693  0.00  0.00    +0.000 C 
BRANCH  16  18
ATOM     17  C   UNL     1      43.727  10.773  11.450  0.00  0.00    +0.000 C 
ATOM     18  O   UNL     1      44.978  10.858  12.132  0.00  0.00    +0.000 OA
ENDBRANCH  16  18
ENDBRANCH  15  16
ENDBRANCH   1  15
BRANCH   1  19
ATOM     19  C   UNL     1      47.047   6.377  11.703  0.00  0.00    +0.000 C 
BRANCH  19  20
ATOM     20  C   UNL     1      47.954   6.145  12.890  0.00  0.00    +0.000 A 
ATOM     21  C   UNL     1      49.083   6.957  13.054  0.00  0.00    +0.000 A 
ATOM     22  C   UNL     1      49.466   7.327  14.336  0.00  0.00    +0.000 A 
ATOM     23  C   UNL     1      48.707   6.902  15.433  0.00  0.00    +0.000 A 
ATOM     24  C   UNL     1      47.790   5.857  15.267  0.00  0.00    +0.000 A 
ATOM     25  C   UNL     1      47.439   5.445  13.986  0.00  0.00    +0.000 A 
BRANCH  23  26
ATOM     26  C   UNL     1      48.825   7.633  16.746  0.00  0.00    +0.000 C 
BRANCH  26  27
ATOM     27  N   UNL     1      49.827   7.100  17.699  0.00  0.00    +0.000 NA
ATOM     28  C   UNL     1      50.461   5.787  17.429  0.00  0.00    +0.000 C 
ATOM     29  C   UNL     1      49.740   4.491  17.902  0.00  0.00    +0.000 C 
ATOM     30  O   UNL     1      48.987   4.622  19.117  0.00  0.00    +0.000 OA
ATOM     31  C   UNL     1      48.237   5.836  19.126  0.00  0.00    +0.000 C 
ATOM     32  C   UNL     1      49.215   7.015  19.042  0.00  0.00    +0.000 C 
ENDBRANCH  26  27
ENDBRANCH  23  26
ENDBRANCH  19  20
ENDBRANCH   1  19
TORSDOF 8
ENDMDL
MODEL 9
REMARK VINA RESULT:    -5.724      2.229      6.156
REMARK INTER + INTRA:          -9.458
REMARK INTER:                  -7.979
REMARK INTRA:                  -1.479
REMARK UNBOUND:                -1.056
REMARK  Name = 
REMARK  9 active torsions:
REMARK  status: ('A' for Active; 'I' for Inactive)
REMARK    1  A    between atoms: C_1  and  O_2
REMARK    2  A    between atoms: O_2  and  C_3
REMARK    3  A    between atoms: C_3  and  C_4
REMARK    4  A    between atoms: C_4  and  N_5
REMARK    5  A    between atoms: N_5  and  C_6
REMARK    6  A    between atoms: C_6  and  C_7
REMARK    7  A    between atoms: C_10  and  C_11
REMARK    8  A    between atoms: C_11  and  N_12
REMARK    9  A    between atoms: C_20  and  C_22
REMARK                            x       y       z     vdW  Elec       q    Type
REMARK                         _______ _______ _______ _____ _____    ______ ____
ROOT
ATOM      1  N   UNL     1      50.243   7.746  14.897  0.00  0.00    +0.000 N 
ATOM      2  C   UNL     1      50.813   7.527  16.174  0.00  0.00    +0.000 C 
ATOM      3  O   UNL     1      51.722   8.241  16.598  0.00  0.00    +0.000 OA
ENDROOT
BRANCH   2   4
ATOM      4  C   UNL     1      50.337   6.419  17.042  0.00  0.00    +0.000 A 
ATOM      5  C   UNL     1      50.937   5.175  17.177  0.00  0.00    +0.000 A 
ATOM      6  S   UNL     1      50.175   4.154  18.318  0.00  0.00    +0.000 S 
ATOM      7  C   UNL     1      49.104   5.386  18.783  0.00  0.00    +0.000 A 
ATOM      8  N   UNL     1      48.234   5.202  19.812  0.00  0.00    +0.000 NA
ATOM      9  C   UNL     1      47.519   6.243  20.095  0.00  0.00    +0.000 A 
ATOM     10  N   UNL     1      47.555   7.431  19.408  0.00  0.00    +0.000 N 
ATOM     11  C   UNL     1      48.321   7.609  18.270  0.00  0.00    +0.000 A 
ATOM     12  O   UNL     1      48.128   8.573  17.541  0.00  0.00    +0.000 OA
ATOM     13  C   UNL     1      49.247   6.516  17.997  0.00  0.00    +0.000 A 
ATOM     14  H   UNL     1      46.895   8.170  19.613  0.00  0.00    +0.000 HD
ENDBRANCH   2   4
BRANCH   1  15
ATOM     15  C   UNL     1      50.660   8.923  14.110  0.00  0.00    +0.000 C 
BRANCH  15  16
ATOM     16  C   UNL     1      51.741   8.760  13.024  0.00  0.00    +0.000 C 
BRANCH  16  18
ATOM     17  C   UNL     1      50.398   9.698  11.350  0.00  0.00    +0.000 C 
ATOM     18  O   UNL     1      51.177   8.562  11.722  0.00  0.00    +0.000 OA
ENDBRANCH  16  18
ENDBRANCH  15  16
ENDBRANCH   1  15
BRANCH   1  19
ATOM     19  C   UNL     1      48.989   7.104  14.551  0.00  0.00    +0.000 C 
BRANCH  19  20
ATOM     20  C   UNL     1      48.116   7.567  13.407  0.00  0.00    +0.000 A 
ATOM     21  C   UNL     1      48.093   6.823  12.221  0.00  0.00    +0.000 A 
ATOM     22  C   UNL     1      46.899   6.700  11.524  0.00  0.00    +0.000 A 
ATOM     23  C   UNL     1      45.740   7.302  12.030  0.00  0.00    +0.000 A 
ATOM     24  C   UNL     1      45.855   8.278  13.027  0.00  0.00    +0.000 A 
ATOM     25  C   UNL     1      47.063   8.443  13.695  0.00  0.00    +0.000 A 
BRANCH  23  26
ATOM     26  C   UNL     1      44.390   6.824  11.560  0.00  0.00    +0.000 C 
BRANCH  26  27
ATOM     27  N   UNL     1      43.728   5.809  12.413  0.00  0.00    +0.000 NA
ATOM     28  C   UNL     1      44.558   4.842  13.171  0.00  0.00    +0.000 C 
ATOM     29  C   UNL     1      45.022   3.534  12.466  0.00  0.00    +0.000 C 
ATOM     30  O   UNL     1      44.100   3.000  11.505  0.00  0.00    +0.000 OA
ATOM     31  C   UNL     1      43.558   4.035  10.686  0.00  0.00    +0.000 C 
ATOM     32  C   UNL     1      42.794   5.018  11.582  0.00  0.00    +0.000 C 
ENDBRANCH  26  27
ENDBRANCH  23  26
ENDBRANCH  19  20
ENDBRANCH   1  19
TORSDOF 8
ENDMDL
