MODEL 1
REMARK VINA RESULT:    -8.026      0.000      0.000
REMARK INTER + INTRA:         -12.592
REMARK INTER:                 -11.310
REMARK INTRA:                  -1.282
REMARK UNBOUND:                -1.282
REMARK  Name = 
REMARK  7 active torsions:
REMARK  status: ('A' for Active; 'I' for Inactive)
REMARK    1  A    between atoms: C_2  and  C_20
REMARK    2  A    between atoms: N_3  and  C_4
REMARK    3  A    between atoms: C_4  and  C_5
REMARK    4  A    between atoms: C_8  and  C_9
REMARK    5  A    between atoms: C_9  and  N_10
REMARK    6  A    between atoms: N_10  and  C_11
REMARK    7  A    between atoms: C_11  and  C_12
REMARK                            x       y       z     vdW  Elec       q    Type
REMARK                         _______ _______ _______ _____ _____    ______ ____
ROOT
ATOM      1  C   UNL     1      46.634   6.286  12.423  0.00  0.00    +0.000 A 
ATOM      2  C   UNL     1      46.117   6.403  11.124  0.00  0.00    +0.000 A 
ATOM      3  C   UNL     1      45.181   5.476  10.657  0.00  0.00    +0.000 A 
ATOM      4  C   UNL     1      44.734   4.426  11.467  0.00  0.00    +0.000 A 
ATOM      5  C   UNL     1      45.202   4.348  12.784  0.00  0.00    +0.000 A 
ATOM      6  C   UNL     1      46.158   5.271  13.254  0.00  0.00    +0.000 A 
ENDROOT
BRANCH   1   7
ATOM      7  C   UNL     1      47.593   7.309  12.959  0.00  0.00    +0.000 C 
BRANCH   7  10
ATOM      8  O   UNL     1      48.353   8.536  15.343  0.00  0.00    +0.000 OA
ATOM      9  C   UNL     1      48.693   7.373  15.144  0.00  0.00    +0.000 C 
ATOM     10  N   UNL     1      48.412   6.714  13.975  0.00  0.00    +0.000 N 
ATOM     11  H   UNL     1      48.793   5.796  13.814  0.00  0.00    +0.000 HD
BRANCH   9  12
ATOM     12  C   UNL     1      49.396   6.560  16.132  0.00  0.00    +0.000 A 
ATOM     13  C   UNL     1      50.690   6.763  16.600  0.00  0.00    +0.000 A 
ATOM     14  N   UNL     1      50.920   5.829  17.572  0.00  0.00    +0.000 N 
ATOM     15  C   UNL     1      50.052   4.784  17.385  0.00  0.00    +0.000 A 
ATOM     16  C   UNL     1      50.130   3.444  17.770  0.00  0.00    +0.000 A 
ATOM     17  C   UNL     1      49.013   2.646  17.511  0.00  0.00    +0.000 A 
ATOM     18  C   UNL     1      47.835   3.200  17.010  0.00  0.00    +0.000 A 
ATOM     19  C   UNL     1      47.790   4.543  16.611  0.00  0.00    +0.000 A 
ATOM     20  C   UNL     1      48.963   5.316  16.697  0.00  0.00    +0.000 A 
ATOM     21  H   UNL     1      51.662   5.862  18.259  0.00  0.00    +0.000 HD
ENDBRANCH   9  12
ENDBRANCH   7  10
ENDBRANCH   1   7
BRANCH   4  22
ATOM     22  C   UNL     1      43.719   3.418  10.971  0.00  0.00    +0.000 C 
BRANCH  22  23
ATOM     23  N   UNL     1      43.923   3.123   9.558  0.00  0.00    +0.000 NA
ATOM     24  H   UNL     1      44.374   3.922   9.115  0.00  0.00    +0.000 HD
BRANCH  23  25
ATOM     25  C   UNL     1      44.707   1.916   9.328  0.00  0.00    +0.000 C 
BRANCH  25  26
ATOM     26  C   UNL     1      45.932   2.276   8.468  0.00  0.00    +0.000 C 
ATOM     27  C   UNL     1      45.587   3.336   7.405  0.00  0.00    +0.000 C 
ATOM     28  C   UNL     1      46.796   3.678   6.539  0.00  0.00    +0.000 C 
ATOM     29  C   UNL     1      47.383   2.433   5.888  0.00  0.00    +0.000 C 
ATOM     30  C   UNL     1      47.726   1.368   6.925  0.00  0.00    +0.000 C 
ATOM     31  C   UNL     1      46.522   1.023   7.803  0.00  0.00    +0.000 C 
ENDBRANCH  25  26
ENDBRANCH  23  25
ENDBRANCH  22  23
ENDBRANCH   4  22
TORSDOF 7
ENDMDL
MODEL 2
REMARK VINA RESULT:    -7.963      2.190      2.789
REMARK INTER + INTRA:         -12.503
REMARK INTER:                 -11.534
REMARK INTRA:                  -0.968
REMARK UNBOUND:                -1.282
REMARK  Name = 
REMARK  7 active torsions:
REMARK  status: ('A' for Active; 'I' for Inactive)
REMARK    1  A    between atoms: C_2  and  C_20
REMARK    2  A    between atoms: N_3  and  C_4
REMARK    3  A    between atoms: C_4  and  C_5
REMARK    4  A    between atoms: C_8  and  C_9
REMARK    5  A    between atoms: C_9  and  N_10
REMARK    6  A    between atoms: N_10  and  C_11
REMARK    7  A    between atoms: C_11  and  C_12
REMARK                            x       y       z     vdW  Elec       q    Type
REMARK                         _______ _______ _______ _____ _____    ______ ____
ROOT
ATOM      1  C   UNL     1      46.891   6.088  13.078  0.00  0.00    +0.000 A 
ATOM      2  C   UNL     1      46.771   6.556  11.761  0.00  0.00    +0.000 A 
ATOM      3  C   UNL     1      45.680   6.171  10.978  0.00  0.00    +0.000 A 
ATOM      4  C   UNL     1      44.687   5.324  11.482  0.00  0.00    +0.000 A 
ATOM      5  C   UNL     1      44.774   4.908  12.816  0.00  0.00    +0.000 A 
ATOM      6  C   UNL     1      45.880   5.281  13.606  0.00  0.00    +0.000 A 
ENDROOT
BRANCH   1   7
ATOM      7  C   UNL     1      48.023   6.543  13.952  0.00  0.00    +0.000 C 
BRANCH   7  10
ATOM      8  O   UNL     1      50.029   6.352  15.877  0.00  0.00    +0.000 OA
ATOM      9  C   UNL     1      48.892   5.997  16.173  0.00  0.00    +0.000 C 
ATOM     10  N   UNL     1      47.860   6.002  15.271  0.00  0.00    +0.000 N 
ATOM     11  H   UNL     1      46.968   5.611  15.527  0.00  0.00    +0.000 HD
BRANCH   9  12
ATOM     12  C   UNL     1      48.507   5.566  17.515  0.00  0.00    +0.000 A 
ATOM     13  C   UNL     1      47.939   4.344  17.860  0.00  0.00    +0.000 A 
ATOM     14  N   UNL     1      47.820   4.323  19.222  0.00  0.00    +0.000 N 
ATOM     15  C   UNL     1      47.821   5.617  19.678  0.00  0.00    +0.000 A 
ATOM     16  C   UNL     1      47.306   6.179  20.848  0.00  0.00    +0.000 A 
ATOM     17  C   UNL     1      47.565   7.534  21.065  0.00  0.00    +0.000 A 
ATOM     18  C   UNL     1      48.407   8.251  20.214  0.00  0.00    +0.000 A 
ATOM     19  C   UNL     1      48.892   7.669  19.034  0.00  0.00    +0.000 A 
ATOM     20  C   UNL     1      48.492   6.360  18.709  0.00  0.00    +0.000 A 
ATOM     21  H   UNL     1      47.669   3.500  19.790  0.00  0.00    +0.000 HD
ENDBRANCH   9  12
ENDBRANCH   7  10
ENDBRANCH   1   7
BRANCH   4  22
ATOM     22  C   UNL     1      43.501   4.901  10.641  0.00  0.00    +0.000 C 
BRANCH  22  23
ATOM     23  N   UNL     1      43.935   4.379   9.351  0.00  0.00    +0.000 NA
ATOM     24  H   UNL     1      44.717   4.939   9.013  0.00  0.00    +0.000 HD
BRANCH  23  25
ATOM     25  C   UNL     1      44.310   2.972   9.396  0.00  0.00    +0.000 C 
BRANCH  25  26
ATOM     26  C   UNL     1      45.173   2.648   8.162  0.00  0.00    +0.000 C 
ATOM     27  C   UNL     1      46.112   1.455   8.426  0.00  0.00    +0.000 C 
ATOM     28  C   UNL     1      46.982   1.145   7.211  0.00  0.00    +0.000 C 
ATOM     29  C   UNL     1      47.775   2.368   6.769  0.00  0.00    +0.000 C 
ATOM     30  C   UNL     1      46.862   3.563   6.510  0.00  0.00    +0.000 C 
ATOM     31  C   UNL     1      45.981   3.877   7.720  0.00  0.00    +0.000 C 
ENDBRANCH  25  26
ENDBRANCH  23  25
ENDBRANCH  22  23
ENDBRANCH   4  22
TORSDOF 7
ENDMDL
MODEL 3
REMARK VINA RESULT:    -7.578      1.980      8.583
REMARK INTER + INTRA:         -11.961
REMARK INTER:                 -10.834
REMARK INTRA:                  -1.128
REMARK UNBOUND:                -1.282
REMARK  Name = 
REMARK  7 active torsions:
REMARK  status: ('A' for Active; 'I' for Inactive)
REMARK    1  A    between atoms: C_2  and  C_20
REMARK    2  A    between atoms: N_3  and  C_4
REMARK    3  A    between atoms: C_4  and  C_5
REMARK    4  A    between atoms: C_8  and  C_9
REMARK    5  A    between atoms: C_9  and  N_10
REMARK    6  A    between atoms: N_10  and  C_11
REMARK    7  A    between atoms: C_11  and  C_12
REMARK                            x       y       z     vdW  Elec       q    Type
REMARK                         _______ _______ _______ _____ _____    ______ ____
ROOT
ATOM      1  C   UNL     1      46.217   7.338  12.334  0.00  0.00    +0.000 A 
ATOM      2  C   UNL     1      47.067   6.304  12.754  0.00  0.00    +0.000 A 
ATOM      3  C   UNL     1      47.994   6.532  13.775  0.00  0.00    +0.000 A 
ATOM      4  C   UNL     1      48.092   7.779  14.401  0.00  0.00    +0.000 A 
ATOM      5  C   UNL     1      47.200   8.790  14.026  0.00  0.00    +0.000 A 
ATOM      6  C   UNL     1      46.274   8.571  12.986  0.00  0.00    +0.000 A 
ENDROOT
BRANCH   1   7
ATOM      7  C   UNL     1      45.174   7.091  11.282  0.00  0.00    +0.000 C 
BRANCH   7  10
ATOM      8  O   UNL     1      42.985   5.486  10.652  0.00  0.00    +0.000 OA
ATOM      9  C   UNL     1      44.115   5.027  10.506  0.00  0.00    +0.000 C 
ATOM     10  N   UNL     1      45.243   5.726  10.847  0.00  0.00    +0.000 N 
ATOM     11  H   UNL     1      46.144   5.277  10.803  0.00  0.00    +0.000 HD
BRANCH   9  12
ATOM     12  C   UNL     1      44.380   3.713   9.928  0.00  0.00    +0.000 A 
ATOM     13  C   UNL     1      44.024   2.483  10.470  0.00  0.00    +0.000 A 
ATOM     14  N   UNL     1      44.386   1.522   9.568  0.00  0.00    +0.000 N 
ATOM     15  C   UNL     1      45.362   2.036   8.753  0.00  0.00    +0.000 A 
ATOM     16  C   UNL     1      46.356   1.408   8.000  0.00  0.00    +0.000 A 
ATOM     17  C   UNL     1      47.140   2.225   7.183  0.00  0.00    +0.000 A 
ATOM     18  C   UNL     1      46.852   3.583   7.034  0.00  0.00    +0.000 A 
ATOM     19  C   UNL     1      45.864   4.193   7.819  0.00  0.00    +0.000 A 
ATOM     20  C   UNL     1      45.186   3.418   8.779  0.00  0.00    +0.000 A 
ATOM     21  H   UNL     1      44.055   0.566   9.558  0.00  0.00    +0.000 HD
ENDBRANCH   9  12
ENDBRANCH   7  10
ENDBRANCH   1   7
BRANCH   4  22
ATOM     22  C   UNL     1      49.093   8.035  15.509  0.00  0.00    +0.000 C 
BRANCH  22  23
ATOM     23  N   UNL     1      48.569   7.598  16.797  0.00  0.00    +0.000 NA
ATOM     24  H   UNL     1      47.687   7.110  16.648  0.00  0.00    +0.000 HD
BRANCH  23  25
ATOM     25  C   UNL     1      49.492   6.746  17.536  0.00  0.00    +0.000 C 
BRANCH  25  26
ATOM     26  C   UNL     1      49.367   5.304  17.013  0.00  0.00    +0.000 C 
ATOM     27  C   UNL     1      47.899   4.837  16.987  0.00  0.00    +0.000 C 
ATOM     28  C   UNL     1      47.775   3.401  16.487  0.00  0.00    +0.000 C 
ATOM     29  C   UNL     1      48.630   2.448  17.314  0.00  0.00    +0.000 C 
ATOM     30  C   UNL     1      50.086   2.899  17.356  0.00  0.00    +0.000 C 
ATOM     31  C   UNL     1      50.221   4.340  17.849  0.00  0.00    +0.000 C 
ENDBRANCH  25  26
ENDBRANCH  23  25
ENDBRANCH  22  23
ENDBRANCH   4  22
TORSDOF 7
ENDMDL
MODEL 4
REMARK VINA RESULT:    -7.393      1.862      8.732
REMARK INTER + INTRA:         -11.700
REMARK INTER:                 -11.155
REMARK INTRA:                  -0.545
REMARK UNBOUND:                -1.282
REMARK  Name = 
REMARK  7 active torsions:
REMARK  status: ('A' for Active; 'I' for Inactive)
REMARK    1  A    between atoms: C_2  and  C_20
REMARK    2  A    between atoms: N_3  and  C_4
REMARK    3  A    between atoms: C_4  and  C_5
REMARK    4  A    between atoms: C_8  and  C_9
REMARK    5  A    between atoms: C_9  and  N_10
REMARK    6  A    between atoms: N_10  and  C_11
REMARK    7  A    between atoms: C_11  and  C_12
REMARK                            x       y       z     vdW  Elec       q    Type
REMARK                         _______ _______ _______ _____ _____    ______ ____
ROOT
ATOM      1  C   UNL     1      45.272   6.806  11.953  0.00  0.00    +0.000 A 
ATOM      2  C   UNL     1      45.953   8.027  11.848  0.00  0.00    +0.000 A 
ATOM      3  C   UNL     1      47.140   8.230  12.556  0.00  0.00    +0.000 A 
ATOM      4  C   UNL     1      47.678   7.228  13.372  0.00  0.00    +0.000 A 
ATOM      5  C   UNL     1      47.032   5.988  13.426  0.00  0.00    +0.000 A 
ATOM      6  C   UNL     1      45.826   5.784  12.726  0.00  0.00    +0.000 A 
ENDROOT
BRANCH   1   7
ATOM      7  C   UNL     1      44.029   6.551  11.150  0.00  0.00    +0.000 C 
BRANCH   7  10
ATOM      8  O   UNL     1      45.821   5.816   9.146  0.00  0.00    +0.000 OA
ATOM      9  C   UNL     1      45.058   4.965   9.597  0.00  0.00    +0.000 C 
ATOM     10  N   UNL     1      44.107   5.255  10.541  0.00  0.00    +0.000 N 
ATOM     11  H   UNL     1      43.440   4.551  10.812  0.00  0.00    +0.000 HD
BRANCH   9  12
ATOM     12  C   UNL     1      45.102   3.559   9.208  0.00  0.00    +0.000 A 
ATOM     13  C   UNL     1      44.515   2.494   9.884  0.00  0.00    +0.000 A 
ATOM     14  N   UNL     1      44.726   1.371   9.134  0.00  0.00    +0.000 N 
ATOM     15  C   UNL     1      45.802   1.593   8.313  0.00  0.00    +0.000 A 
ATOM     16  C   UNL     1      46.691   0.706   7.701  0.00  0.00    +0.000 A 
ATOM     17  C   UNL     1      47.633   1.256   6.829  0.00  0.00    +0.000 A 
ATOM     18  C   UNL     1      47.597   2.609   6.492  0.00  0.00    +0.000 A 
ATOM     19  C   UNL     1      46.711   3.483   7.137  0.00  0.00    +0.000 A 
ATOM     20  C   UNL     1      45.876   2.975   8.151  0.00  0.00    +0.000 A 
ATOM     21  H   UNL     1      44.230   0.495   9.229  0.00  0.00    +0.000 HD
ENDBRANCH   9  12
ENDBRANCH   7  10
ENDBRANCH   1   7
BRANCH   4  22
ATOM     22  C   UNL     1      48.965   7.438  14.143  0.00  0.00    +0.000 C 
BRANCH  22  23
ATOM     23  N   UNL     1      49.181   6.361  15.102  0.00  0.00    +0.000 NA
ATOM     24  H   UNL     1      50.058   5.891  14.879  0.00  0.00    +0.000 HD
BRANCH  23  25
ATOM     25  C   UNL     1      49.195   6.816  16.486  0.00  0.00    +0.000 C 
BRANCH  25  26
ATOM     26  C   UNL     1      48.500   5.759  17.364  0.00  0.00    +0.000 C 
ATOM     27  C   UNL     1      49.431   5.250  18.482  0.00  0.00    +0.000 C 
ATOM     28  C   UNL     1      48.750   4.189  19.340  0.00  0.00    +0.000 C 
ATOM     29  C   UNL     1      48.242   3.030  18.492  0.00  0.00    +0.000 C 
ATOM     30  C   UNL     1      47.323   3.516  17.375  0.00  0.00    +0.000 C 
ATOM     31  C   UNL     1      47.994   4.585  16.513  0.00  0.00    +0.000 C 
ENDBRANCH  25  26
ENDBRANCH  23  25
ENDBRANCH  22  23
ENDBRANCH   4  22
TORSDOF 7
ENDMDL
MODEL 5
REMARK VINA RESULT:    -7.083      1.696      8.405
REMARK INTER + INTRA:         -11.263
REMARK INTER:                  -9.869
REMARK INTRA:                  -1.394
REMARK UNBOUND:                -1.282
REMARK  Name = 
REMARK  7 active torsions:
REMARK  status: ('A' for Active; 'I' for Inactive)
REMARK    1  A    between atoms: C_2  and  C_20
REMARK    2  A    between atoms: N_3  and  C_4
REMARK    3  A    between atoms: C_4  and  C_5
REMARK    4  A    between atoms: C_8  and  C_9
REMARK    5  A    between atoms: C_9  and  N_10
REMARK    6  A    between atoms: N_10  and  C_11
REMARK    7  A    between atoms: C_11  and  C_12
REMARK                            x       y       z     vdW  Elec       q    Type
REMARK                         _______ _______ _______ _____ _____    ______ ____
ROOT
ATOM      1  C   UNL     1      47.981   7.595  13.775  0.00  0.00    +0.000 A 
ATOM      2  C   UNL     1      48.120   8.819  14.446  0.00  0.00    +0.000 A 
ATOM      3  C   UNL     1      48.565   8.845  15.770  0.00  0.00    +0.000 A 
ATOM      4  C   UNL     1      48.888   7.665  16.450  0.00  0.00    +0.000 A 
ATOM      5  C   UNL     1      48.811   6.450  15.759  0.00  0.00    +0.000 A 
ATOM      6  C   UNL     1      48.347   6.417  14.429  0.00  0.00    +0.000 A 
ENDROOT
BRANCH   1   7
ATOM      7  C   UNL     1      47.564   7.556  12.333  0.00  0.00    +0.000 C 
BRANCH   7  10
ATOM      8  O   UNL     1      44.810   7.141  12.233  0.00  0.00    +0.000 OA
ATOM      9  C   UNL     1      45.558   6.203  11.969  0.00  0.00    +0.000 C 
ATOM     10  N   UNL     1      46.923   6.304  12.052  0.00  0.00    +0.000 N 
ATOM     11  H   UNL     1      47.495   5.485  11.922  0.00  0.00    +0.000 HD
BRANCH   9  12
ATOM     12  C   UNL     1      45.084   4.900  11.512  0.00  0.00    +0.000 A 
ATOM     13  C   UNL     1      44.602   3.868  12.310  0.00  0.00    +0.000 A 
ATOM     14  N   UNL     1      44.189   2.868  11.474  0.00  0.00    +0.000 N 
ATOM     15  C   UNL     1      44.828   3.017  10.269  0.00  0.00    +0.000 A 
ATOM     16  C   UNL     1      45.121   2.093   9.264  0.00  0.00    +0.000 A 
ATOM     17  C   UNL     1      45.702   2.593   8.096  0.00  0.00    +0.000 A 
ATOM     18  C   UNL     1      45.859   3.966   7.902  0.00  0.00    +0.000 A 
ATOM     19  C   UNL     1      45.578   4.870   8.936  0.00  0.00    +0.000 A 
ATOM     20  C   UNL     1      45.162   4.367  10.183  0.00  0.00    +0.000 A 
ATOM     21  H   UNL     1      43.583   2.098  11.726  0.00  0.00    +0.000 HD
ENDBRANCH   9  12
ENDBRANCH   7  10
ENDBRANCH   1   7
BRANCH   4  22
ATOM     22  C   UNL     1      49.372   7.683  17.885  0.00  0.00    +0.000 C 
BRANCH  22  23
ATOM     23  N   UNL     1      50.098   6.460  18.207  0.00  0.00    +0.000 NA
ATOM     24  H   UNL     1      51.052   6.703  18.474  0.00  0.00    +0.000 HD
BRANCH  23  25
ATOM     25  C   UNL     1      49.468   5.675  19.260  0.00  0.00    +0.000 C 
BRANCH  25  26
ATOM     26  C   UNL     1      49.188   4.259  18.724  0.00  0.00    +0.000 C 
ATOM     27  C   UNL     1      50.284   3.796  17.746  0.00  0.00    +0.000 C 
ATOM     28  C   UNL     1      49.997   2.401  17.199  0.00  0.00    +0.000 C 
ATOM     29  C   UNL     1      48.625   2.333  16.542  0.00  0.00    +0.000 C 
ATOM     30  C   UNL     1      47.526   2.794  17.494  0.00  0.00    +0.000 C 
ATOM     31  C   UNL     1      47.808   4.189  18.053  0.00  0.00    +0.000 C 
ENDBRANCH  25  26
ENDBRANCH  23  25
ENDBRANCH  22  23
ENDBRANCH   4  22
TORSDOF 7
ENDMDL
MODEL 6
REMARK VINA RESULT:    -6.968      2.630      8.878
REMARK INTER + INTRA:         -11.101
REMARK INTER:                  -9.416
REMARK INTRA:                  -1.685
REMARK UNBOUND:                -1.282
REMARK  Name = 
REMARK  7 active torsions:
REMARK  status: ('A' for Active; 'I' for Inactive)
REMARK    1  A    between atoms: C_2  and  C_20
REMARK    2  A    between atoms: N_3  and  C_4
REMARK    3  A    between atoms: C_4  and  C_5
REMARK    4  A    between atoms: C_8  and  C_9
REMARK    5  A    between atoms: C_9  and  N_10
REMARK    6  A    between atoms: N_10  and  C_11
REMARK    7  A    between atoms: C_11  and  C_12
REMARK                            x       y       z     vdW  Elec       q    Type
REMARK                         _______ _______ _______ _____ _____    ______ ____
ROOT
ATOM      1  C   UNL     1      46.217   7.273  12.482  0.00  0.00    +0.000 A 
ATOM      2  C   UNL     1      46.481   8.435  13.221  0.00  0.00    +0.000 A 
ATOM      3  C   UNL     1      47.743   9.031  13.164  0.00  0.00    +0.000 A 
ATOM      4  C   UNL     1      48.763   8.493  12.370  0.00  0.00    +0.000 A 
ATOM      5  C   UNL     1      48.480   7.371  11.584  0.00  0.00    +0.000 A 
ATOM      6  C   UNL     1      47.213   6.757  11.650  0.00  0.00    +0.000 A 
ENDROOT
BRANCH   1   7
ATOM      7  C   UNL     1      44.848   6.658  12.484  0.00  0.00    +0.000 C 
BRANCH   7  10
ATOM      8  O   UNL     1      42.964   5.703  10.666  0.00  0.00    +0.000 OA
ATOM      9  C   UNL     1      43.950   5.013  10.911  0.00  0.00    +0.000 C 
ATOM     10  N   UNL     1      44.893   5.379  11.836  0.00  0.00    +0.000 N 
ATOM     11  H   UNL     1      45.633   4.740  12.077  0.00  0.00    +0.000 HD
BRANCH   9  12
ATOM     12  C   UNL     1      44.241   3.755  10.229  0.00  0.00    +0.000 A 
ATOM     13  C   UNL     1      43.921   2.478  10.677  0.00  0.00    +0.000 A 
ATOM     14  N   UNL     1      44.296   1.600   9.699  0.00  0.00    +0.000 N 
ATOM     15  C   UNL     1      45.249   2.201   8.917  0.00  0.00    +0.000 A 
ATOM     16  C   UNL     1      46.249   1.659   8.108  0.00  0.00    +0.000 A 
ATOM     17  C   UNL     1      47.004   2.557   7.349  0.00  0.00    +0.000 A 
ATOM     18  C   UNL     1      46.681   3.914   7.311  0.00  0.00    +0.000 A 
ATOM     19  C   UNL     1      45.687   4.436   8.150  0.00  0.00    +0.000 A 
ATOM     20  C   UNL     1      45.040   3.572   9.053  0.00  0.00    +0.000 A 
ATOM     21  H   UNL     1      43.988   0.640   9.617  0.00  0.00    +0.000 HD
ENDBRANCH   9  12
ENDBRANCH   7  10
ENDBRANCH   1   7
BRANCH   4  22
ATOM     22  C   UNL     1      50.135   9.132  12.301  0.00  0.00    +0.000 C 
BRANCH  22  23
ATOM     23  N   UNL     1      50.629   9.454  13.634  0.00  0.00    +0.000 NA
ATOM     24  H   UNL     1      49.856   9.805  14.197  0.00  0.00    +0.000 HD
BRANCH  23  25
ATOM     25  C   UNL     1      51.263   8.325  14.302  0.00  0.00    +0.000 C 
BRANCH  25  26
ATOM     26  C   UNL     1      50.622   8.145  15.690  0.00  0.00    +0.000 C 
ATOM     27  C   UNL     1      49.593   6.998  15.694  0.00  0.00    +0.000 C 
ATOM     28  C   UNL     1      48.942   6.831  17.064  0.00  0.00    +0.000 C 
ATOM     29  C   UNL     1      48.303   8.131  17.537  0.00  0.00    +0.000 C 
ATOM     30  C   UNL     1      49.305   9.280  17.533  0.00  0.00    +0.000 C 
ATOM     31  C   UNL     1      49.969   9.451  16.166  0.00  0.00    +0.000 C 
ENDBRANCH  25  26
ENDBRANCH  23  25
ENDBRANCH  22  23
ENDBRANCH   4  22
TORSDOF 7
ENDMDL
MODEL 7
REMARK VINA RESULT:    -6.907      3.993      7.969
REMARK INTER + INTRA:         -11.014
REMARK INTER:                  -9.956
REMARK INTRA:                  -1.058
REMARK UNBOUND:                -1.282
REMARK  Name = 
REMARK  7 active torsions:
REMARK  status: ('A' for Active; 'I' for Inactive)
REMARK    1  A    between atoms: C_2  and  C_20
REMARK    2  A    between atoms: N_3  and  C_4
REMARK    3  A    between atoms: C_4  and  C_5
REMARK    4  A    between atoms: C_8  and  C_9
REMARK    5  A    between atoms: C_9  and  N_10
REMARK    6  A    between atoms: N_10  and  C_11
REMARK    7  A    between atoms: C_11  and  C_12
REMARK                            x       y       z     vdW  Elec       q    Type
REMARK                         _______ _______ _______ _____ _____    ______ ____
ROOT
ATOM      1  C   UNL     1      46.219   7.300  12.426  0.00  0.00    +0.000 A 
ATOM      2  C   UNL     1      47.462   6.705  12.163  0.00  0.00    +0.000 A 
ATOM      3  C   UNL     1      48.565   7.501  11.843  0.00  0.00    +0.000 A 
ATOM      4  C   UNL     1      48.461   8.895  11.785  0.00  0.00    +0.000 A 
ATOM      5  C   UNL     1      47.237   9.491  12.110  0.00  0.00    +0.000 A 
ATOM      6  C   UNL     1      46.118   8.692  12.418  0.00  0.00    +0.000 A 
ENDROOT
BRANCH   1   7
ATOM      7  C   UNL     1      45.041   6.462  12.833  0.00  0.00    +0.000 C 
BRANCH   7  10
ATOM      8  O   UNL     1      43.095   5.695  10.992  0.00  0.00    +0.000 OA
ATOM      9  C   UNL     1      44.069   4.966  11.160  0.00  0.00    +0.000 C 
ATOM     10  N   UNL     1      45.041   5.238  12.086  0.00  0.00    +0.000 N 
ATOM     11  H   UNL     1      45.770   4.565  12.260  0.00  0.00    +0.000 HD
BRANCH   9  12
ATOM     12  C   UNL     1      44.314   3.758  10.376  0.00  0.00    +0.000 A 
ATOM     13  C   UNL     1      43.974   2.458  10.732  0.00  0.00    +0.000 A 
ATOM     14  N   UNL     1      44.305   1.649   9.681  0.00  0.00    +0.000 N 
ATOM     15  C   UNL     1      45.254   2.288   8.924  0.00  0.00    +0.000 A 
ATOM     16  C   UNL     1      46.223   1.789   8.050  0.00  0.00    +0.000 A 
ATOM     17  C   UNL     1      46.980   2.726   7.344  0.00  0.00    +0.000 A 
ATOM     18  C   UNL     1      46.689   4.089   7.418  0.00  0.00    +0.000 A 
ATOM     19  C   UNL     1      45.728   4.566   8.320  0.00  0.00    +0.000 A 
ATOM     20  C   UNL     1      45.081   3.649   9.169  0.00  0.00    +0.000 A 
ATOM     21  H   UNL     1      43.974   0.705   9.533  0.00  0.00    +0.000 HD
ENDBRANCH   9  12
ENDBRANCH   7  10
ENDBRANCH   1   7
BRANCH   4  22
ATOM     22  C   UNL     1      49.651   9.767  11.439  0.00  0.00    +0.000 C 
BRANCH  22  23
ATOM     23  N   UNL     1      50.859   8.965  11.288  0.00  0.00    +0.000 NA
ATOM     24  H   UNL     1      50.625   8.104  10.795  0.00  0.00    +0.000 HD
BRANCH  23  25
ATOM     25  C   UNL     1      51.931   9.664  10.591  0.00  0.00    +0.000 C 
BRANCH  25  26
ATOM     26  C   UNL     1      52.812   8.629   9.867  0.00  0.00    +0.000 C 
ATOM     27  C   UNL     1      52.879   8.903   8.352  0.00  0.00    +0.000 C 
ATOM     28  C   UNL     1      53.735   7.867   7.631  0.00  0.00    +0.000 C 
ATOM     29  C   UNL     1      53.240   6.452   7.901  0.00  0.00    +0.000 C 
ATOM     30  C   UNL     1      53.160   6.164   9.397  0.00  0.00    +0.000 C 
ATOM     31  C   UNL     1      52.310   7.201  10.131  0.00  0.00    +0.000 C 
ENDBRANCH  25  26
ENDBRANCH  23  25
ENDBRANCH  22  23
ENDBRANCH   4  22
TORSDOF 7
ENDMDL
MODEL 8
REMARK VINA RESULT:    -6.875      2.090      3.791
REMARK INTER + INTRA:         -10.971
REMARK INTER:                  -9.953
REMARK INTRA:                  -1.018
REMARK UNBOUND:                -1.282
REMARK  Name = 
REMARK  7 active torsions:
REMARK  status: ('A' for Active; 'I' for Inactive)
REMARK    1  A    between atoms: C_2  and  C_20
REMARK    2  A    between atoms: N_3  and  C_4
REMARK    3  A    between atoms: C_4  and  C_5
REMARK    4  A    between atoms: C_8  and  C_9
REMARK    5  A    between atoms: C_9  and  N_10
REMARK    6  A    between atoms: N_10  and  C_11
REMARK    7  A    between atoms: C_11  and  C_12
REMARK                            x       y       z     vdW  Elec       q    Type
REMARK                         _______ _______ _______ _____ _____    ______ ____
ROOT
ATOM      1  C   UNL     1      45.993   4.507  13.055  0.00  0.00    +0.000 A 
ATOM      2  C   UNL     1      45.885   5.584  12.162  0.00  0.00    +0.000 A 
ATOM      3  C   UNL     1      45.409   5.373  10.865  0.00  0.00    +0.000 A 
ATOM      4  C   UNL     1      45.025   4.099  10.432  0.00  0.00    +0.000 A 
ATOM      5  C   UNL     1      45.072   3.038  11.343  0.00  0.00    +0.000 A 
ATOM      6  C   UNL     1      45.566   3.242  12.647  0.00  0.00    +0.000 A 
ENDROOT
BRANCH   1   7
ATOM      7  C   UNL     1      46.443   4.729  14.470  0.00  0.00    +0.000 C 
BRANCH   7  10
ATOM      8  O   UNL     1      48.742   5.049  16.012  0.00  0.00    +0.000 OA
ATOM      9  C   UNL     1      48.385   5.974  15.286  0.00  0.00    +0.000 C 
ATOM     10  N   UNL     1      47.235   5.923  14.541  0.00  0.00    +0.000 N 
ATOM     11  H   UNL     1      46.929   6.738  14.036  0.00  0.00    +0.000 HD
BRANCH   9  12
ATOM     12  C   UNL     1      49.153   7.203  15.113  0.00  0.00    +0.000 A 
ATOM     13  C   UNL     1      49.505   8.106  16.110  0.00  0.00    +0.000 A 
ATOM     14  N   UNL     1      50.290   9.064  15.531  0.00  0.00    +0.000 N 
ATOM     15  C   UNL     1      50.037   9.076  14.183  0.00  0.00    +0.000 A 
ATOM     16  C   UNL     1      50.198  10.081  13.226  0.00  0.00    +0.000 A 
ATOM     17  C   UNL     1      49.940   9.735  11.898  0.00  0.00    +0.000 A 
ATOM     18  C   UNL     1      49.661   8.416  11.539  0.00  0.00    +0.000 A 
ATOM     19  C   UNL     1      49.482   7.432  12.521  0.00  0.00    +0.000 A 
ATOM     20  C   UNL     1      49.561   7.803  13.876  0.00  0.00    +0.000 A 
ATOM     21  H   UNL     1      50.889   9.714  16.022  0.00  0.00    +0.000 HD
ENDBRANCH   9  12
ENDBRANCH   7  10
ENDBRANCH   1   7
BRANCH   4  22
ATOM     22  C   UNL     1      44.506   3.860   9.029  0.00  0.00    +0.000 C 
BRANCH  22  23
ATOM     23  N   UNL     1      45.203   4.703   8.064  0.00  0.00    +0.000 NA
ATOM     24  H   UNL     1      45.273   5.648   8.441  0.00  0.00    +0.000 HD
BRANCH  23  25
ATOM     25  C   UNL     1      46.527   4.205   7.714  0.00  0.00    +0.000 C 
BRANCH  25  26
ATOM     26  C   UNL     1      46.371   2.907   6.900  0.00  0.00    +0.000 C 
ATOM     27  C   UNL     1      47.087   1.724   7.578  0.00  0.00    +0.000 C 
ATOM     28  C   UNL     1      46.950   0.442   6.763  0.00  0.00    +0.000 C 
ATOM     29  C   UNL     1      47.455   0.633   5.338  0.00  0.00    +0.000 C 
ATOM     30  C   UNL     1      46.761   1.806   4.652  0.00  0.00    +0.000 C 
ATOM     31  C   UNL     1      46.886   3.094   5.465  0.00  0.00    +0.000 C 
ENDBRANCH  25  26
ENDBRANCH  23  25
ENDBRANCH  22  23
ENDBRANCH   4  22
TORSDOF 7
ENDMDL
MODEL 9
REMARK VINA RESULT:    -6.600      4.681      7.852
REMARK INTER + INTRA:         -10.582
REMARK INTER:                  -9.640
REMARK INTRA:                  -0.942
REMARK UNBOUND:                -1.282
REMARK  Name = 
REMARK  7 active torsions:
REMARK  status: ('A' for Active; 'I' for Inactive)
REMARK    1  A    between atoms: C_2  and  C_20
REMARK    2  A    between atoms: N_3  and  C_4
REMARK    3  A    between atoms: C_4  and  C_5
REMARK    4  A    between atoms: C_8  and  C_9
REMARK    5  A    between atoms: C_9  and  N_10
REMARK    6  A    between atoms: N_10  and  C_11
REMARK    7  A    between atoms: C_11  and  C_12
REMARK                            x       y       z     vdW  Elec       q    Type
REMARK                         _______ _______ _______ _____ _____    ______ ____
ROOT
ATOM      1  C   UNL     1      45.081   7.754  12.200  0.00  0.00    +0.000 A 
ATOM      2  C   UNL     1      45.798   6.803  12.941  0.00  0.00    +0.000 A 
ATOM      3  C   UNL     1      45.402   5.463  12.929  0.00  0.00    +0.000 A 
ATOM      4  C   UNL     1      44.297   5.040  12.180  0.00  0.00    +0.000 A 
ATOM      5  C   UNL     1      43.622   5.978  11.392  0.00  0.00    +0.000 A 
ATOM      6  C   UNL     1      44.008   7.333  11.413  0.00  0.00    +0.000 A 
ENDROOT
BRANCH   1   7
ATOM      7  C   UNL     1      45.532   9.186  12.154  0.00  0.00    +0.000 C 
BRANCH   7  10
ATOM      8  O   UNL     1      45.239  11.955  12.048  0.00  0.00    +0.000 OA
ATOM      9  C   UNL     1      44.714  11.272  11.173  0.00  0.00    +0.000 C 
ATOM     10  N   UNL     1      44.758   9.902  11.182  0.00  0.00    +0.000 N 
ATOM     11  H   UNL     1      44.232   9.379  10.500  0.00  0.00    +0.000 HD
BRANCH   9  12
ATOM     12  C   UNL     1      44.019  11.838  10.020  0.00  0.00    +0.000 A 
ATOM     13  C   UNL     1      42.647  12.027   9.891  0.00  0.00    +0.000 A 
ATOM     14  N   UNL     1      42.434  12.659   8.698  0.00  0.00    +0.000 N 
ATOM     15  C   UNL     1      43.516  12.428   7.886  0.00  0.00    +0.000 A 
ATOM     16  C   UNL     1      43.641  12.443   6.495  0.00  0.00    +0.000 A 
ATOM     17  C   UNL     1      44.925  12.264   5.975  0.00  0.00    +0.000 A 
ATOM     18  C   UNL     1      46.039  12.204   6.812  0.00  0.00    +0.000 A 
ATOM     19  C   UNL     1      45.883  12.168   8.205  0.00  0.00    +0.000 A 
ATOM     20  C   UNL     1      44.583  12.166   8.743  0.00  0.00    +0.000 A 
ATOM     21  H   UNL     1      41.587  13.140   8.426  0.00  0.00    +0.000 HD
ENDBRANCH   9  12
ENDBRANCH   7  10
ENDBRANCH   1   7
BRANCH   4  22
ATOM     22  C   UNL     1      43.861   3.589  12.160  0.00  0.00    +0.000 C 
BRANCH  22  23
ATOM     23  N   UNL     1      44.801   2.771  11.404  0.00  0.00    +0.000 NA
ATOM     24  H   UNL     1      44.952   1.895  11.903  0.00  0.00    +0.000 HD
BRANCH  23  25
ATOM     25  C   UNL     1      44.364   2.501  10.041  0.00  0.00    +0.000 C 
BRANCH  25  26
ATOM     26  C   UNL     1      45.574   2.624   9.097  0.00  0.00    +0.000 C 
ATOM     27  C   UNL     1      45.401   3.790   8.103  0.00  0.00    +0.000 C 
ATOM     28  C   UNL     1      46.591   3.900   7.155  0.00  0.00    +0.000 C 
ATOM     29  C   UNL     1      46.834   2.592   6.414  0.00  0.00    +0.000 C 
ATOM     30  C   UNL     1      47.001   1.424   7.381  0.00  0.00    +0.000 C 
ATOM     31  C   UNL     1      45.817   1.309   8.342  0.00  0.00    +0.000 C 
ENDBRANCH  25  26
ENDBRANCH  23  25
ENDBRANCH  22  23
ENDBRANCH   4  22
TORSDOF 7
ENDMDL
