MODEL 1
REMARK VINA RESULT:    -8.521      0.000      0.000
REMARK INTER + INTRA:         -13.619
REMARK INTER:                 -12.756
REMARK INTRA:                  -0.863
REMARK UNBOUND:                -0.863
REMARK  Name = 
REMARK  10 active torsions:
REMARK  status: ('A' for Active; 'I' for Inactive)
REMARK    1  A    between atoms: C_1  and  C_2
REMARK    2  A    between atoms: C_2  and  C_3
REMARK    3  A    between atoms: C_2  and  C_26
REMARK    4  A    between atoms: C_3  and  N_4
REMARK    5  A    between atoms: N_4  and  C_5
REMARK    6  A    between atoms: C_5  and  C_6
REMARK    7  A    between atoms: C_9  and  C_10
REMARK    8  A    between atoms: C_10  and  N_11
REMARK    9  A    between atoms: C_12  and  C_14
REMARK   10  A    between atoms: C_29  and  O_30
REMARK                            x       y       z     vdW  Elec       q    Type
REMARK                         _______ _______ _______ _____ _____    ______ ____
ROOT
ATOM      1  C   UNL     1      44.499   5.900  12.384  0.00  0.00    +0.000 A 
ATOM      2  C   UNL     1      45.125   7.157  12.279  0.00  0.00    +0.000 A 
ATOM      3  C   UNL     1      46.375   7.391  12.848  0.00  0.00    +0.000 A 
ATOM      4  C   UNL     1      47.029   6.383  13.559  0.00  0.00    +0.000 A 
ATOM      5  C   UNL     1      46.381   5.154  13.737  0.00  0.00    +0.000 A 
ATOM      6  C   UNL     1      45.133   4.913  13.152  0.00  0.00    +0.000 A 
ENDROOT
BRANCH   1   7
ATOM      7  C   UNL     1      43.157   5.609  11.729  0.00  0.00    +0.000 C 
BRANCH   7   8
ATOM      8  N   UNL     1      43.304   5.398  10.292  0.00  0.00    +0.000 NA
ATOM      9  H   UNL     1      42.580   4.743   9.999  0.00  0.00    +0.000 HD
BRANCH   8  10
ATOM     10  C   UNL     1      44.581   4.816   9.890  0.00  0.00    +0.000 C 
BRANCH  10  12
ATOM     11  C   UNL     1      44.154   2.389  10.565  0.00  0.00    +0.000 C 
ATOM     12  C   UNL     1      44.386   3.354   9.390  0.00  0.00    +0.000 C 
BRANCH  12  13
ATOM     13  C   UNL     1      45.524   2.913   8.468  0.00  0.00    +0.000 A 
ATOM     14  C   UNL     1      45.907   1.562   8.431  0.00  0.00    +0.000 A 
ATOM     15  C   UNL     1      46.902   1.122   7.550  0.00  0.00    +0.000 A 
ATOM     16  C   UNL     1      47.513   2.033   6.694  0.00  0.00    +0.000 A 
ATOM     17  C   UNL     1      47.154   3.371   6.714  0.00  0.00    +0.000 A 
ATOM     18  C   UNL     1      46.167   3.809   7.596  0.00  0.00    +0.000 A 
BRANCH  16  19
ATOM     19  O   UNL     1      48.475   1.648   5.809  0.00  0.00    +0.000 OA
ATOM     20  H   UNL     1      49.049   0.995   6.240  0.00  0.00    +0.000 HD
ENDBRANCH  16  19
ENDBRANCH  12  13
ENDBRANCH  10  12
ENDBRANCH   8  10
ENDBRANCH   7   8
ENDBRANCH   1   7
BRANCH   4  21
ATOM     21  C   UNL     1      48.382   6.642  14.158  0.00  0.00    +0.000 C 
BRANCH  21  22
ATOM     22  N   UNL     1      48.281   6.845  15.579  0.00  0.00    +0.000 N 
ATOM     23  C   UNL     1      49.329   6.549  16.412  0.00  0.00    +0.000 C 
ATOM     24  O   UNL     1      50.404   6.138  15.983  0.00  0.00    +0.000 OA
ATOM     25  H   UNL     1      47.352   6.984  15.962  0.00  0.00    +0.000 HD
BRANCH  23  26
ATOM     26  C   UNL     1      49.121   6.805  17.841  0.00  0.00    +0.000 A 
ATOM     27  C   UNL     1      49.153   8.111  18.312  0.00  0.00    +0.000 A 
ATOM     28  S   UNL     1      48.851   8.242  19.984  0.00  0.00    +0.000 S 
ATOM     29  C   UNL     1      48.712   6.554  20.147  0.00  0.00    +0.000 A 
ATOM     30  N   UNL     1      48.471   5.988  21.361  0.00  0.00    +0.000 NA
ATOM     31  C   UNL     1      48.415   4.697  21.344  0.00  0.00    +0.000 A 
ATOM     32  N   UNL     1      48.569   3.922  20.225  0.00  0.00    +0.000 N 
ATOM     33  C   UNL     1      48.791   4.451  18.974  0.00  0.00    +0.000 A 
ATOM     34  O   UNL     1      48.891   3.728  17.989  0.00  0.00    +0.000 OA
ATOM     35  C   UNL     1      48.874   5.899  18.939  0.00  0.00    +0.000 A 
ATOM     36  H   UNL     1      48.508   2.917  20.279  0.00  0.00    +0.000 HD
ENDBRANCH  23  26
ENDBRANCH  21  22
ENDBRANCH   4  21
TORSDOF 9
ENDMDL
MODEL 2
REMARK VINA RESULT:    -8.409      1.319      1.869
REMARK INTER + INTRA:         -13.450
REMARK INTER:                 -12.360
REMARK INTRA:                  -1.090
REMARK UNBOUND:                -0.863
REMARK  Name = 
REMARK  10 active torsions:
REMARK  status: ('A' for Active; 'I' for Inactive)
REMARK    1  A    between atoms: C_1  and  C_2
REMARK    2  A    between atoms: C_2  and  C_3
REMARK    3  A    between atoms: C_2  and  C_26
REMARK    4  A    between atoms: C_3  and  N_4
REMARK    5  A    between atoms: N_4  and  C_5
REMARK    6  A    between atoms: C_5  and  C_6
REMARK    7  A    between atoms: C_9  and  C_10
REMARK    8  A    between atoms: C_10  and  N_11
REMARK    9  A    between atoms: C_12  and  C_14
REMARK   10  A    between atoms: C_29  and  O_30
REMARK                            x       y       z     vdW  Elec       q    Type
REMARK                         _______ _______ _______ _____ _____    ______ ____
ROOT
ATOM      1  C   UNL     1      44.565   5.778  12.077  0.00  0.00    +0.000 A 
ATOM      2  C   UNL     1      45.213   7.017  11.905  0.00  0.00    +0.000 A 
ATOM      3  C   UNL     1      46.384   7.322  12.595  0.00  0.00    +0.000 A 
ATOM      4  C   UNL     1      46.933   6.407  13.497  0.00  0.00    +0.000 A 
ATOM      5  C   UNL     1      46.254   5.205  13.735  0.00  0.00    +0.000 A 
ATOM      6  C   UNL     1      45.086   4.892  13.030  0.00  0.00    +0.000 A 
ENDROOT
BRANCH   1   7
ATOM      7  C   UNL     1      43.313   5.407  11.298  0.00  0.00    +0.000 C 
BRANCH   7   8
ATOM      8  N   UNL     1      43.606   5.227   9.879  0.00  0.00    +0.000 NA
ATOM      9  H   UNL     1      42.858   4.664   9.477  0.00  0.00    +0.000 HD
BRANCH   8  10
ATOM     10  C   UNL     1      44.854   4.524   9.601  0.00  0.00    +0.000 C 
BRANCH  10  12
ATOM     11  C   UNL     1      44.303   2.080  10.104  0.00  0.00    +0.000 C 
ATOM     12  C   UNL     1      44.569   3.116   8.999  0.00  0.00    +0.000 C 
BRANCH  12  13
ATOM     13  C   UNL     1      45.665   2.684   8.023  0.00  0.00    +0.000 A 
ATOM     14  C   UNL     1      46.251   1.414   8.152  0.00  0.00    +0.000 A 
ATOM     15  C   UNL     1      47.210   0.970   7.234  0.00  0.00    +0.000 A 
ATOM     16  C   UNL     1      47.582   1.794   6.176  0.00  0.00    +0.000 A 
ATOM     17  C   UNL     1      47.020   3.052   6.030  0.00  0.00    +0.000 A 
ATOM     18  C   UNL     1      46.069   3.496   6.948  0.00  0.00    +0.000 A 
BRANCH  16  19
ATOM     19  O   UNL     1      48.499   1.398   5.250  0.00  0.00    +0.000 OA
ATOM     20  H   UNL     1      48.165   1.623   4.367  0.00  0.00    +0.000 HD
ENDBRANCH  16  19
ENDBRANCH  12  13
ENDBRANCH  10  12
ENDBRANCH   8  10
ENDBRANCH   7   8
ENDBRANCH   1   7
BRANCH   4  21
ATOM     21  C   UNL     1      48.203   6.740  14.227  0.00  0.00    +0.000 C 
BRANCH  21  22
ATOM     22  N   UNL     1      48.061   6.496  15.638  0.00  0.00    +0.000 N 
ATOM     23  C   UNL     1      49.145   6.177  16.413  0.00  0.00    +0.000 C 
ATOM     24  O   UNL     1      50.281   6.124  15.951  0.00  0.00    +0.000 OA
ATOM     25  H   UNL     1      47.122   6.335  15.986  0.00  0.00    +0.000 HD
BRANCH  23  26
ATOM     26  C   UNL     1      48.887   5.960  17.841  0.00  0.00    +0.000 A 
ATOM     27  C   UNL     1      49.166   4.723  18.405  0.00  0.00    +0.000 A 
ATOM     28  S   UNL     1      48.854   4.648  20.078  0.00  0.00    +0.000 S 
ATOM     29  C   UNL     1      48.289   6.252  20.101  0.00  0.00    +0.000 A 
ATOM     30  N   UNL     1      47.836   6.817  21.253  0.00  0.00    +0.000 NA
ATOM     31  C   UNL     1      47.415   8.030  21.121  0.00  0.00    +0.000 A 
ATOM     32  N   UNL     1      47.412   8.734  19.945  0.00  0.00    +0.000 N 
ATOM     33  C   UNL     1      47.880   8.213  18.761  0.00  0.00    +0.000 A 
ATOM     34  O   UNL     1      47.893   8.883  17.734  0.00  0.00    +0.000 OA
ATOM     35  C   UNL     1      48.357   6.845  18.852  0.00  0.00    +0.000 A 
ATOM     36  H   UNL     1      47.073   9.683  19.911  0.00  0.00    +0.000 HD
ENDBRANCH  23  26
ENDBRANCH  21  22
ENDBRANCH   4  21
TORSDOF 9
ENDMDL
MODEL 3
REMARK VINA RESULT:    -8.255      3.783      9.246
REMARK INTER + INTRA:         -13.220
REMARK INTER:                  -9.678
REMARK INTRA:                  -3.542
REMARK UNBOUND:                -0.863
REMARK  Name = 
REMARK  10 active torsions:
REMARK  status: ('A' for Active; 'I' for Inactive)
REMARK    1  A    between atoms: C_1  and  C_2
REMARK    2  A    between atoms: C_2  and  C_3
REMARK    3  A    between atoms: C_2  and  C_26
REMARK    4  A    between atoms: C_3  and  N_4
REMARK    5  A    between atoms: N_4  and  C_5
REMARK    6  A    between atoms: C_5  and  C_6
REMARK    7  A    between atoms: C_9  and  C_10
REMARK    8  A    between atoms: C_10  and  N_11
REMARK    9  A    between atoms: C_12  and  C_14
REMARK   10  A    between atoms: C_29  and  O_30
REMARK                            x       y       z     vdW  Elec       q    Type
REMARK                         _______ _______ _______ _____ _____    ______ ____
ROOT
ATOM      1  C   UNL     1      48.338   5.638  20.275  0.00  0.00    +0.000 A 
ATOM      2  C   UNL     1      49.203   4.639  19.787  0.00  0.00    +0.000 A 
ATOM      3  C   UNL     1      49.003   4.058  18.536  0.00  0.00    +0.000 A 
ATOM      4  C   UNL     1      47.919   4.443  17.743  0.00  0.00    +0.000 A 
ATOM      5  C   UNL     1      47.009   5.378  18.252  0.00  0.00    +0.000 A 
ATOM      6  C   UNL     1      47.218   5.972  19.502  0.00  0.00    +0.000 A 
ENDROOT
BRANCH   1   7
ATOM      7  C   UNL     1      48.567   6.318  21.617  0.00  0.00    +0.000 C 
BRANCH   7   8
ATOM      8  N   UNL     1      48.548   7.771  21.483  0.00  0.00    +0.000 NA
ATOM      9  H   UNL     1      47.721   8.023  20.945  0.00  0.00    +0.000 HD
BRANCH   8  10
ATOM     10  C   UNL     1      49.694   8.332  20.774  0.00  0.00    +0.000 C 
BRANCH  10  12
ATOM     11  C   UNL     1      47.798   9.762  19.833  0.00  0.00    +0.000 C 
ATOM     12  C   UNL     1      49.224   9.236  19.597  0.00  0.00    +0.000 C 
BRANCH  12  13
ATOM     13  C   UNL     1      49.390   8.541  18.245  0.00  0.00    +0.000 A 
ATOM     14  C   UNL     1      50.464   7.659  18.043  0.00  0.00    +0.000 A 
ATOM     15  C   UNL     1      50.602   6.961  16.837  0.00  0.00    +0.000 A 
ATOM     16  C   UNL     1      49.659   7.138  15.829  0.00  0.00    +0.000 A 
ATOM     17  C   UNL     1      48.592   8.005  16.004  0.00  0.00    +0.000 A 
ATOM     18  C   UNL     1      48.459   8.704  17.203  0.00  0.00    +0.000 A 
BRANCH  16  19
ATOM     19  O   UNL     1      49.744   6.470  14.645  0.00  0.00    +0.000 OA
ATOM     20  H   UNL     1      49.883   5.528  14.830  0.00  0.00    +0.000 HD
ENDBRANCH  16  19
ENDBRANCH  12  13
ENDBRANCH  10  12
ENDBRANCH   8  10
ENDBRANCH   7   8
ENDBRANCH   1   7
BRANCH   4  21
ATOM     21  C   UNL     1      47.719   3.820  16.391  0.00  0.00    +0.000 C 
BRANCH  21  22
ATOM     22  N   UNL     1      47.003   4.712  15.518  0.00  0.00    +0.000 N 
ATOM     23  C   UNL     1      46.884   4.446  14.179  0.00  0.00    +0.000 C 
ATOM     24  O   UNL     1      47.344   3.425  13.675  0.00  0.00    +0.000 OA
ATOM     25  H   UNL     1      46.801   5.641  15.871  0.00  0.00    +0.000 HD
BRANCH  23  26
ATOM     26  C   UNL     1      46.124   5.417  13.384  0.00  0.00    +0.000 A 
ATOM     27  C   UNL     1      46.649   6.683  13.167  0.00  0.00    +0.000 A 
ATOM     28  S   UNL     1      45.666   7.674  12.190  0.00  0.00    +0.000 S 
ATOM     29  C   UNL     1      44.479   6.462  12.060  0.00  0.00    +0.000 A 
ATOM     30  N   UNL     1      43.335   6.678  11.356  0.00  0.00    +0.000 NA
ATOM     31  C   UNL     1      42.511   5.683  11.361  0.00  0.00    +0.000 A 
ATOM     32  N   UNL     1      42.730   4.489  11.997  0.00  0.00    +0.000 N 
ATOM     33  C   UNL     1      43.881   4.217  12.701  0.00  0.00    +0.000 A 
ATOM     34  O   UNL     1      44.057   3.126  13.230  0.00  0.00    +0.000 OA
ATOM     35  C   UNL     1      44.837   5.308  12.736  0.00  0.00    +0.000 A 
ATOM     36  H   UNL     1      42.046   3.749  11.957  0.00  0.00    +0.000 HD
ENDBRANCH  23  26
ENDBRANCH  21  22
ENDBRANCH   4  21
TORSDOF 9
ENDMDL
MODEL 4
REMARK VINA RESULT:    -8.161      1.493      2.313
REMARK INTER + INTRA:         -13.079
REMARK INTER:                 -11.644
REMARK INTRA:                  -1.435
REMARK UNBOUND:                -0.863
REMARK  Name = 
REMARK  10 active torsions:
REMARK  status: ('A' for Active; 'I' for Inactive)
REMARK    1  A    between atoms: C_1  and  C_2
REMARK    2  A    between atoms: C_2  and  C_3
REMARK    3  A    between atoms: C_2  and  C_26
REMARK    4  A    between atoms: C_3  and  N_4
REMARK    5  A    between atoms: N_4  and  C_5
REMARK    6  A    between atoms: C_5  and  C_6
REMARK    7  A    between atoms: C_9  and  C_10
REMARK    8  A    between atoms: C_10  and  N_11
REMARK    9  A    between atoms: C_12  and  C_14
REMARK   10  A    between atoms: C_29  and  O_30
REMARK                            x       y       z     vdW  Elec       q    Type
REMARK                         _______ _______ _______ _____ _____    ______ ____
ROOT
ATOM      1  C   UNL     1      44.603   5.276  11.947  0.00  0.00    +0.000 A 
ATOM      2  C   UNL     1      44.946   6.642  11.948  0.00  0.00    +0.000 A 
ATOM      3  C   UNL     1      46.073   7.104  12.624  0.00  0.00    +0.000 A 
ATOM      4  C   UNL     1      46.882   6.218  13.339  0.00  0.00    +0.000 A 
ATOM      5  C   UNL     1      46.508   4.871  13.410  0.00  0.00    +0.000 A 
ATOM      6  C   UNL     1      45.384   4.403  12.719  0.00  0.00    +0.000 A 
ENDROOT
BRANCH   1   7
ATOM      7  C   UNL     1      43.405   4.745  11.177  0.00  0.00    +0.000 C 
BRANCH   7   8
ATOM      8  N   UNL     1      43.670   4.712   9.742  0.00  0.00    +0.000 NA
ATOM      9  H   UNL     1      42.775   4.782   9.259  0.00  0.00    +0.000 HD
BRANCH   8  10
ATOM     10  C   UNL     1      44.304   3.485   9.268  0.00  0.00    +0.000 C 
BRANCH  10  12
ATOM     11  C   UNL     1      46.079   5.235   8.707  0.00  0.00    +0.000 C 
ATOM     12  C   UNL     1      45.801   3.738   8.923  0.00  0.00    +0.000 C 
BRANCH  12  13
ATOM     13  C   UNL     1      46.269   2.868   7.756  0.00  0.00    +0.000 A 
ATOM     14  C   UNL     1      46.471   3.446   6.492  0.00  0.00    +0.000 A 
ATOM     15  C   UNL     1      46.960   2.685   5.424  0.00  0.00    +0.000 A 
ATOM     16  C   UNL     1      47.258   1.339   5.620  0.00  0.00    +0.000 A 
ATOM     17  C   UNL     1      47.066   0.746   6.857  0.00  0.00    +0.000 A 
ATOM     18  C   UNL     1      46.573   1.504   7.918  0.00  0.00    +0.000 A 
BRANCH  16  19
ATOM     19  O   UNL     1      47.750   0.563   4.614  0.00  0.00    +0.000 OA
ATOM     20  H   UNL     1      48.632   0.248   4.869  0.00  0.00    +0.000 HD
ENDBRANCH  16  19
ENDBRANCH  12  13
ENDBRANCH  10  12
ENDBRANCH   8  10
ENDBRANCH   7   8
ENDBRANCH   1   7
BRANCH   4  21
ATOM     21  C   UNL     1      48.103   6.725  14.053  0.00  0.00    +0.000 C 
BRANCH  21  22
ATOM     22  N   UNL     1      47.976   6.540  15.475  0.00  0.00    +0.000 N 
ATOM     23  C   UNL     1      49.071   6.266  16.252  0.00  0.00    +0.000 C 
ATOM     24  O   UNL     1      50.203   6.205  15.783  0.00  0.00    +0.000 OA
ATOM     25  H   UNL     1      47.042   6.385  15.839  0.00  0.00    +0.000 HD
BRANCH  23  26
ATOM     26  C   UNL     1      48.828   6.108  17.691  0.00  0.00    +0.000 A 
ATOM     27  C   UNL     1      49.093   4.888  18.298  0.00  0.00    +0.000 A 
ATOM     28  S   UNL     1      48.802   4.882  19.977  0.00  0.00    +0.000 S 
ATOM     29  C   UNL     1      48.267   6.497  19.945  0.00  0.00    +0.000 A 
ATOM     30  N   UNL     1      47.840   7.113  21.081  0.00  0.00    +0.000 NA
ATOM     31  C   UNL     1      47.439   8.328  20.909  0.00  0.00    +0.000 A 
ATOM     32  N   UNL     1      47.434   8.987  19.707  0.00  0.00    +0.000 N 
ATOM     33  C   UNL     1      47.876   8.413  18.537  0.00  0.00    +0.000 A 
ATOM     34  O   UNL     1      47.887   9.043  17.486  0.00  0.00    +0.000 OA
ATOM     35  C   UNL     1      48.329   7.041  18.674  0.00  0.00    +0.000 A 
ATOM     36  H   UNL     1      47.111   9.941  19.641  0.00  0.00    +0.000 HD
ENDBRANCH  23  26
ENDBRANCH  21  22
ENDBRANCH   4  21
TORSDOF 9
ENDMDL
MODEL 5
REMARK VINA RESULT:    -7.773      3.129      9.110
REMARK INTER + INTRA:         -12.499
REMARK INTER:                 -10.608
REMARK INTRA:                  -1.891
REMARK UNBOUND:                -0.863
REMARK  Name = 
REMARK  10 active torsions:
REMARK  status: ('A' for Active; 'I' for Inactive)
REMARK    1  A    between atoms: C_1  and  C_2
REMARK    2  A    between atoms: C_2  and  C_3
REMARK    3  A    between atoms: C_2  and  C_26
REMARK    4  A    between atoms: C_3  and  N_4
REMARK    5  A    between atoms: N_4  and  C_5
REMARK    6  A    between atoms: C_5  and  C_6
REMARK    7  A    between atoms: C_9  and  C_10
REMARK    8  A    between atoms: C_10  and  N_11
REMARK    9  A    between atoms: C_12  and  C_14
REMARK   10  A    between atoms: C_29  and  O_30
REMARK                            x       y       z     vdW  Elec       q    Type
REMARK                         _______ _______ _______ _____ _____    ______ ____
ROOT
ATOM      1  C   UNL     1      49.029   8.445  15.939  0.00  0.00    +0.000 A 
ATOM      2  C   UNL     1      48.468   9.490  15.179  0.00  0.00    +0.000 A 
ATOM      3  C   UNL     1      48.078   9.292  13.856  0.00  0.00    +0.000 A 
ATOM      4  C   UNL     1      48.255   8.050  13.244  0.00  0.00    +0.000 A 
ATOM      5  C   UNL     1      48.884   7.026  13.965  0.00  0.00    +0.000 A 
ATOM      6  C   UNL     1      49.262   7.220  15.298  0.00  0.00    +0.000 A 
ENDROOT
BRANCH   1   7
ATOM      7  C   UNL     1      49.417   8.627  17.398  0.00  0.00    +0.000 C 
BRANCH   7   8
ATOM      8  N   UNL     1      49.852   7.366  17.992  0.00  0.00    +0.000 NA
ATOM      9  H   UNL     1      49.565   6.614  17.368  0.00  0.00    +0.000 HD
BRANCH   8  10
ATOM     10  C   UNL     1      49.265   7.073  19.296  0.00  0.00    +0.000 C 
BRANCH  10  12
ATOM     11  C   UNL     1      47.359   5.878  20.506  0.00  0.00    +0.000 C 
ATOM     12  C   UNL     1      47.995   6.185  19.140  0.00  0.00    +0.000 C 
BRANCH  12  13
ATOM     13  C   UNL     1      48.278   4.929  18.314  0.00  0.00    +0.000 A 
ATOM     14  C   UNL     1      47.458   4.618  17.217  0.00  0.00    +0.000 A 
ATOM     15  C   UNL     1      47.734   3.510  16.407  0.00  0.00    +0.000 A 
ATOM     16  C   UNL     1      48.839   2.712  16.688  0.00  0.00    +0.000 A 
ATOM     17  C   UNL     1      49.661   2.998  17.766  0.00  0.00    +0.000 A 
ATOM     18  C   UNL     1      49.382   4.098  18.575  0.00  0.00    +0.000 A 
BRANCH  16  19
ATOM     19  O   UNL     1      49.155   1.632  15.919  0.00  0.00    +0.000 OA
ATOM     20  H   UNL     1      48.574   1.624  15.142  0.00  0.00    +0.000 HD
ENDBRANCH  16  19
ENDBRANCH  12  13
ENDBRANCH  10  12
ENDBRANCH   8  10
ENDBRANCH   7   8
ENDBRANCH   1   7
BRANCH   4  21
ATOM     21  C   UNL     1      47.820   7.843  11.821  0.00  0.00    +0.000 C 
BRANCH  21  22
ATOM     22  N   UNL     1      47.079   6.617  11.686  0.00  0.00    +0.000 N 
ATOM     23  C   UNL     1      45.710   6.608  11.737  0.00  0.00    +0.000 C 
ATOM     24  O   UNL     1      45.057   7.640  11.860  0.00  0.00    +0.000 OA
ATOM     25  H   UNL     1      47.597   5.751  11.789  0.00  0.00    +0.000 HD
BRANCH  23  26
ATOM     26  C   UNL     1      45.058   5.304  11.576  0.00  0.00    +0.000 A 
ATOM     27  C   UNL     1      44.368   4.749  12.646  0.00  0.00    +0.000 A 
ATOM     28  S   UNL     1      43.631   3.255  12.283  0.00  0.00    +0.000 S 
ATOM     29  C   UNL     1      44.247   3.274  10.697  0.00  0.00    +0.000 A 
ATOM     30  N   UNL     1      43.998   2.247   9.840  0.00  0.00    +0.000 NA
ATOM     31  C   UNL     1      44.546   2.379   8.678  0.00  0.00    +0.000 A 
ATOM     32  N   UNL     1      45.314   3.447   8.292  0.00  0.00    +0.000 N 
ATOM     33  C   UNL     1      45.574   4.518   9.116  0.00  0.00    +0.000 A 
ATOM     34  O   UNL     1      46.237   5.472   8.726  0.00  0.00    +0.000 OA
ATOM     35  C   UNL     1      44.988   4.414  10.440  0.00  0.00    +0.000 A 
ATOM     36  H   UNL     1      45.710   3.491   7.365  0.00  0.00    +0.000 HD
ENDBRANCH  23  26
ENDBRANCH  21  22
ENDBRANCH   4  21
TORSDOF 9
ENDMDL
MODEL 6
REMARK VINA RESULT:    -7.754      1.655      2.125
REMARK INTER + INTRA:         -12.471
REMARK INTER:                 -10.602
REMARK INTRA:                  -1.869
REMARK UNBOUND:                -0.863
REMARK  Name = 
REMARK  10 active torsions:
REMARK  status: ('A' for Active; 'I' for Inactive)
REMARK    1  A    between atoms: C_1  and  C_2
REMARK    2  A    between atoms: C_2  and  C_3
REMARK    3  A    between atoms: C_2  and  C_26
REMARK    4  A    between atoms: C_3  and  N_4
REMARK    5  A    between atoms: N_4  and  C_5
REMARK    6  A    between atoms: C_5  and  C_6
REMARK    7  A    between atoms: C_9  and  C_10
REMARK    8  A    between atoms: C_10  and  N_11
REMARK    9  A    between atoms: C_12  and  C_14
REMARK   10  A    between atoms: C_29  and  O_30
REMARK                            x       y       z     vdW  Elec       q    Type
REMARK                         _______ _______ _______ _____ _____    ______ ____
ROOT
ATOM      1  C   UNL     1      45.605   7.268  11.825  0.00  0.00    +0.000 A 
ATOM      2  C   UNL     1      46.577   6.254  11.925  0.00  0.00    +0.000 A 
ATOM      3  C   UNL     1      47.833   6.508  12.474  0.00  0.00    +0.000 A 
ATOM      4  C   UNL     1      48.163   7.789  12.920  0.00  0.00    +0.000 A 
ATOM      5  C   UNL     1      47.233   8.823  12.754  0.00  0.00    +0.000 A 
ATOM      6  C   UNL     1      45.967   8.565  12.217  0.00  0.00    +0.000 A 
ENDROOT
BRANCH   1   7
ATOM      7  C   UNL     1      44.213   7.000  11.274  0.00  0.00    +0.000 C 
BRANCH   7   8
ATOM      8  N   UNL     1      43.735   5.677  11.664  0.00  0.00    +0.000 NA
ATOM      9  H   UNL     1      44.508   5.186  12.108  0.00  0.00    +0.000 HD
BRANCH   8  10
ATOM     10  C   UNL     1      43.290   4.840  10.554  0.00  0.00    +0.000 C 
BRANCH  10  12
ATOM     11  C   UNL     1      44.642   3.185  11.954  0.00  0.00    +0.000 C 
ATOM     12  C   UNL     1      44.022   3.465  10.575  0.00  0.00    +0.000 C 
BRANCH  12  13
ATOM     13  C   UNL     1      45.027   3.340   9.429  0.00  0.00    +0.000 A 
ATOM     14  C   UNL     1      45.430   2.067   8.992  0.00  0.00    +0.000 A 
ATOM     15  C   UNL     1      46.299   1.924   7.904  0.00  0.00    +0.000 A 
ATOM     16  C   UNL     1      46.763   3.057   7.242  0.00  0.00    +0.000 A 
ATOM     17  C   UNL     1      46.382   4.323   7.656  0.00  0.00    +0.000 A 
ATOM     18  C   UNL     1      45.521   4.464   8.743  0.00  0.00    +0.000 A 
BRANCH  16  19
ATOM     19  O   UNL     1      47.598   2.966   6.169  0.00  0.00    +0.000 OA
ATOM     20  H   UNL     1      47.065   2.808   5.373  0.00  0.00    +0.000 HD
ENDBRANCH  16  19
ENDBRANCH  12  13
ENDBRANCH  10  12
ENDBRANCH   8  10
ENDBRANCH   7   8
ENDBRANCH   1   7
BRANCH   4  21
ATOM     21  C   UNL     1      49.515   8.050  13.522  0.00  0.00    +0.000 C 
BRANCH  21  22
ATOM     22  N   UNL     1      49.678   7.317  14.750  0.00  0.00    +0.000 N 
ATOM     23  C   UNL     1      49.171   7.793  15.930  0.00  0.00    +0.000 C 
ATOM     24  O   UNL     1      48.526   8.836  15.987  0.00  0.00    +0.000 OA
ATOM     25  H   UNL     1      50.371   6.576  14.756  0.00  0.00    +0.000 HD
BRANCH  23  26
ATOM     26  C   UNL     1      49.386   6.960  17.118  0.00  0.00    +0.000 A 
ATOM     27  C   UNL     1      50.115   7.467  18.185  0.00  0.00    +0.000 A 
ATOM     28  S   UNL     1      50.236   6.393  19.503  0.00  0.00    +0.000 S 
ATOM     29  C   UNL     1      49.358   5.193  18.676  0.00  0.00    +0.000 A 
ATOM     30  N   UNL     1      49.119   3.982  19.251  0.00  0.00    +0.000 NA
ATOM     31  C   UNL     1      48.464   3.159  18.502  0.00  0.00    +0.000 A 
ATOM     32  N   UNL     1      48.019   3.436  17.236  0.00  0.00    +0.000 N 
ATOM     33  C   UNL     1      48.218   4.652  16.623  0.00  0.00    +0.000 A 
ATOM     34  O   UNL     1      47.778   4.876  15.501  0.00  0.00    +0.000 OA
ATOM     35  C   UNL     1      48.960   5.612  17.418  0.00  0.00    +0.000 A 
ATOM     36  H   UNL     1      47.507   2.748  16.705  0.00  0.00    +0.000 HD
ENDBRANCH  23  26
ENDBRANCH  21  22
ENDBRANCH   4  21
TORSDOF 9
ENDMDL
MODEL 7
REMARK VINA RESULT:    -7.738      4.063      9.321
REMARK INTER + INTRA:         -12.446
REMARK INTER:                  -9.439
REMARK INTRA:                  -3.008
REMARK UNBOUND:                -0.863
REMARK  Name = 
REMARK  10 active torsions:
REMARK  status: ('A' for Active; 'I' for Inactive)
REMARK    1  A    between atoms: C_1  and  C_2
REMARK    2  A    between atoms: C_2  and  C_3
REMARK    3  A    between atoms: C_2  and  C_26
REMARK    4  A    between atoms: C_3  and  N_4
REMARK    5  A    between atoms: N_4  and  C_5
REMARK    6  A    between atoms: C_5  and  C_6
REMARK    7  A    between atoms: C_9  and  C_10
REMARK    8  A    between atoms: C_10  and  N_11
REMARK    9  A    between atoms: C_12  and  C_14
REMARK   10  A    between atoms: C_29  and  O_30
REMARK                            x       y       z     vdW  Elec       q    Type
REMARK                         _______ _______ _______ _____ _____    ______ ____
ROOT
ATOM      1  C   UNL     1      50.900   4.262  18.684  0.00  0.00    +0.000 A 
ATOM      2  C   UNL     1      49.734   4.898  19.151  0.00  0.00    +0.000 A 
ATOM      3  C   UNL     1      48.488   4.625  18.592  0.00  0.00    +0.000 A 
ATOM      4  C   UNL     1      48.371   3.723  17.532  0.00  0.00    +0.000 A 
ATOM      5  C   UNL     1      49.533   3.144  17.007  0.00  0.00    +0.000 A 
ATOM      6  C   UNL     1      50.783   3.407  17.579  0.00  0.00    +0.000 A 
ENDROOT
BRANCH   1   7
ATOM      7  C   UNL     1      52.263   4.511  19.312  0.00  0.00    +0.000 C 
BRANCH   7   8
ATOM      8  N   UNL     1      53.290   4.698  18.293  0.00  0.00    +0.000 NA
ATOM      9  H   UNL     1      54.171   4.355  18.673  0.00  0.00    +0.000 HD
BRANCH   8  10
ATOM     10  C   UNL     1      53.516   6.087  17.905  0.00  0.00    +0.000 C 
BRANCH  10  12
ATOM     11  C   UNL     1      53.765   7.177  15.608  0.00  0.00    +0.000 C 
ATOM     12  C   UNL     1      52.826   6.397  16.544  0.00  0.00    +0.000 C 
BRANCH  12  13
ATOM     13  C   UNL     1      51.470   7.078  16.737  0.00  0.00    +0.000 A 
ATOM     14  C   UNL     1      50.392   6.729  15.908  0.00  0.00    +0.000 A 
ATOM     15  C   UNL     1      49.125   7.291  16.105  0.00  0.00    +0.000 A 
ATOM     16  C   UNL     1      48.930   8.200  17.140  0.00  0.00    +0.000 A 
ATOM     17  C   UNL     1      49.979   8.562  17.969  0.00  0.00    +0.000 A 
ATOM     18  C   UNL     1      51.242   8.006  17.769  0.00  0.00    +0.000 A 
BRANCH  16  19
ATOM     19  O   UNL     1      47.711   8.761  17.379  0.00  0.00    +0.000 OA
ATOM     20  H   UNL     1      47.110   8.071  17.702  0.00  0.00    +0.000 HD
ENDBRANCH  16  19
ENDBRANCH  12  13
ENDBRANCH  10  12
ENDBRANCH   8  10
ENDBRANCH   7   8
ENDBRANCH   1   7
BRANCH   4  21
ATOM     21  C   UNL     1      47.021   3.425  16.944  0.00  0.00    +0.000 C 
BRANCH  21  22
ATOM     22  N   UNL     1      46.680   4.389  15.931  0.00  0.00    +0.000 N 
ATOM     23  C   UNL     1      46.874   4.117  14.602  0.00  0.00    +0.000 C 
ATOM     24  O   UNL     1      47.306   3.034  14.217  0.00  0.00    +0.000 OA
ATOM     25  H   UNL     1      46.521   5.343  16.236  0.00  0.00    +0.000 HD
BRANCH  23  26
ATOM     26  C   UNL     1      46.482   5.166  13.655  0.00  0.00    +0.000 A 
ATOM     27  C   UNL     1      47.378   6.181  13.351  0.00  0.00    +0.000 A 
ATOM     28  S   UNL     1      46.788   7.294  12.203  0.00  0.00    +0.000 S 
ATOM     29  C   UNL     1      45.294   6.485  12.106  0.00  0.00    +0.000 A 
ATOM     30  N   UNL     1      44.302   6.947  11.297  0.00  0.00    +0.000 NA
ATOM     31  C   UNL     1      43.214   6.251  11.340  0.00  0.00    +0.000 A 
ATOM     32  N   UNL     1      43.030   5.133  12.111  0.00  0.00    +0.000 N 
ATOM     33  C   UNL     1      44.011   4.618  12.927  0.00  0.00    +0.000 A 
ATOM     34  O   UNL     1      43.822   3.596  13.578  0.00  0.00    +0.000 OA
ATOM     35  C   UNL     1      45.253   5.369  12.924  0.00  0.00    +0.000 A 
ATOM     36  H   UNL     1      42.155   4.632  12.095  0.00  0.00    +0.000 HD
ENDBRANCH  23  26
ENDBRANCH  21  22
ENDBRANCH   4  21
TORSDOF 9
ENDMDL
MODEL 8
REMARK VINA RESULT:    -7.400      2.267      3.501
REMARK INTER + INTRA:         -11.940
REMARK INTER:                 -10.739
REMARK INTRA:                  -1.201
REMARK UNBOUND:                -0.863
REMARK  Name = 
REMARK  10 active torsions:
REMARK  status: ('A' for Active; 'I' for Inactive)
REMARK    1  A    between atoms: C_1  and  C_2
REMARK    2  A    between atoms: C_2  and  C_3
REMARK    3  A    between atoms: C_2  and  C_26
REMARK    4  A    between atoms: C_3  and  N_4
REMARK    5  A    between atoms: N_4  and  C_5
REMARK    6  A    between atoms: C_5  and  C_6
REMARK    7  A    between atoms: C_9  and  C_10
REMARK    8  A    between atoms: C_10  and  N_11
REMARK    9  A    between atoms: C_12  and  C_14
REMARK   10  A    between atoms: C_29  and  O_30
REMARK                            x       y       z     vdW  Elec       q    Type
REMARK                         _______ _______ _______ _____ _____    ______ ____
ROOT
ATOM      1  C   UNL     1      47.124   5.760  13.486  0.00  0.00    +0.000 A 
ATOM      2  C   UNL     1      48.035   6.648  14.091  0.00  0.00    +0.000 A 
ATOM      3  C   UNL     1      48.578   6.382  15.346  0.00  0.00    +0.000 A 
ATOM      4  C   UNL     1      48.212   5.231  16.046  0.00  0.00    +0.000 A 
ATOM      5  C   UNL     1      47.248   4.381  15.489  0.00  0.00    +0.000 A 
ATOM      6  C   UNL     1      46.714   4.639  14.222  0.00  0.00    +0.000 A 
ENDROOT
BRANCH   1   7
ATOM      7  C   UNL     1      46.557   6.008  12.097  0.00  0.00    +0.000 C 
BRANCH   7   8
ATOM      8  N   UNL     1      45.589   4.979  11.729  0.00  0.00    +0.000 NA
ATOM      9  H   UNL     1      46.108   4.140  11.476  0.00  0.00    +0.000 HD
BRANCH   8  10
ATOM     10  C   UNL     1      44.752   5.314  10.581  0.00  0.00    +0.000 C 
BRANCH  10  12
ATOM     11  C   UNL     1      43.623   3.067  11.031  0.00  0.00    +0.000 C 
ATOM     12  C   UNL     1      44.145   4.027   9.949  0.00  0.00    +0.000 C 
BRANCH  12  13
ATOM     13  C   UNL     1      45.117   3.360   8.974  0.00  0.00    +0.000 A 
ATOM     14  C   UNL     1      45.850   4.149   8.073  0.00  0.00    +0.000 A 
ATOM     15  C   UNL     1      46.793   3.569   7.215  0.00  0.00    +0.000 A 
ATOM     16  C   UNL     1      47.011   2.196   7.262  0.00  0.00    +0.000 A 
ATOM     17  C   UNL     1      46.297   1.397   8.141  0.00  0.00    +0.000 A 
ATOM     18  C   UNL     1      45.355   1.974   8.990  0.00  0.00    +0.000 A 
BRANCH  16  19
ATOM     19  O   UNL     1      47.928   1.590   6.456  0.00  0.00    +0.000 OA
ATOM     20  H   UNL     1      48.729   1.415   6.976  0.00  0.00    +0.000 HD
ENDBRANCH  16  19
ENDBRANCH  12  13
ENDBRANCH  10  12
ENDBRANCH   8  10
ENDBRANCH   7   8
ENDBRANCH   1   7
BRANCH   4  21
ATOM     21  C   UNL     1      48.813   4.947  17.393  0.00  0.00    +0.000 C 
BRANCH  21  22
ATOM     22  N   UNL     1      48.676   6.084  18.265  0.00  0.00    +0.000 N 
ATOM     23  C   UNL     1      47.514   6.310  18.956  0.00  0.00    +0.000 C 
ATOM     24  O   UNL     1      46.561   5.538  18.895  0.00  0.00    +0.000 OA
ATOM     25  H   UNL     1      49.361   6.825  18.168  0.00  0.00    +0.000 HD
BRANCH  23  26
ATOM     26  C   UNL     1      47.489   7.492  19.823  0.00  0.00    +0.000 A 
ATOM     27  C   UNL     1      47.331   7.331  21.193  0.00  0.00    +0.000 A 
ATOM     28  S   UNL     1      47.367   8.796  22.063  0.00  0.00    +0.000 S 
ATOM     29  C   UNL     1      47.548   9.703  20.635  0.00  0.00    +0.000 A 
ATOM     30  N   UNL     1      47.621  11.061  20.676  0.00  0.00    +0.000 NA
ATOM     31  C   UNL     1      47.732  11.623  19.518  0.00  0.00    +0.000 A 
ATOM     32  N   UNL     1      47.784  10.951  18.324  0.00  0.00    +0.000 N 
ATOM     33  C   UNL     1      47.736   9.579  18.236  0.00  0.00    +0.000 A 
ATOM     34  O   UNL     1      47.818   9.010  17.153  0.00  0.00    +0.000 OA
ATOM     35  C   UNL     1      47.601   8.898  19.510  0.00  0.00    +0.000 A 
ATOM     36  H   UNL     1      47.877  11.451  17.453  0.00  0.00    +0.000 HD
ENDBRANCH  23  26
ENDBRANCH  21  22
ENDBRANCH   4  21
TORSDOF 9
ENDMDL
MODEL 9
REMARK VINA RESULT:    -6.986      3.749      8.558
REMARK INTER + INTRA:         -11.320
REMARK INTER:                  -9.040
REMARK INTRA:                  -2.280
REMARK UNBOUND:                -0.863
REMARK  Name = 
REMARK  10 active torsions:
REMARK  status: ('A' for Active; 'I' for Inactive)
REMARK    1  A    between atoms: C_1  and  C_2
REMARK    2  A    between atoms: C_2  and  C_3
REMARK    3  A    between atoms: C_2  and  C_26
REMARK    4  A    between atoms: C_3  and  N_4
REMARK    5  A    between atoms: N_4  and  C_5
REMARK    6  A    between atoms: C_5  and  C_6
REMARK    7  A    between atoms: C_9  and  C_10
REMARK    8  A    between atoms: C_10  and  N_11
REMARK    9  A    between atoms: C_12  and  C_14
REMARK   10  A    between atoms: C_29  and  O_30
REMARK                            x       y       z     vdW  Elec       q    Type
REMARK                         _______ _______ _______ _____ _____    ______ ____
ROOT
ATOM      1  C   UNL     1      49.593   8.292  16.773  0.00  0.00    +0.000 A 
ATOM      2  C   UNL     1      49.545   9.453  15.976  0.00  0.00    +0.000 A 
ATOM      3  C   UNL     1      49.331   9.376  14.601  0.00  0.00    +0.000 A 
ATOM      4  C   UNL     1      49.181   8.137  13.976  0.00  0.00    +0.000 A 
ATOM      5  C   UNL     1      49.305   6.973  14.746  0.00  0.00    +0.000 A 
ATOM      6  C   UNL     1      49.504   7.050  16.129  0.00  0.00    +0.000 A 
ENDROOT
BRANCH   1   7
ATOM      7  C   UNL     1      49.777   8.356  18.281  0.00  0.00    +0.000 C 
BRANCH   7   8
ATOM      8  N   UNL     1      49.767   7.022  18.873  0.00  0.00    +0.000 NA
ATOM      9  H   UNL     1      49.286   6.399  18.227  0.00  0.00    +0.000 HD
BRANCH   8  10
ATOM     10  C   UNL     1      49.062   6.927  20.147  0.00  0.00    +0.000 C 
BRANCH  10  12
ATOM     11  C   UNL     1      48.974   4.691  21.379  0.00  0.00    +0.000 C 
ATOM     12  C   UNL     1      48.340   5.553  20.275  0.00  0.00    +0.000 C 
BRANCH  12  13
ATOM     13  C   UNL     1      48.251   4.832  18.929  0.00  0.00    +0.000 A 
ATOM     14  C   UNL     1      49.255   3.923  18.557  0.00  0.00    +0.000 A 
ATOM     15  C   UNL     1      49.164   3.203  17.360  0.00  0.00    +0.000 A 
ATOM     16  C   UNL     1      48.060   3.384  16.532  0.00  0.00    +0.000 A 
ATOM     17  C   UNL     1      47.058   4.277  16.876  0.00  0.00    +0.000 A 
ATOM     18  C   UNL     1      47.152   4.998  18.066  0.00  0.00    +0.000 A 
BRANCH  16  19
ATOM     19  O   UNL     1      47.921   2.694  15.365  0.00  0.00    +0.000 OA
ATOM     20  H   UNL     1      47.849   3.331  14.636  0.00  0.00    +0.000 HD
ENDBRANCH  16  19
ENDBRANCH  12  13
ENDBRANCH  10  12
ENDBRANCH   8  10
ENDBRANCH   7   8
ENDBRANCH   1   7
BRANCH   4  21
ATOM     21  C   UNL     1      48.938   8.066  12.495  0.00  0.00    +0.000 C 
BRANCH  21  22
ATOM     22  N   UNL     1      47.794   7.244  12.202  0.00  0.00    +0.000 N 
ATOM     23  C   UNL     1      46.525   7.666  12.502  0.00  0.00    +0.000 C 
ATOM     24  O   UNL     1      46.306   8.770  12.992  0.00  0.00    +0.000 OA
ATOM     25  H   UNL     1      47.968   6.267  11.993  0.00  0.00    +0.000 HD
BRANCH  23  26
ATOM     26  C   UNL     1      45.432   6.753  12.150  0.00  0.00    +0.000 A 
ATOM     27  C   UNL     1      44.282   7.260  11.560  0.00  0.00    +0.000 A 
ATOM     28  S   UNL     1      43.129   6.067  11.174  0.00  0.00    +0.000 S 
ATOM     29  C   UNL     1      44.105   4.834  11.823  0.00  0.00    +0.000 A 
ATOM     30  N   UNL     1      43.684   3.540  11.828  0.00  0.00    +0.000 NA
ATOM     31  C   UNL     1      44.513   2.714  12.374  0.00  0.00    +0.000 A 
ATOM     32  N   UNL     1      45.727   3.060  12.907  0.00  0.00    +0.000 N 
ATOM     33  C   UNL     1      46.204   4.351  12.904  0.00  0.00    +0.000 A 
ATOM     34  O   UNL     1      47.310   4.619  13.360  0.00  0.00    +0.000 OA
ATOM     35  C   UNL     1      45.305   5.323  12.310  0.00  0.00    +0.000 A 
ATOM     36  H   UNL     1      46.331   2.362  13.314  0.00  0.00    +0.000 HD
ENDBRANCH  23  26
ENDBRANCH  21  22
ENDBRANCH   4  21
TORSDOF 9
ENDMDL
