MODEL 1
REMARK VINA RESULT:    -8.962      0.000      0.000
REMARK INTER + INTRA:         -13.907
REMARK INTER:                 -12.629
REMARK INTRA:                  -1.278
REMARK UNBOUND:                -1.278
REMARK  Name = 
REMARK  10 active torsions:
REMARK  status: ('A' for Active; 'I' for Inactive)
REMARK    1  A    between atoms: C_1  and  C_2
REMARK    2  A    between atoms: C_4  and  O_5
REMARK    3  A    between atoms: O_5  and  C_6
REMARK    4  A    between atoms: C_6  and  C_7
REMARK    5  A    between atoms: C_7  and  C_8
REMARK    6  A    between atoms: C_7  and  C_9
REMARK    7  A    between atoms: C_7  and  C_10
REMARK    8  A    between atoms: C_14  and  O_15
REMARK    9  A    between atoms: O_15  and  C_16
REMARK   10  A    between atoms: C_23  and  C_24
REMARK                            x       y       z     vdW  Elec       q    Type
REMARK                         _______ _______ _______ _____ _____    ______ ____
ROOT
ATOM      1  C   UNL     1      44.139   3.220  11.533  0.00  0.00    +0.000 C 
ENDROOT
BRANCH   1   2
ATOM      2  C   UNL     1      43.968   4.671  12.067  0.00  0.00    +0.000 C 
ATOM      3  C   UNL     1      43.155   4.598  13.381  0.00  0.00    +0.000 C 
ATOM      4  C   UNL     1      43.109   5.459  11.047  0.00  0.00    +0.000 C 
BRANCH   2   5
ATOM      5  C   UNL     1      45.334   5.328  12.353  0.00  0.00    +0.000 A 
ATOM      6  C   UNL     1      45.903   6.275  11.485  0.00  0.00    +0.000 A 
ATOM      7  C   UNL     1      47.140   6.863  11.759  0.00  0.00    +0.000 A 
ATOM      8  C   UNL     1      47.848   6.510  12.903  0.00  0.00    +0.000 A 
ATOM      9  C   UNL     1      47.321   5.559  13.771  0.00  0.00    +0.000 A 
ATOM     10  C   UNL     1      46.070   4.991  13.510  0.00  0.00    +0.000 A 
BRANCH   9  11
ATOM     11  O   UNL     1      47.962   5.136  14.914  0.00  0.00    +0.000 OA
BRANCH  11  12
ATOM     12  C   UNL     1      47.250   4.217  15.774  0.00  0.00    +0.000 C 
ATOM     13  C   UNL     1      47.246   4.545  17.292  0.00  0.00    +0.000 C 
ATOM     14  C   UNL     1      47.404   3.039  17.559  0.00  0.00    +0.000 C 
ATOM     15  C   UNL     1      48.010   2.919  16.147  0.00  0.00    +0.000 C 
ENDBRANCH  11  12
ENDBRANCH   9  11
ENDBRANCH   2   5
ENDBRANCH   1   2
BRANCH   1  16
ATOM     16  O   UNL     1      43.670   3.103  10.184  0.00  0.00    +0.000 OA
BRANCH  16  20
ATOM     17  C   UNL     1      46.736   0.085   7.713  0.00  0.00    +0.000 C 
ATOM     18  C   UNL     1      46.166   1.457   7.944  0.00  0.00    +0.000 A 
ATOM     19  C   UNL     1      45.201   1.614   8.960  0.00  0.00    +0.000 A 
ATOM     20  C   UNL     1      44.619   2.856   9.230  0.00  0.00    +0.000 A 
ATOM     21  C   UNL     1      45.010   3.962   8.479  0.00  0.00    +0.000 A 
ATOM     22  C   UNL     1      45.970   3.831   7.470  0.00  0.00    +0.000 A 
ATOM     23  C   UNL     1      46.548   2.584   7.184  0.00  0.00    +0.000 A 
BRANCH  23  24
ATOM     24  C   UNL     1      47.578   2.476   6.103  0.00  0.00    +0.000 C 
ATOM     25  N   UNL     1      48.872   2.770   6.440  0.00  0.00    +0.000 N 
ATOM     26  O   UNL     1      47.306   2.161   4.952  0.00  0.00    +0.000 OA
ATOM     27  H   UNL     1      49.132   3.215   7.306  0.00  0.00    +0.000 HD
ATOM     28  H   UNL     1      49.540   2.778   5.680  0.00  0.00    +0.000 HD
ENDBRANCH  23  24
ENDBRANCH  16  20
ENDBRANCH   1  16
TORSDOF 7
ENDMDL
MODEL 2
REMARK VINA RESULT:    -7.215      2.507      4.257
REMARK INTER + INTRA:         -11.445
REMARK INTER:                 -10.382
REMARK INTRA:                  -1.064
REMARK UNBOUND:                -1.278
REMARK  Name = 
REMARK  10 active torsions:
REMARK  status: ('A' for Active; 'I' for Inactive)
REMARK    1  A    between atoms: C_1  and  C_2
REMARK    2  A    between atoms: C_4  and  O_5
REMARK    3  A    between atoms: O_5  and  C_6
REMARK    4  A    between atoms: C_6  and  C_7
REMARK    5  A    between atoms: C_7  and  C_8
REMARK    6  A    between atoms: C_7  and  C_9
REMARK    7  A    between atoms: C_7  and  C_10
REMARK    8  A    between atoms: C_14  and  O_15
REMARK    9  A    between atoms: O_15  and  C_16
REMARK   10  A    between atoms: C_23  and  C_24
REMARK                            x       y       z     vdW  Elec       q    Type
REMARK                         _______ _______ _______ _____ _____    ______ ____
ROOT
ATOM      1  C   UNL     1      44.658   3.784  11.550  0.00  0.00    +0.000 C 
ENDROOT
BRANCH   1   2
ATOM      2  C   UNL     1      43.944   5.064  12.071  0.00  0.00    +0.000 C 
ATOM      3  C   UNL     1      43.235   4.702  13.398  0.00  0.00    +0.000 C 
ATOM      4  C   UNL     1      42.838   5.443  11.056  0.00  0.00    +0.000 C 
BRANCH   2   5
ATOM      5  C   UNL     1      44.952   6.202  12.330  0.00  0.00    +0.000 A 
ATOM      6  C   UNL     1      46.104   6.017  13.113  0.00  0.00    +0.000 A 
ATOM      7  C   UNL     1      47.008   7.057  13.336  0.00  0.00    +0.000 A 
ATOM      8  C   UNL     1      46.779   8.316  12.793  0.00  0.00    +0.000 A 
ATOM      9  C   UNL     1      45.636   8.539  12.031  0.00  0.00    +0.000 A 
ATOM     10  C   UNL     1      44.744   7.489  11.786  0.00  0.00    +0.000 A 
BRANCH   9  11
ATOM     11  O   UNL     1      45.319   9.756  11.473  0.00  0.00    +0.000 OA
BRANCH  11  12
ATOM     12  C   UNL     1      46.136  10.891  11.842  0.00  0.00    +0.000 C 
ATOM     13  C   UNL     1      45.467  12.289  11.755  0.00  0.00    +0.000 C 
ATOM     14  C   UNL     1      46.799  12.830  11.211  0.00  0.00    +0.000 C 
ATOM     15  C   UNL     1      47.120  11.393  10.755  0.00  0.00    +0.000 C 
ENDBRANCH  11  12
ENDBRANCH   9  11
ENDBRANCH   2   5
ENDBRANCH   1   2
BRANCH   1  16
ATOM     16  O   UNL     1      44.050   3.304  10.345  0.00  0.00    +0.000 OA
BRANCH  16  20
ATOM     17  C   UNL     1      46.717   0.112   7.640  0.00  0.00    +0.000 C 
ATOM     18  C   UNL     1      46.248   1.515   7.910  0.00  0.00    +0.000 A 
ATOM     19  C   UNL     1      45.384   1.728   9.004  0.00  0.00    +0.000 A 
ATOM     20  C   UNL     1      44.898   3.001   9.314  0.00  0.00    +0.000 A 
ATOM     21  C   UNL     1      45.285   4.082   8.525  0.00  0.00    +0.000 A 
ATOM     22  C   UNL     1      46.146   3.895   7.439  0.00  0.00    +0.000 A 
ATOM     23  C   UNL     1      46.626   2.617   7.113  0.00  0.00    +0.000 A 
BRANCH  23  24
ATOM     24  C   UNL     1      47.552   2.449   5.949  0.00  0.00    +0.000 C 
ATOM     25  N   UNL     1      48.893   2.578   6.192  0.00  0.00    +0.000 N 
ATOM     26  O   UNL     1      47.159   2.226   4.811  0.00  0.00    +0.000 OA
ATOM     27  H   UNL     1      49.268   2.946   7.052  0.00  0.00    +0.000 HD
ATOM     28  H   UNL     1      49.498   2.550   5.381  0.00  0.00    +0.000 HD
ENDBRANCH  23  24
ENDBRANCH  16  20
ENDBRANCH   1  16
TORSDOF 7
ENDMDL
MODEL 3
REMARK VINA RESULT:    -7.156      2.181      2.902
REMARK INTER + INTRA:         -11.363
REMARK INTER:                 -10.177
REMARK INTRA:                  -1.186
REMARK UNBOUND:                -1.278
REMARK  Name = 
REMARK  10 active torsions:
REMARK  status: ('A' for Active; 'I' for Inactive)
REMARK    1  A    between atoms: C_1  and  C_2
REMARK    2  A    between atoms: C_4  and  O_5
REMARK    3  A    between atoms: O_5  and  C_6
REMARK    4  A    between atoms: C_6  and  C_7
REMARK    5  A    between atoms: C_7  and  C_8
REMARK    6  A    between atoms: C_7  and  C_9
REMARK    7  A    between atoms: C_7  and  C_10
REMARK    8  A    between atoms: C_14  and  O_15
REMARK    9  A    between atoms: O_15  and  C_16
REMARK   10  A    between atoms: C_23  and  C_24
REMARK                            x       y       z     vdW  Elec       q    Type
REMARK                         _______ _______ _______ _____ _____    ______ ____
ROOT
ATOM      1  C   UNL     1      44.718   3.889  11.539  0.00  0.00    +0.000 C 
ENDROOT
BRANCH   1   2
ATOM      2  C   UNL     1      43.928   5.143  12.012  0.00  0.00    +0.000 C 
ATOM      3  C   UNL     1      43.336   4.829  13.406  0.00  0.00    +0.000 C 
ATOM      4  C   UNL     1      42.733   5.347  11.048  0.00  0.00    +0.000 C 
BRANCH   2   5
ATOM      5  C   UNL     1      44.846   6.377  12.117  0.00  0.00    +0.000 A 
ATOM      6  C   UNL     1      44.439   7.650  11.684  0.00  0.00    +0.000 A 
ATOM      7  C   UNL     1      45.282   8.759  11.789  0.00  0.00    +0.000 A 
ATOM      8  C   UNL     1      46.560   8.622  12.318  0.00  0.00    +0.000 A 
ATOM      9  C   UNL     1      47.002   7.371  12.736  0.00  0.00    +0.000 A 
ATOM     10  C   UNL     1      46.147   6.266  12.656  0.00  0.00    +0.000 A 
BRANCH   9  11
ATOM     11  O   UNL     1      48.257   7.140  13.252  0.00  0.00    +0.000 OA
BRANCH  11  12
ATOM     12  C   UNL     1      49.272   8.140  13.007  0.00  0.00    +0.000 C 
ATOM     13  C   UNL     1      50.200   7.905  11.784  0.00  0.00    +0.000 C 
ATOM     14  C   UNL     1      51.364   8.435  12.639  0.00  0.00    +0.000 C 
ATOM     15  C   UNL     1      50.546   8.033  13.882  0.00  0.00    +0.000 C 
ENDBRANCH  11  12
ENDBRANCH   9  11
ENDBRANCH   2   5
ENDBRANCH   1   2
BRANCH   1  16
ATOM     16  O   UNL     1      44.107   3.292  10.389  0.00  0.00    +0.000 OA
BRANCH  16  20
ATOM     17  C   UNL     1      46.728   0.110   7.628  0.00  0.00    +0.000 C 
ATOM     18  C   UNL     1      46.265   1.512   7.912  0.00  0.00    +0.000 A 
ATOM     19  C   UNL     1      45.418   1.721   9.020  0.00  0.00    +0.000 A 
ATOM     20  C   UNL     1      44.939   2.993   9.344  0.00  0.00    +0.000 A 
ATOM     21  C   UNL     1      45.315   4.077   8.555  0.00  0.00    +0.000 A 
ATOM     22  C   UNL     1      46.160   3.895   7.455  0.00  0.00    +0.000 A 
ATOM     23  C   UNL     1      46.633   2.617   7.115  0.00  0.00    +0.000 A 
BRANCH  23  24
ATOM     24  C   UNL     1      47.540   2.454   5.936  0.00  0.00    +0.000 C 
ATOM     25  N   UNL     1      48.886   2.567   6.161  0.00  0.00    +0.000 N 
ATOM     26  O   UNL     1      47.129   2.249   4.801  0.00  0.00    +0.000 OA
ATOM     27  H   UNL     1      49.277   2.921   7.020  0.00  0.00    +0.000 HD
ATOM     28  H   UNL     1      49.479   2.543   5.342  0.00  0.00    +0.000 HD
ENDBRANCH  23  24
ENDBRANCH  16  20
ENDBRANCH   1  16
TORSDOF 7
ENDMDL
MODEL 4
REMARK VINA RESULT:    -6.978      3.098      8.586
REMARK INTER + INTRA:         -11.112
REMARK INTER:                 -10.128
REMARK INTRA:                  -0.984
REMARK UNBOUND:                -1.278
REMARK  Name = 
REMARK  10 active torsions:
REMARK  status: ('A' for Active; 'I' for Inactive)
REMARK    1  A    between atoms: C_1  and  C_2
REMARK    2  A    between atoms: C_4  and  O_5
REMARK    3  A    between atoms: O_5  and  C_6
REMARK    4  A    between atoms: C_6  and  C_7
REMARK    5  A    between atoms: C_7  and  C_8
REMARK    6  A    between atoms: C_7  and  C_9
REMARK    7  A    between atoms: C_7  and  C_10
REMARK    8  A    between atoms: C_14  and  O_15
REMARK    9  A    between atoms: O_15  and  C_16
REMARK   10  A    between atoms: C_23  and  C_24
REMARK                            x       y       z     vdW  Elec       q    Type
REMARK                         _______ _______ _______ _____ _____    ______ ____
ROOT
ATOM      1  C   UNL     1      45.861   5.930  13.234  0.00  0.00    +0.000 C 
ENDROOT
BRANCH   1   2
ATOM      2  C   UNL     1      45.794   6.438  11.765  0.00  0.00    +0.000 C 
ATOM      3  C   UNL     1      47.211   6.909  11.363  0.00  0.00    +0.000 C 
ATOM      4  C   UNL     1      44.876   7.686  11.731  0.00  0.00    +0.000 C 
BRANCH   2   5
ATOM      5  C   UNL     1      45.340   5.320  10.805  0.00  0.00    +0.000 A 
ATOM      6  C   UNL     1      44.413   4.336  11.189  0.00  0.00    +0.000 A 
ATOM      7  C   UNL     1      44.011   3.331  10.306  0.00  0.00    +0.000 A 
ATOM      8  C   UNL     1      44.534   3.275   9.019  0.00  0.00    +0.000 A 
ATOM      9  C   UNL     1      45.470   4.221   8.616  0.00  0.00    +0.000 A 
ATOM     10  C   UNL     1      45.853   5.243   9.491  0.00  0.00    +0.000 A 
BRANCH   9  11
ATOM     11  O   UNL     1      46.055   4.230   7.370  0.00  0.00    +0.000 OA
BRANCH  11  12
ATOM     12  C   UNL     1      46.217   2.957   6.702  0.00  0.00    +0.000 C 
ATOM     13  C   UNL     1      47.381   2.055   7.194  0.00  0.00    +0.000 C 
ATOM     14  C   UNL     1      47.635   1.679   5.725  0.00  0.00    +0.000 C 
ATOM     15  C   UNL     1      46.949   3.003   5.337  0.00  0.00    +0.000 C 
ENDBRANCH  11  12
ENDBRANCH   9  11
ENDBRANCH   2   5
ENDBRANCH   1   2
BRANCH   1  16
ATOM     16  O   UNL     1      47.095   5.251  13.494  0.00  0.00    +0.000 OA
BRANCH  16  20
ATOM     17  C   UNL     1      49.634   7.060  17.353  0.00  0.00    +0.000 C 
ATOM     18  C   UNL     1      48.718   6.021  16.770  0.00  0.00    +0.000 A 
ATOM     19  C   UNL     1      48.359   6.137  15.411  0.00  0.00    +0.000 A 
ATOM     20  C   UNL     1      47.506   5.215  14.799  0.00  0.00    +0.000 A 
ATOM     21  C   UNL     1      47.005   4.155  15.552  0.00  0.00    +0.000 A 
ATOM     22  C   UNL     1      47.352   4.017  16.900  0.00  0.00    +0.000 A 
ATOM     23  C   UNL     1      48.197   4.947  17.525  0.00  0.00    +0.000 A 
BRANCH  23  24
ATOM     24  C   UNL     1      48.555   4.769  18.967  0.00  0.00    +0.000 C 
ATOM     25  N   UNL     1      49.588   3.917  19.255  0.00  0.00    +0.000 N 
ATOM     26  O   UNL     1      47.958   5.330  19.877  0.00  0.00    +0.000 OA
ATOM     27  H   UNL     1      49.990   3.285  18.581  0.00  0.00    +0.000 HD
ATOM     28  H   UNL     1      49.760   3.739  20.236  0.00  0.00    +0.000 HD
ENDBRANCH  23  24
ENDBRANCH  16  20
ENDBRANCH   1  16
TORSDOF 7
ENDMDL
MODEL 5
REMARK VINA RESULT:    -6.298      3.661      5.442
REMARK INTER + INTRA:         -10.154
REMARK INTER:                  -8.584
REMARK INTRA:                  -1.570
REMARK UNBOUND:                -1.278
REMARK  Name = 
REMARK  10 active torsions:
REMARK  status: ('A' for Active; 'I' for Inactive)
REMARK    1  A    between atoms: C_1  and  C_2
REMARK    2  A    between atoms: C_4  and  O_5
REMARK    3  A    between atoms: O_5  and  C_6
REMARK    4  A    between atoms: C_6  and  C_7
REMARK    5  A    between atoms: C_7  and  C_8
REMARK    6  A    between atoms: C_7  and  C_9
REMARK    7  A    between atoms: C_7  and  C_10
REMARK    8  A    between atoms: C_14  and  O_15
REMARK    9  A    between atoms: O_15  and  C_16
REMARK   10  A    between atoms: C_23  and  C_24
REMARK                            x       y       z     vdW  Elec       q    Type
REMARK                         _______ _______ _______ _____ _____    ______ ____
ROOT
ATOM      1  C   UNL     1      46.689   8.887  13.089  0.00  0.00    +0.000 C 
ENDROOT
BRANCH   1   2
ATOM      2  C   UNL     1      48.181   9.098  13.476  0.00  0.00    +0.000 C 
ATOM      3  C   UNL     1      48.459  10.620  13.471  0.00  0.00    +0.000 C 
ATOM      4  C   UNL     1      49.057   8.475  12.361  0.00  0.00    +0.000 C 
BRANCH   2   5
ATOM      5  C   UNL     1      48.482   8.533  14.879  0.00  0.00    +0.000 A 
ATOM      6  C   UNL     1      48.452   9.337  16.031  0.00  0.00    +0.000 A 
ATOM      7  C   UNL     1      48.725   8.809  17.295  0.00  0.00    +0.000 A 
ATOM      8  C   UNL     1      49.049   7.464  17.439  0.00  0.00    +0.000 A 
ATOM      9  C   UNL     1      49.109   6.647  16.316  0.00  0.00    +0.000 A 
ATOM     10  C   UNL     1      48.809   7.170  15.053  0.00  0.00    +0.000 A 
BRANCH   9  11
ATOM     11  O   UNL     1      49.442   5.312  16.363  0.00  0.00    +0.000 OA
BRANCH  11  12
ATOM     12  C   UNL     1      48.736   4.484  17.316  0.00  0.00    +0.000 C 
ATOM     13  C   UNL     1      48.899   2.947  17.159  0.00  0.00    +0.000 C 
ATOM     14  C   UNL     1      47.409   2.811  17.512  0.00  0.00    +0.000 C 
ATOM     15  C   UNL     1      47.229   4.263  17.028  0.00  0.00    +0.000 C 
ENDBRANCH  11  12
ENDBRANCH   9  11
ENDBRANCH   2   5
ENDBRANCH   1   2
BRANCH   1  16
ATOM     16  O   UNL     1      46.567   8.150  11.867  0.00  0.00    +0.000 OA
BRANCH  16  20
ATOM     17  C   UNL     1      46.627   3.437  13.416  0.00  0.00    +0.000 C 
ATOM     18  C   UNL     1      45.947   4.556  12.677  0.00  0.00    +0.000 A 
ATOM     19  C   UNL     1      46.594   5.808  12.623  0.00  0.00    +0.000 A 
ATOM     20  C   UNL     1      46.022   6.898  11.963  0.00  0.00    +0.000 A 
ATOM     21  C   UNL     1      44.787   6.738  11.339  0.00  0.00    +0.000 A 
ATOM     22  C   UNL     1      44.130   5.504  11.374  0.00  0.00    +0.000 A 
ATOM     23  C   UNL     1      44.692   4.408  12.048  0.00  0.00    +0.000 A 
BRANCH  23  24
ATOM     24  C   UNL     1      43.968   3.098  12.063  0.00  0.00    +0.000 C 
ATOM     25  N   UNL     1      44.012   2.345  10.919  0.00  0.00    +0.000 N 
ATOM     26  O   UNL     1      43.336   2.695  13.031  0.00  0.00    +0.000 OA
ATOM     27  H   UNL     1      44.346   2.698  10.036  0.00  0.00    +0.000 HD
ATOM     28  H   UNL     1      43.446   1.506  10.915  0.00  0.00    +0.000 HD
ENDBRANCH  23  24
ENDBRANCH  16  20
ENDBRANCH   1  16
TORSDOF 7
ENDMDL
MODEL 6
REMARK VINA RESULT:    -6.283      3.257      6.226
REMARK INTER + INTRA:         -10.132
REMARK INTER:                  -8.537
REMARK INTRA:                  -1.595
REMARK UNBOUND:                -1.278
REMARK  Name = 
REMARK  10 active torsions:
REMARK  status: ('A' for Active; 'I' for Inactive)
REMARK    1  A    between atoms: C_1  and  C_2
REMARK    2  A    between atoms: C_4  and  O_5
REMARK    3  A    between atoms: O_5  and  C_6
REMARK    4  A    between atoms: C_6  and  C_7
REMARK    5  A    between atoms: C_7  and  C_8
REMARK    6  A    between atoms: C_7  and  C_9
REMARK    7  A    between atoms: C_7  and  C_10
REMARK    8  A    between atoms: C_14  and  O_15
REMARK    9  A    between atoms: O_15  and  C_16
REMARK   10  A    between atoms: C_23  and  C_24
REMARK                            x       y       z     vdW  Elec       q    Type
REMARK                         _______ _______ _______ _____ _____    ______ ____
ROOT
ATOM      1  C   UNL     1      47.157   4.312  16.248  0.00  0.00    +0.000 C 
ENDROOT
BRANCH   1   2
ATOM      2  C   UNL     1      48.331   4.464  17.257  0.00  0.00    +0.000 C 
ATOM      3  C   UNL     1      49.019   3.085  17.391  0.00  0.00    +0.000 C 
ATOM      4  C   UNL     1      47.730   4.806  18.643  0.00  0.00    +0.000 C 
BRANCH   2   5
ATOM      5  C   UNL     1      49.363   5.499  16.766  0.00  0.00    +0.000 A 
ATOM      6  C   UNL     1      50.729   5.400  17.081  0.00  0.00    +0.000 A 
ATOM      7  C   UNL     1      51.651   6.346  16.626  0.00  0.00    +0.000 A 
ATOM      8  C   UNL     1      51.230   7.423  15.854  0.00  0.00    +0.000 A 
ATOM      9  C   UNL     1      49.881   7.561  15.543  0.00  0.00    +0.000 A 
ATOM     10  C   UNL     1      48.962   6.600  15.977  0.00  0.00    +0.000 A 
BRANCH   9  11
ATOM     11  O   UNL     1      49.374   8.606  14.804  0.00  0.00    +0.000 OA
BRANCH  11  12
ATOM     12  C   UNL     1      49.727   8.663  13.403  0.00  0.00    +0.000 C 
ATOM     13  C   UNL     1      48.656   9.237  12.437  0.00  0.00    +0.000 C 
ATOM     14  C   UNL     1      49.069   8.154  11.426  0.00  0.00    +0.000 C 
ATOM     15  C   UNL     1      49.589   7.332  12.621  0.00  0.00    +0.000 C 
ENDBRANCH  11  12
ENDBRANCH   9  11
ENDBRANCH   2   5
ENDBRANCH   1   2
BRANCH   1  16
ATOM     16  O   UNL     1      47.635   3.980  14.939  0.00  0.00    +0.000 OA
BRANCH  16  20
ATOM     17  C   UNL     1      45.431   7.268  11.948  0.00  0.00    +0.000 C 
ATOM     18  C   UNL     1      45.681   5.843  12.356  0.00  0.00    +0.000 A 
ATOM     19  C   UNL     1      46.530   5.606  13.456  0.00  0.00    +0.000 A 
ATOM     20  C   UNL     1      46.818   4.309  13.891  0.00  0.00    +0.000 A 
ATOM     21  C   UNL     1      46.245   3.230  13.222  0.00  0.00    +0.000 A 
ATOM     22  C   UNL     1      45.395   3.442  12.132  0.00  0.00    +0.000 A 
ATOM     23  C   UNL     1      45.113   4.741  11.680  0.00  0.00    +0.000 A 
BRANCH  23  24
ATOM     24  C   UNL     1      44.195   4.937  10.514  0.00  0.00    +0.000 C 
ATOM     25  N   UNL     1      44.743   4.838   9.263  0.00  0.00    +0.000 N 
ATOM     26  O   UNL     1      43.005   5.195  10.638  0.00  0.00    +0.000 OA
ATOM     27  H   UNL     1      45.737   4.820   9.092  0.00  0.00    +0.000 HD
ATOM     28  H   UNL     1      44.131   5.060   8.489  0.00  0.00    +0.000 HD
ENDBRANCH  23  24
ENDBRANCH  16  20
ENDBRANCH   1  16
TORSDOF 7
ENDMDL
MODEL 7
REMARK VINA RESULT:    -6.087      4.057      6.571
REMARK INTER + INTRA:          -9.856
REMARK INTER:                  -8.096
REMARK INTRA:                  -1.760
REMARK UNBOUND:                -1.278
REMARK  Name = 
REMARK  10 active torsions:
REMARK  status: ('A' for Active; 'I' for Inactive)
REMARK    1  A    between atoms: C_1  and  C_2
REMARK    2  A    between atoms: C_4  and  O_5
REMARK    3  A    between atoms: O_5  and  C_6
REMARK    4  A    between atoms: C_6  and  C_7
REMARK    5  A    between atoms: C_7  and  C_8
REMARK    6  A    between atoms: C_7  and  C_9
REMARK    7  A    between atoms: C_7  and  C_10
REMARK    8  A    between atoms: C_14  and  O_15
REMARK    9  A    between atoms: O_15  and  C_16
REMARK   10  A    between atoms: C_23  and  C_24
REMARK                            x       y       z     vdW  Elec       q    Type
REMARK                         _______ _______ _______ _____ _____    ______ ____
ROOT
ATOM      1  C   UNL     1      48.102   9.140  14.436  0.00  0.00    +0.000 C 
ENDROOT
BRANCH   1   2
ATOM      2  C   UNL     1      49.124   9.263  15.603  0.00  0.00    +0.000 C 
ATOM      3  C   UNL     1      49.365  10.769  15.863  0.00  0.00    +0.000 C 
ATOM      4  C   UNL     1      50.471   8.665  15.125  0.00  0.00    +0.000 C 
BRANCH   2   5
ATOM      5  C   UNL     1      48.587   8.606  16.890  0.00  0.00    +0.000 A 
ATOM      6  C   UNL     1      47.837   9.323  17.838  0.00  0.00    +0.000 A 
ATOM      7  C   UNL     1      47.355   8.713  18.998  0.00  0.00    +0.000 A 
ATOM      8  C   UNL     1      47.621   7.371  19.249  0.00  0.00    +0.000 A 
ATOM      9  C   UNL     1      48.380   6.639  18.341  0.00  0.00    +0.000 A 
ATOM     10  C   UNL     1      48.839   7.244  17.166  0.00  0.00    +0.000 A 
BRANCH   9  11
ATOM     11  O   UNL     1      48.709   5.315  18.519  0.00  0.00    +0.000 OA
BRANCH  11  12
ATOM     12  C   UNL     1      48.687   4.461  17.352  0.00  0.00    +0.000 C 
ATOM     13  C   UNL     1      47.500   3.467  17.236  0.00  0.00    +0.000 C 
ATOM     14  C   UNL     1      48.496   2.430  16.691  0.00  0.00    +0.000 C 
ATOM     15  C   UNL     1      49.608   3.216  17.413  0.00  0.00    +0.000 C 
ENDBRANCH  11  12
ENDBRANCH   9  11
ENDBRANCH   2   5
ENDBRANCH   1   2
BRANCH   1  16
ATOM     16  O   UNL     1      48.446   8.064  13.555  0.00  0.00    +0.000 OA
BRANCH  16  20
ATOM     17  C   UNL     1      44.273   6.413  11.438  0.00  0.00    +0.000 C 
ATOM     18  C   UNL     1      45.437   6.196  12.365  0.00  0.00    +0.000 A 
ATOM     19  C   UNL     1      46.371   7.241  12.516  0.00  0.00    +0.000 A 
ATOM     20  C   UNL     1      47.482   7.112  13.353  0.00  0.00    +0.000 A 
ATOM     21  C   UNL     1      47.664   5.924  14.056  0.00  0.00    +0.000 A 
ATOM     22  C   UNL     1      46.747   4.876  13.926  0.00  0.00    +0.000 A 
ATOM     23  C   UNL     1      45.635   4.993  13.076  0.00  0.00    +0.000 A 
BRANCH  23  24
ATOM     24  C   UNL     1      44.668   3.857  12.963  0.00  0.00    +0.000 C 
ATOM     25  N   UNL     1      45.084   2.747  12.277  0.00  0.00    +0.000 N 
ATOM     26  O   UNL     1      43.538   3.893  13.433  0.00  0.00    +0.000 OA
ATOM     27  H   UNL     1      45.916   2.725  11.709  0.00  0.00    +0.000 HD
ATOM     28  H   UNL     1      44.389   2.025  12.133  0.00  0.00    +0.000 HD
ENDBRANCH  23  24
ENDBRANCH  16  20
ENDBRANCH   1  16
TORSDOF 7
ENDMDL
