MODEL 1
REMARK VINA RESULT:    -6.844      0.000      0.000
REMARK INTER + INTRA:          -8.461
REMARK INTER:                  -8.044
REMARK INTRA:                  -0.417
REMARK UNBOUND:                -0.417
REMARK  Name = 
REMARK  3 active torsions:
REMARK  status: ('A' for Active; 'I' for Inactive)
REMARK    1  A    between atoms: C_4  and  O_5
REMARK    2  A    between atoms: O_5  and  C_6
REMARK    3  A    between atoms: C_6  and  C_7
REMARK                            x       y       z     vdW  Elec       q    Type
REMARK                         _______ _______ _______ _____ _____    ______ ____
ROOT
ATOM      1  C   UNL     1      45.084   4.926  12.142  0.00  0.00    +0.000 A 
ATOM      2  C   UNL     1      45.558   3.883  12.935  0.00  0.00    +0.000 A 
ATOM      3  C   UNL     1      46.800   4.005  13.525  0.00  0.00    +0.000 A 
ATOM      4  N   UNL     1      47.612   5.077  13.378  0.00  0.00    +0.000 NA
ATOM      5  C   UNL     1      47.166   6.116  12.646  0.00  0.00    +0.000 A 
ATOM      6  N   UNL     1      47.989   7.204  12.430  0.00  0.00    +0.000 N 
ATOM      7  C   UNL     1      49.440   7.056  12.573  0.00  0.00    +0.000 C 
ATOM      8  C   UNL     1      50.007   7.962  13.684  0.00  0.00    +0.000 C 
ATOM      9  N   UNL     1      49.578   9.374  13.572  0.00  0.00    +0.000 NA
ATOM     10  C   UNL     1      48.102   9.403  13.588  0.00  0.00    +0.000 C 
ATOM     11  C   UNL     1      47.452   8.568  12.463  0.00  0.00    +0.000 C 
ATOM     12  C   UNL     1      45.907   6.060  12.042  0.00  0.00    +0.000 A 
ATOM     13  H   UNL     1      49.890   9.723  12.665  0.00  0.00    +0.000 HD
ENDROOT
BRANCH   1  14
ATOM     14  C   UNL     1      43.775   4.834  11.380  0.00  0.00    +0.000 C 
ATOM     15  C   UNL     1      42.488   5.190  12.129  0.00  0.00    +0.000 C 
ATOM     16  C   UNL     1      43.005   6.103  11.070  0.00  0.00    +0.000 C 
BRANCH  14  17
ATOM     17  O   UNL     1      43.571   3.654  10.568  0.00  0.00    +0.000 OA
BRANCH  17  21
ATOM     18  C   UNL     1      46.219   2.612   7.680  0.00  0.00    +0.000 A 
ATOM     19  C   UNL     1      45.805   3.932   7.790  0.00  0.00    +0.000 A 
ATOM     20  N   UNL     1      44.932   4.354   8.738  0.00  0.00    +0.000 NA
ATOM     21  C   UNL     1      44.492   3.386   9.574  0.00  0.00    +0.000 A 
ATOM     22  C   UNL     1      44.912   2.065   9.465  0.00  0.00    +0.000 A 
ATOM     23  N   UNL     1      45.785   1.645   8.516  0.00  0.00    +0.000 NA
ENDBRANCH  17  21
ENDBRANCH  14  17
ENDBRANCH   1  14
TORSDOF 3
ENDMDL
MODEL 2
REMARK VINA RESULT:    -6.447      2.295      3.562
REMARK INTER + INTRA:          -7.996
REMARK INTER:                  -8.521
REMARK INTRA:                   0.525
REMARK UNBOUND:                -0.417
REMARK  Name = 
REMARK  3 active torsions:
REMARK  status: ('A' for Active; 'I' for Inactive)
REMARK    1  A    between atoms: C_4  and  O_5
REMARK    2  A    between atoms: O_5  and  C_6
REMARK    3  A    between atoms: C_6  and  C_7
REMARK                            x       y       z     vdW  Elec       q    Type
REMARK                         _______ _______ _______ _____ _____    ______ ____
ROOT
ATOM      1  C   UNL     1      45.835   5.192  12.788  0.00  0.00    +0.000 A 
ATOM      2  C   UNL     1      46.688   6.145  12.236  0.00  0.00    +0.000 A 
ATOM      3  C   UNL     1      47.809   6.528  12.945  0.00  0.00    +0.000 A 
ATOM      4  N   UNL     1      48.140   6.048  14.166  0.00  0.00    +0.000 NA
ATOM      5  C   UNL     1      47.352   5.099  14.710  0.00  0.00    +0.000 A 
ATOM      6  N   UNL     1      47.629   4.625  15.977  0.00  0.00    +0.000 N 
ATOM      7  C   UNL     1      48.441   5.432  16.892  0.00  0.00    +0.000 C 
ATOM      8  C   UNL     1      49.744   4.714  17.296  0.00  0.00    +0.000 C 
ATOM      9  N   UNL     1      49.532   3.330  17.778  0.00  0.00    +0.000 NA
ATOM     10  C   UNL     1      48.839   2.580  16.711  0.00  0.00    +0.000 C 
ATOM     11  C   UNL     1      47.489   3.200  16.291  0.00  0.00    +0.000 C 
ATOM     12  C   UNL     1      46.216   4.655  14.029  0.00  0.00    +0.000 A 
ATOM     13  H   UNL     1      48.911   3.374  18.586  0.00  0.00    +0.000 HD
ENDROOT
BRANCH   1  14
ATOM     14  C   UNL     1      44.535   4.785  12.121  0.00  0.00    +0.000 C 
ATOM     15  C   UNL     1      43.232   5.029  12.888  0.00  0.00    +0.000 C 
ATOM     16  C   UNL     1      43.552   5.858  11.691  0.00  0.00    +0.000 C 
BRANCH  14  17
ATOM     17  O   UNL     1      44.504   3.487  11.483  0.00  0.00    +0.000 OA
BRANCH  17  21
ATOM     18  C   UNL     1      45.882   3.474   7.669  0.00  0.00    +0.000 A 
ATOM     19  C   UNL     1      45.626   2.271   8.313  0.00  0.00    +0.000 A 
ATOM     20  N   UNL     1      45.154   2.200   9.582  0.00  0.00    +0.000 NA
ATOM     21  C   UNL     1      44.948   3.397  10.178  0.00  0.00    +0.000 A 
ATOM     22  C   UNL     1      45.201   4.601   9.529  0.00  0.00    +0.000 A 
ATOM     23  N   UNL     1      45.674   4.670   8.261  0.00  0.00    +0.000 NA
ENDBRANCH  17  21
ENDBRANCH  14  17
ENDBRANCH   1  14
TORSDOF 3
ENDMDL
MODEL 3
REMARK VINA RESULT:    -6.137      3.225      7.294
REMARK INTER + INTRA:          -7.631
REMARK INTER:                  -7.279
REMARK INTRA:                  -0.352
REMARK UNBOUND:                -0.417
REMARK  Name = 
REMARK  3 active torsions:
REMARK  status: ('A' for Active; 'I' for Inactive)
REMARK    1  A    between atoms: C_4  and  O_5
REMARK    2  A    between atoms: O_5  and  C_6
REMARK    3  A    between atoms: C_6  and  C_7
REMARK                            x       y       z     vdW  Elec       q    Type
REMARK                         _______ _______ _______ _____ _____    ______ ____
ROOT
ATOM      1  C   UNL     1      47.665   7.320  13.820  0.00  0.00    +0.000 A 
ATOM      2  C   UNL     1      46.980   8.520  13.642  0.00  0.00    +0.000 A 
ATOM      3  C   UNL     1      45.830   8.525  12.879  0.00  0.00    +0.000 A 
ATOM      4  N   UNL     1      45.315   7.433  12.268  0.00  0.00    +0.000 NA
ATOM      5  C   UNL     1      45.936   6.252  12.451  0.00  0.00    +0.000 A 
ATOM      6  N   UNL     1      45.470   5.126  11.800  0.00  0.00    +0.000 N 
ATOM      7  C   UNL     1      44.644   5.273  10.599  0.00  0.00    +0.000 C 
ATOM      8  C   UNL     1      43.238   4.669  10.787  0.00  0.00    +0.000 C 
ATOM      9  N   UNL     1      43.254   3.285  11.312  0.00  0.00    +0.000 NA
ATOM     10  C   UNL     1      43.986   3.295  12.595  0.00  0.00    +0.000 C 
ATOM     11  C   UNL     1      45.431   3.829  12.482  0.00  0.00    +0.000 C 
ATOM     12  C   UNL     1      47.092   6.180  13.232  0.00  0.00    +0.000 A 
ATOM     13  H   UNL     1      43.780   2.708  10.655  0.00  0.00    +0.000 HD
ENDROOT
BRANCH   1  14
ATOM     14  C   UNL     1      48.986   7.244  14.562  0.00  0.00    +0.000 C 
ATOM     15  C   UNL     1      50.252   7.664  13.810  0.00  0.00    +0.000 C 
ATOM     16  C   UNL     1      49.721   8.526  14.905  0.00  0.00    +0.000 C 
BRANCH  14  17
ATOM     17  O   UNL     1      49.236   6.045  15.333  0.00  0.00    +0.000 OA
BRANCH  17  21
ATOM     18  C   UNL     1      47.120   5.288  18.708  0.00  0.00    +0.000 A 
ATOM     19  C   UNL     1      47.924   6.418  18.638  0.00  0.00    +0.000 A 
ATOM     20  N   UNL     1      48.650   6.739  17.538  0.00  0.00    +0.000 NA
ATOM     21  C   UNL     1      48.530   5.872  16.507  0.00  0.00    +0.000 A 
ATOM     22  C   UNL     1      47.720   4.744  16.577  0.00  0.00    +0.000 A 
ATOM     23  N   UNL     1      46.996   4.424  17.678  0.00  0.00    +0.000 NA
ENDBRANCH  17  21
ENDBRANCH  14  17
ENDBRANCH   1  14
TORSDOF 3
ENDMDL
MODEL 4
REMARK VINA RESULT:    -5.797      2.768      6.684
REMARK INTER + INTRA:          -7.232
REMARK INTER:                  -7.017
REMARK INTRA:                  -0.215
REMARK UNBOUND:                -0.417
REMARK  Name = 
REMARK  3 active torsions:
REMARK  status: ('A' for Active; 'I' for Inactive)
REMARK    1  A    between atoms: C_4  and  O_5
REMARK    2  A    between atoms: O_5  and  C_6
REMARK    3  A    between atoms: C_6  and  C_7
REMARK                            x       y       z     vdW  Elec       q    Type
REMARK                         _______ _______ _______ _____ _____    ______ ____
ROOT
ATOM      1  C   UNL     1      47.645   6.689  13.136  0.00  0.00    +0.000 A 
ATOM      2  C   UNL     1      47.874   6.093  14.373  0.00  0.00    +0.000 A 
ATOM      3  C   UNL     1      47.088   5.025  14.755  0.00  0.00    +0.000 A 
ATOM      4  N   UNL     1      46.082   4.512  14.009  0.00  0.00    +0.000 NA
ATOM      5  C   UNL     1      45.860   5.046  12.792  0.00  0.00    +0.000 A 
ATOM      6  N   UNL     1      44.808   4.584  12.024  0.00  0.00    +0.000 N 
ATOM      7  C   UNL     1      43.691   3.889  12.669  0.00  0.00    +0.000 C 
ATOM      8  C   UNL     1      43.543   2.440  12.163  0.00  0.00    +0.000 C 
ATOM      9  N   UNL     1      43.520   2.328  10.687  0.00  0.00    +0.000 NA
ATOM     10  C   UNL     1      44.764   2.930  10.168  0.00  0.00    +0.000 C 
ATOM     11  C   UNL     1      44.958   4.407  10.577  0.00  0.00    +0.000 C 
ATOM     12  C   UNL     1      46.639   6.115  12.341  0.00  0.00    +0.000 A 
ATOM     13  H   UNL     1      42.735   2.883  10.345  0.00  0.00    +0.000 HD
ENDROOT
BRANCH   1  14
ATOM     14  C   UNL     1      48.398   7.925  12.680  0.00  0.00    +0.000 C 
ATOM     15  C   UNL     1      49.928   7.874  12.696  0.00  0.00    +0.000 C 
ATOM     16  C   UNL     1      49.201   7.875  11.394  0.00  0.00    +0.000 C 
BRANCH  14  17
ATOM     17  O   UNL     1      47.934   9.199  13.187  0.00  0.00    +0.000 OA
BRANCH  17  21
ATOM     18  C   UNL     1      45.252  11.258  10.949  0.00  0.00    +0.000 A 
ATOM     19  C   UNL     1      44.826  10.186  11.721  0.00  0.00    +0.000 A 
ATOM     20  N   UNL     1      45.665   9.460  12.502  0.00  0.00    +0.000 NA
ATOM     21  C   UNL     1      46.955   9.862  12.473  0.00  0.00    +0.000 A 
ATOM     22  C   UNL     1      47.379  10.939  11.703  0.00  0.00    +0.000 A 
ATOM     23  N   UNL     1      46.540  11.663  10.922  0.00  0.00    +0.000 NA
ENDBRANCH  17  21
ENDBRANCH  14  17
ENDBRANCH   1  14
TORSDOF 3
ENDMDL
MODEL 5
REMARK VINA RESULT:    -5.643      2.920      7.265
REMARK INTER + INTRA:          -7.051
REMARK INTER:                  -6.667
REMARK INTRA:                  -0.384
REMARK UNBOUND:                -0.417
REMARK  Name = 
REMARK  3 active torsions:
REMARK  status: ('A' for Active; 'I' for Inactive)
REMARK    1  A    between atoms: C_4  and  O_5
REMARK    2  A    between atoms: O_5  and  C_6
REMARK    3  A    between atoms: C_6  and  C_7
REMARK                            x       y       z     vdW  Elec       q    Type
REMARK                         _______ _______ _______ _____ _____    ______ ____
ROOT
ATOM      1  C   UNL     1      47.637   7.824  12.616  0.00  0.00    +0.000 A 
ATOM      2  C   UNL     1      46.840   8.927  12.910  0.00  0.00    +0.000 A 
ATOM      3  C   UNL     1      45.476   8.836  12.715  0.00  0.00    +0.000 A 
ATOM      4  N   UNL     1      44.846   7.738  12.237  0.00  0.00    +0.000 NA
ATOM      5  C   UNL     1      45.588   6.643  11.977  0.00  0.00    +0.000 A 
ATOM      6  N   UNL     1      44.986   5.523  11.439  0.00  0.00    +0.000 N 
ATOM      7  C   UNL     1      43.708   5.654  10.733  0.00  0.00    +0.000 C 
ATOM      8  C   UNL     1      42.586   4.846  11.414  0.00  0.00    +0.000 C 
ATOM      9  N   UNL     1      42.953   3.438  11.689  0.00  0.00    +0.000 NA
ATOM     10  C   UNL     1      44.168   3.442  12.529  0.00  0.00    +0.000 C 
ATOM     11  C   UNL     1      45.364   4.180  11.888  0.00  0.00    +0.000 C 
ATOM     12  C   UNL     1      46.970   6.668  12.177  0.00  0.00    +0.000 A 
ATOM     13  H   UNL     1      43.188   2.998  10.799  0.00  0.00    +0.000 HD
ENDROOT
BRANCH   1  14
ATOM     14  C   UNL     1      49.151   7.870  12.711  0.00  0.00    +0.000 C 
ATOM     15  C   UNL     1      49.944   7.976  11.405  0.00  0.00    +0.000 C 
ATOM     16  C   UNL     1      49.881   9.144  12.330  0.00  0.00    +0.000 C 
BRANCH  14  17
ATOM     17  O   UNL     1      49.781   6.922  13.604  0.00  0.00    +0.000 OA
BRANCH  17  21
ATOM     18  C   UNL     1      48.739   7.261  17.508  0.00  0.00    +0.000 A 
ATOM     19  C   UNL     1      48.483   6.078  16.827  0.00  0.00    +0.000 A 
ATOM     20  N   UNL     1      48.814   5.891  15.525  0.00  0.00    +0.000 NA
ATOM     21  C   UNL     1      49.417   6.948  14.936  0.00  0.00    +0.000 A 
ATOM     22  C   UNL     1      49.677   8.130  15.621  0.00  0.00    +0.000 A 
ATOM     23  N   UNL     1      49.345   8.316  16.922  0.00  0.00    +0.000 NA
ENDBRANCH  17  21
ENDBRANCH  14  17
ENDBRANCH   1  14
TORSDOF 3
ENDMDL
MODEL 6
REMARK VINA RESULT:    -5.610      3.130      4.818
REMARK INTER + INTRA:          -7.011
REMARK INTER:                  -6.935
REMARK INTRA:                  -0.076
REMARK UNBOUND:                -0.417
REMARK  Name = 
REMARK  3 active torsions:
REMARK  status: ('A' for Active; 'I' for Inactive)
REMARK    1  A    between atoms: C_4  and  O_5
REMARK    2  A    between atoms: O_5  and  C_6
REMARK    3  A    between atoms: C_6  and  C_7
REMARK                            x       y       z     vdW  Elec       q    Type
REMARK                         _______ _______ _______ _____ _____    ______ ____
ROOT
ATOM      1  C   UNL     1      47.449   6.661  13.609  0.00  0.00    +0.000 A 
ATOM      2  C   UNL     1      48.604   7.394  13.347  0.00  0.00    +0.000 A 
ATOM      3  C   UNL     1      49.658   7.316  14.235  0.00  0.00    +0.000 A 
ATOM      4  N   UNL     1      49.648   6.578  15.369  0.00  0.00    +0.000 NA
ATOM      5  C   UNL     1      48.557   5.831  15.630  0.00  0.00    +0.000 A 
ATOM      6  N   UNL     1      48.491   5.107  16.804  0.00  0.00    +0.000 N 
ATOM      7  C   UNL     1      49.333   5.489  17.941  0.00  0.00    +0.000 C 
ATOM      8  C   UNL     1      50.312   4.365  18.338  0.00  0.00    +0.000 C 
ATOM      9  N   UNL     1      49.661   3.048  18.516  0.00  0.00    +0.000 NA
ATOM     10  C   UNL     1      48.970   2.708  17.256  0.00  0.00    +0.000 C 
ATOM     11  C   UNL     1      47.922   3.756  16.820  0.00  0.00    +0.000 C 
ATOM     12  C   UNL     1      47.468   5.851  14.756  0.00  0.00    +0.000 A 
ATOM     13  H   UNL     1      48.953   3.147  19.246  0.00  0.00    +0.000 HD
ENDROOT
BRANCH   1  14
ATOM     14  C   UNL     1      46.210   6.762  12.738  0.00  0.00    +0.000 C 
ATOM     15  C   UNL     1      45.910   8.112  12.079  0.00  0.00    +0.000 C 
ATOM     16  C   UNL     1      46.367   6.965  11.243  0.00  0.00    +0.000 C 
BRANCH  14  17
ATOM     17  O   UNL     1      44.993   6.178  13.258  0.00  0.00    +0.000 OA
BRANCH  17  21
ATOM     18  C   UNL     1      43.514   2.872  11.436  0.00  0.00    +0.000 A 
ATOM     19  C   UNL     1      44.697   2.789  12.158  0.00  0.00    +0.000 A 
ATOM     20  N   UNL     1      45.243   3.850  12.801  0.00  0.00    +0.000 NA
ATOM     21  C   UNL     1      44.545   5.002  12.688  0.00  0.00    +0.000 A 
ATOM     22  C   UNL     1      43.357   5.082  11.969  0.00  0.00    +0.000 A 
ATOM     23  N   UNL     1      42.813   4.020  11.326  0.00  0.00    +0.000 NA
ENDBRANCH  17  21
ENDBRANCH  14  17
ENDBRANCH   1  14
TORSDOF 3
ENDMDL
MODEL 7
REMARK VINA RESULT:    -5.354      2.916      6.518
REMARK INTER + INTRA:          -6.710
REMARK INTER:                  -6.607
REMARK INTRA:                  -0.103
REMARK UNBOUND:                -0.417
REMARK  Name = 
REMARK  3 active torsions:
REMARK  status: ('A' for Active; 'I' for Inactive)
REMARK    1  A    between atoms: C_4  and  O_5
REMARK    2  A    between atoms: O_5  and  C_6
REMARK    3  A    between atoms: C_6  and  C_7
REMARK                            x       y       z     vdW  Elec       q    Type
REMARK                         _______ _______ _______ _____ _____    ______ ____
ROOT
ATOM      1  C   UNL     1      46.051   6.736  12.347  0.00  0.00    +0.000 A 
ATOM      2  C   UNL     1      45.906   5.823  13.389  0.00  0.00    +0.000 A 
ATOM      3  C   UNL     1      45.535   4.527  13.092  0.00  0.00    +0.000 A 
ATOM      4  N   UNL     1      45.285   4.072  11.842  0.00  0.00    +0.000 NA
ATOM      5  C   UNL     1      45.452   4.924  10.812  0.00  0.00    +0.000 A 
ATOM      6  N   UNL     1      45.154   4.510   9.528  0.00  0.00    +0.000 N 
ATOM      7  C   UNL     1      44.251   3.374   9.323  0.00  0.00    +0.000 C 
ATOM      8  C   UNL     1      44.946   2.208   8.592  0.00  0.00    +0.000 C 
ATOM      9  N   UNL     1      45.649   2.619   7.356  0.00  0.00    +0.000 NA
ATOM     10  C   UNL     1      46.633   3.659   7.718  0.00  0.00    +0.000 C 
ATOM     11  C   UNL     1      46.007   4.896   8.400  0.00  0.00    +0.000 C 
ATOM     12  C   UNL     1      45.848   6.243  11.048  0.00  0.00    +0.000 A 
ATOM     13  H   UNL     1      44.960   3.041   6.732  0.00  0.00    +0.000 HD
ENDROOT
BRANCH   1  14
ATOM     14  C   UNL     1      46.362   8.201  12.593  0.00  0.00    +0.000 C 
ATOM     15  C   UNL     1      47.532   8.536  13.523  0.00  0.00    +0.000 C 
ATOM     16  C   UNL     1      47.655   8.787  12.058  0.00  0.00    +0.000 C 
BRANCH  14  17
ATOM     17  O   UNL     1      45.240   9.072  12.868  0.00  0.00    +0.000 OA
BRANCH  17  21
ATOM     18  C   UNL     1      44.060  11.566   9.896  0.00  0.00    +0.000 A 
ATOM     19  C   UNL     1      43.549  10.276   9.956  0.00  0.00    +0.000 A 
ATOM     20  N   UNL     1      43.891   9.393  10.927  0.00  0.00    +0.000 NA
ATOM     21  C   UNL     1      44.770   9.866  11.840  0.00  0.00    +0.000 A 
ATOM     22  C   UNL     1      45.276  11.159  11.781  0.00  0.00    +0.000 A 
ATOM     23  N   UNL     1      44.935  12.041  10.809  0.00  0.00    +0.000 NA
ENDBRANCH  17  21
ENDBRANCH  14  17
ENDBRANCH   1  14
TORSDOF 3
ENDMDL
MODEL 8
REMARK VINA RESULT:    -5.291      2.760      4.166
REMARK INTER + INTRA:          -6.637
REMARK INTER:                  -6.303
REMARK INTRA:                  -0.334
REMARK UNBOUND:                -0.417
REMARK  Name = 
REMARK  3 active torsions:
REMARK  status: ('A' for Active; 'I' for Inactive)
REMARK    1  A    between atoms: C_4  and  O_5
REMARK    2  A    between atoms: O_5  and  C_6
REMARK    3  A    between atoms: C_6  and  C_7
REMARK                            x       y       z     vdW  Elec       q    Type
REMARK                         _______ _______ _______ _____ _____    ______ ____
ROOT
ATOM      1  C   UNL     1      47.141   7.451  12.798  0.00  0.00    +0.000 A 
ATOM      2  C   UNL     1      48.036   7.497  11.732  0.00  0.00    +0.000 A 
ATOM      3  C   UNL     1      49.390   7.426  11.993  0.00  0.00    +0.000 A 
ATOM      4  N   UNL     1      49.923   7.326  13.232  0.00  0.00    +0.000 NA
ATOM      5  C   UNL     1      49.081   7.243  14.281  0.00  0.00    +0.000 A 
ATOM      6  N   UNL     1      49.589   7.193  15.564  0.00  0.00    +0.000 N 
ATOM      7  C   UNL     1      50.945   7.686  15.827  0.00  0.00    +0.000 C 
ATOM      8  C   UNL     1      51.870   6.575  16.363  0.00  0.00    +0.000 C 
ATOM      9  N   UNL     1      51.295   5.825  17.503  0.00  0.00    +0.000 NA
ATOM     10  C   UNL     1      50.004   5.255  17.067  0.00  0.00    +0.000 C 
ATOM     11  C   UNL     1      48.993   6.313  16.573  0.00  0.00    +0.000 C 
ATOM     12  C   UNL     1      47.699   7.287  14.077  0.00  0.00    +0.000 A 
ATOM     13  H   UNL     1      51.107   6.494  18.252  0.00  0.00    +0.000 HD
ENDROOT
BRANCH   1  14
ATOM     14  C   UNL     1      45.645   7.618  12.608  0.00  0.00    +0.000 C 
ATOM     15  C   UNL     1      45.081   9.042  12.609  0.00  0.00    +0.000 C 
ATOM     16  C   UNL     1      45.125   8.264  11.338  0.00  0.00    +0.000 C 
BRANCH  14  17
ATOM     17  O   UNL     1      44.786   6.739  13.370  0.00  0.00    +0.000 OA
BRANCH  17  21
ATOM     18  C   UNL     1      43.865   3.092  11.855  0.00  0.00    +0.000 A 
ATOM     19  C   UNL     1      43.060   4.184  11.559  0.00  0.00    +0.000 A 
ATOM     20  N   UNL     1      43.314   5.433  12.021  0.00  0.00    +0.000 NA
ATOM     21  C   UNL     1      44.417   5.537  12.796  0.00  0.00    +0.000 A 
ATOM     22  C   UNL     1      45.224   4.444  13.087  0.00  0.00    +0.000 A 
ATOM     23  N   UNL     1      44.969   3.195  12.626  0.00  0.00    +0.000 NA
ENDBRANCH  17  21
ENDBRANCH  14  17
ENDBRANCH   1  14
TORSDOF 3
ENDMDL
MODEL 9
REMARK VINA RESULT:    -5.168      2.744      7.650
REMARK INTER + INTRA:          -6.491
REMARK INTER:                  -6.372
REMARK INTRA:                  -0.119
REMARK UNBOUND:                -0.417
REMARK  Name = 
REMARK  3 active torsions:
REMARK  status: ('A' for Active; 'I' for Inactive)
REMARK    1  A    between atoms: C_4  and  O_5
REMARK    2  A    between atoms: O_5  and  C_6
REMARK    3  A    between atoms: C_6  and  C_7
REMARK                            x       y       z     vdW  Elec       q    Type
REMARK                         _______ _______ _______ _____ _____    ______ ____
ROOT
ATOM      1  C   UNL     1      47.920   6.460  13.578  0.00  0.00    +0.000 A 
ATOM      2  C   UNL     1      48.078   5.732  14.755  0.00  0.00    +0.000 A 
ATOM      3  C   UNL     1      47.183   4.719  15.038  0.00  0.00    +0.000 A 
ATOM      4  N   UNL     1      46.137   4.384  14.250  0.00  0.00    +0.000 NA
ATOM      5  C   UNL     1      45.980   5.047  13.087  0.00  0.00    +0.000 A 
ATOM      6  N   UNL     1      44.893   4.767  12.282  0.00  0.00    +0.000 N 
ATOM      7  C   UNL     1      43.705   4.134  12.862  0.00  0.00    +0.000 C 
ATOM      8  C   UNL     1      43.413   2.761  12.225  0.00  0.00    +0.000 C 
ATOM      9  N   UNL     1      43.391   2.787  10.745  0.00  0.00    +0.000 NA
ATOM     10  C   UNL     1      44.694   3.304  10.281  0.00  0.00    +0.000 C 
ATOM     11  C   UNL     1      45.035   4.709  10.824  0.00  0.00    +0.000 C 
ATOM     12  C   UNL     1      46.868   6.066  12.735  0.00  0.00    +0.000 A 
ATOM     13  H   UNL     1      42.669   3.450  10.456  0.00  0.00    +0.000 HD
ENDROOT
BRANCH   1  14
ATOM     14  C   UNL     1      48.800   7.648  13.237  0.00  0.00    +0.000 C 
ATOM     15  C   UNL     1      49.355   7.739  11.813  0.00  0.00    +0.000 C 
ATOM     16  C   UNL     1      48.295   8.690  12.257  0.00  0.00    +0.000 C 
BRANCH  14  17
ATOM     17  O   UNL     1      49.823   8.002  14.196  0.00  0.00    +0.000 OA
BRANCH  17  21
ATOM     18  C   UNL     1      49.232  11.276  16.515  0.00  0.00    +0.000 A 
ATOM     19  C   UNL     1      48.464  10.138  16.721  0.00  0.00    +0.000 A 
ATOM     20  N   UNL     1      48.615   9.005  15.992  0.00  0.00    +0.000 NA
ATOM     21  C   UNL     1      49.577   9.065  15.043  0.00  0.00    +0.000 A 
ATOM     22  C   UNL     1      50.348  10.204  14.842  0.00  0.00    +0.000 A 
ATOM     23  N   UNL     1      50.196  11.337  15.571  0.00  0.00    +0.000 NA
ENDBRANCH  17  21
ENDBRANCH  14  17
ENDBRANCH   1  14
TORSDOF 3
ENDMDL
