MODEL 1
REMARK VINA RESULT:    -8.306      0.000      0.000
REMARK INTER + INTRA:         -12.208
REMARK INTER:                 -11.220
REMARK INTRA:                  -0.988
REMARK UNBOUND:                -0.988
REMARK  Name = 
REMARK  6 active torsions:
REMARK  status: ('A' for Active; 'I' for Inactive)
REMARK    1  A    between atoms: C_2  and  C_25
REMARK    2  A    between atoms: N_3  and  C_4
REMARK    3  A    between atoms: C_4  and  C_5
REMARK    4  A    between atoms: C_8  and  C_9
REMARK    5  A    between atoms: C_9  and  N_10
REMARK    6  A    between atoms: C_11  and  C_13
REMARK                            x       y       z     vdW  Elec       q    Type
REMARK                         _______ _______ _______ _____ _____    ______ ____
ROOT
ATOM      1  C   UNL     1      44.827   5.117  10.730  0.00  0.00    +0.000 A 
ATOM      2  C   UNL     1      44.320   5.412  12.001  0.00  0.00    +0.000 A 
ATOM      3  C   UNL     1      44.953   6.350  12.824  0.00  0.00    +0.000 A 
ATOM      4  C   UNL     1      46.095   7.030  12.380  0.00  0.00    +0.000 A 
ATOM      5  C   UNL     1      46.607   6.731  11.110  0.00  0.00    +0.000 A 
ATOM      6  C   UNL     1      45.975   5.794  10.288  0.00  0.00    +0.000 A 
ENDROOT
BRANCH   1   7
ATOM      7  C   UNL     1      44.132   4.129   9.832  0.00  0.00    +0.000 C 
BRANCH   7  10
ATOM      8  O   UNL     1      45.498   1.723   9.424  0.00  0.00    +0.000 OA
ATOM      9  C   UNL     1      45.546   2.582   8.548  0.00  0.00    +0.000 C 
ATOM     10  N   UNL     1      44.948   3.812   8.684  0.00  0.00    +0.000 N 
ATOM     11  H   UNL     1      44.965   4.482   7.924  0.00  0.00    +0.000 HD
BRANCH   9  12
ATOM     12  C   UNL     1      46.319   2.317   7.308  0.00  0.00    +0.000 A 
ATOM     13  C   UNL     1      46.541   3.398   6.441  0.00  0.00    +0.000 A 
ATOM     14  C   UNL     1      47.257   3.214   5.259  0.00  0.00    +0.000 A 
ATOM     15  C   UNL     1      47.739   1.948   4.978  0.00  0.00    +0.000 A 
ATOM     16  N   UNL     1      47.558   0.886   5.788  0.00  0.00    +0.000 NA
ATOM     17  C   UNL     1      46.860   1.093   6.935  0.00  0.00    +0.000 A 
ATOM     18 CL   UNL     1      46.773  -0.346   7.880  0.00  0.00    +0.000 Cl
ENDBRANCH   9  12
ENDBRANCH   7  10
ENDBRANCH   1   7
BRANCH   4  19
ATOM     19  C   UNL     1      46.800   8.024  13.269  0.00  0.00    +0.000 C 
BRANCH  19  20
ATOM     20  N   UNL     1      47.314   7.376  14.449  0.00  0.00    +0.000 N 
ATOM     21  C   UNL     1      48.560   6.807  14.480  0.00  0.00    +0.000 C 
ATOM     22  O   UNL     1      49.328   6.863  13.525  0.00  0.00    +0.000 OA
ATOM     23  H   UNL     1      46.629   7.108  15.149  0.00  0.00    +0.000 HD
BRANCH  21  24
ATOM     24  C   UNL     1      48.955   6.185  15.751  0.00  0.00    +0.000 A 
ATOM     25  C   UNL     1      50.037   6.685  16.461  0.00  0.00    +0.000 A 
ATOM     26  S   UNL     1      50.300   5.897  17.952  0.00  0.00    +0.000 S 
ATOM     27  C   UNL     1      49.011   4.822  17.674  0.00  0.00    +0.000 A 
ATOM     28  N   UNL     1      48.694   3.859  18.581  0.00  0.00    +0.000 NA
ATOM     29  C   UNL     1      47.715   3.094  18.226  0.00  0.00    +0.000 A 
ATOM     30  N   UNL     1      47.025   3.204  17.047  0.00  0.00    +0.000 N 
ATOM     31  C   UNL     1      47.298   4.172  16.111  0.00  0.00    +0.000 A 
ATOM     32  O   UNL     1      46.647   4.254  15.074  0.00  0.00    +0.000 OA
ATOM     33  C   UNL     1      48.388   5.063  16.463  0.00  0.00    +0.000 A 
ATOM     34  H   UNL     1      46.269   2.573  16.827  0.00  0.00    +0.000 HD
ENDBRANCH  21  24
ENDBRANCH  19  20
ENDBRANCH   4  19
TORSDOF 6
ENDMDL
MODEL 2
REMARK VINA RESULT:    -8.041      3.438      5.766
REMARK INTER + INTRA:         -11.849
REMARK INTER:                 -10.870
REMARK INTRA:                  -0.979
REMARK UNBOUND:                -0.988
REMARK  Name = 
REMARK  6 active torsions:
REMARK  status: ('A' for Active; 'I' for Inactive)
REMARK    1  A    between atoms: C_2  and  C_25
REMARK    2  A    between atoms: N_3  and  C_4
REMARK    3  A    between atoms: C_4  and  C_5
REMARK    4  A    between atoms: C_8  and  C_9
REMARK    5  A    between atoms: C_9  and  N_10
REMARK    6  A    between atoms: C_11  and  C_13
REMARK                            x       y       z     vdW  Elec       q    Type
REMARK                         _______ _______ _______ _____ _____    ______ ____
ROOT
ATOM      1  C   UNL     1      46.921   2.120   7.254  0.00  0.00    +0.000 A 
ATOM      2  C   UNL     1      46.090   1.389   8.112  0.00  0.00    +0.000 A 
ATOM      3  C   UNL     1      45.164   2.038   8.936  0.00  0.00    +0.000 A 
ATOM      4  C   UNL     1      45.035   3.432   8.901  0.00  0.00    +0.000 A 
ATOM      5  C   UNL     1      45.870   4.166   8.048  0.00  0.00    +0.000 A 
ATOM      6  C   UNL     1      46.796   3.518   7.225  0.00  0.00    +0.000 A 
ENDROOT
BRANCH   1   7
ATOM      7  C   UNL     1      47.898   1.422   6.347  0.00  0.00    +0.000 C 
BRANCH   7  10
ATOM      8  O   UNL     1      47.722   1.223   3.563  0.00  0.00    +0.000 OA
ATOM      9  C   UNL     1      47.257   0.316   4.247  0.00  0.00    +0.000 C 
ATOM     10  N   UNL     1      47.254   0.353   5.621  0.00  0.00    +0.000 N 
ATOM     11  H   UNL     1      46.906  -0.433   6.158  0.00  0.00    +0.000 HD
BRANCH   9  12
ATOM     12  C   UNL     1      46.624  -0.849   3.580  0.00  0.00    +0.000 A 
ATOM     13  C   UNL     1      47.074  -2.128   3.947  0.00  0.00    +0.000 A 
ATOM     14  C   UNL     1      46.523  -3.262   3.355  0.00  0.00    +0.000 A 
ATOM     15  C   UNL     1      45.526  -3.088   2.412  0.00  0.00    +0.000 A 
ATOM     16  N   UNL     1      45.058  -1.880   2.039  0.00  0.00    +0.000 NA
ATOM     17  C   UNL     1      45.610  -0.791   2.633  0.00  0.00    +0.000 A 
ATOM     18 CL   UNL     1      44.858   0.662   2.091  0.00  0.00    +0.000 Cl
ENDBRANCH   9  12
ENDBRANCH   7  10
ENDBRANCH   1   7
BRANCH   4  19
ATOM     19  C   UNL     1      44.059   4.143   9.805  0.00  0.00    +0.000 C 
BRANCH  19  20
ATOM     20  N   UNL     1      44.664   5.312  10.389  0.00  0.00    +0.000 N 
ATOM     21  C   UNL     1      43.958   6.174  11.186  0.00  0.00    +0.000 C 
ATOM     22  O   UNL     1      42.786   5.973  11.490  0.00  0.00    +0.000 OA
ATOM     23  H   UNL     1      45.534   5.625   9.970  0.00  0.00    +0.000 HD
BRANCH  21  24
ATOM     24  C   UNL     1      44.706   7.323  11.717  0.00  0.00    +0.000 A 
ATOM     25  C   UNL     1      44.349   8.612  11.348  0.00  0.00    +0.000 A 
ATOM     26  S   UNL     1      45.267   9.824  12.124  0.00  0.00    +0.000 S 
ATOM     27  C   UNL     1      46.210   8.665  12.938  0.00  0.00    +0.000 A 
ATOM     28  N   UNL     1      47.211   9.042  13.779  0.00  0.00    +0.000 NA
ATOM     29  C   UNL     1      47.866   8.059  14.303  0.00  0.00    +0.000 A 
ATOM     30  N   UNL     1      47.611   6.734  14.062  0.00  0.00    +0.000 N 
ATOM     31  C   UNL     1      46.600   6.308  13.235  0.00  0.00    +0.000 A 
ATOM     32  O   UNL     1      46.387   5.112  13.058  0.00  0.00    +0.000 OA
ATOM     33  C   UNL     1      45.829   7.373  12.623  0.00  0.00    +0.000 A 
ATOM     34  H   UNL     1      48.161   6.012  14.503  0.00  0.00    +0.000 HD
ENDBRANCH  21  24
ENDBRANCH  19  20
ENDBRANCH   4  19
TORSDOF 6
ENDMDL
MODEL 3
REMARK VINA RESULT:    -7.647      3.638      8.901
REMARK INTER + INTRA:         -11.318
REMARK INTER:                 -10.187
REMARK INTRA:                  -1.130
REMARK UNBOUND:                -0.988
REMARK  Name = 
REMARK  6 active torsions:
REMARK  status: ('A' for Active; 'I' for Inactive)
REMARK    1  A    between atoms: C_2  and  C_25
REMARK    2  A    between atoms: N_3  and  C_4
REMARK    3  A    between atoms: C_4  and  C_5
REMARK    4  A    between atoms: C_8  and  C_9
REMARK    5  A    between atoms: C_9  and  N_10
REMARK    6  A    between atoms: C_11  and  C_13
REMARK                            x       y       z     vdW  Elec       q    Type
REMARK                         _______ _______ _______ _____ _____    ______ ____
ROOT
ATOM      1  C   UNL     1      50.294   7.269  15.395  0.00  0.00    +0.000 A 
ATOM      2  C   UNL     1      50.742   7.915  14.235  0.00  0.00    +0.000 A 
ATOM      3  C   UNL     1      49.891   8.085  13.138  0.00  0.00    +0.000 A 
ATOM      4  C   UNL     1      48.566   7.633  13.188  0.00  0.00    +0.000 A 
ATOM      5  C   UNL     1      48.119   6.982  14.345  0.00  0.00    +0.000 A 
ATOM      6  C   UNL     1      48.968   6.810  15.442  0.00  0.00    +0.000 A 
ENDROOT
BRANCH   1   7
ATOM      7  C   UNL     1      51.200   7.110  16.587  0.00  0.00    +0.000 C 
BRANCH   7  10
ATOM      8  O   UNL     1      50.160   5.272  18.420  0.00  0.00    +0.000 OA
ATOM      9  C   UNL     1      51.021   4.892  17.633  0.00  0.00    +0.000 C 
ATOM     10  N   UNL     1      51.624   5.737  16.731  0.00  0.00    +0.000 N 
ATOM     11  H   UNL     1      52.297   5.382  16.061  0.00  0.00    +0.000 HD
BRANCH   9  12
ATOM     12  C   UNL     1      51.477   3.480  17.675  0.00  0.00    +0.000 A 
ATOM     13  C   UNL     1      52.781   3.234  18.132  0.00  0.00    +0.000 A 
ATOM     14  C   UNL     1      53.269   1.930  18.193  0.00  0.00    +0.000 A 
ATOM     15  C   UNL     1      52.433   0.901  17.800  0.00  0.00    +0.000 A 
ATOM     16  N   UNL     1      51.171   1.092  17.366  0.00  0.00    +0.000 NA
ATOM     17  C   UNL     1      50.718   2.372  17.319  0.00  0.00    +0.000 A 
ATOM     18 CL   UNL     1      49.075   2.433  16.804  0.00  0.00    +0.000 Cl
ENDBRANCH   9  12
ENDBRANCH   7  10
ENDBRANCH   1   7
BRANCH   4  19
ATOM     19  C   UNL     1      47.648   7.788  12.001  0.00  0.00    +0.000 C 
BRANCH  19  20
ATOM     20  N   UNL     1      46.928   6.566  11.751  0.00  0.00    +0.000 N 
ATOM     21  C   UNL     1      45.561   6.502  11.818  0.00  0.00    +0.000 C 
ATOM     22  O   UNL     1      44.871   7.492  12.042  0.00  0.00    +0.000 OA
ATOM     23  H   UNL     1      47.467   5.708  11.805  0.00  0.00    +0.000 HD
BRANCH  21  24
ATOM     24  C   UNL     1      44.961   5.191  11.536  0.00  0.00    +0.000 A 
ATOM     25  C   UNL     1      44.248   4.528  12.525  0.00  0.00    +0.000 A 
ATOM     26  S   UNL     1      43.550   3.062  11.998  0.00  0.00    +0.000 S 
ATOM     27  C   UNL     1      44.223   3.236  10.446  0.00  0.00    +0.000 A 
ATOM     28  N   UNL     1      44.015   2.297   9.483  0.00  0.00    +0.000 NA
ATOM     29  C   UNL     1      44.611   2.541   8.363  0.00  0.00    +0.000 A 
ATOM     30  N   UNL     1      45.397   3.637   8.118  0.00  0.00    +0.000 N 
ATOM     31  C   UNL     1      45.620   4.618   9.054  0.00  0.00    +0.000 A 
ATOM     32  O   UNL     1      46.313   5.597   8.794  0.00  0.00    +0.000 OA
ATOM     33  C   UNL     1      44.967   4.396  10.330  0.00  0.00    +0.000 A 
ATOM     34  H   UNL     1      45.838   3.769   7.221  0.00  0.00    +0.000 HD
ENDBRANCH  21  24
ENDBRANCH  19  20
ENDBRANCH   4  19
TORSDOF 6
ENDMDL
MODEL 4
REMARK VINA RESULT:    -7.282      4.072      8.606
REMARK INTER + INTRA:         -10.824
REMARK INTER:                  -9.773
REMARK INTRA:                  -1.051
REMARK UNBOUND:                -0.988
REMARK  Name = 
REMARK  6 active torsions:
REMARK  status: ('A' for Active; 'I' for Inactive)
REMARK    1  A    between atoms: C_2  and  C_25
REMARK    2  A    between atoms: N_3  and  C_4
REMARK    3  A    between atoms: C_4  and  C_5
REMARK    4  A    between atoms: C_8  and  C_9
REMARK    5  A    between atoms: C_9  and  N_10
REMARK    6  A    between atoms: C_11  and  C_13
REMARK                            x       y       z     vdW  Elec       q    Type
REMARK                         _______ _______ _______ _____ _____    ______ ____
ROOT
ATOM      1  C   UNL     1      49.900   7.413  15.783  0.00  0.00    +0.000 A 
ATOM      2  C   UNL     1      50.188   8.573  15.053  0.00  0.00    +0.000 A 
ATOM      3  C   UNL     1      49.478   8.879  13.888  0.00  0.00    +0.000 A 
ATOM      4  C   UNL     1      48.447   8.042  13.441  0.00  0.00    +0.000 A 
ATOM      5  C   UNL     1      48.163   6.878  14.167  0.00  0.00    +0.000 A 
ATOM      6  C   UNL     1      48.872   6.570  15.332  0.00  0.00    +0.000 A 
ENDROOT
BRANCH   1   7
ATOM      7  C   UNL     1      50.645   7.096  17.053  0.00  0.00    +0.000 C 
BRANCH   7  10
ATOM      8  O   UNL     1      49.963   5.071  18.857  0.00  0.00    +0.000 OA
ATOM      9  C   UNL     1      50.725   4.802  17.932  0.00  0.00    +0.000 C 
ATOM     10  N   UNL     1      51.154   5.745  17.028  0.00  0.00    +0.000 N 
ATOM     11  H   UNL     1      51.743   5.482  16.247  0.00  0.00    +0.000 HD
BRANCH   9  12
ATOM     12  C   UNL     1      51.252   3.420  17.800  0.00  0.00    +0.000 A 
ATOM     13  C   UNL     1      52.559   3.181  18.253  0.00  0.00    +0.000 A 
ATOM     14  C   UNL     1      53.113   1.905  18.153  0.00  0.00    +0.000 A 
ATOM     15  C   UNL     1      52.339   0.897  17.607  0.00  0.00    +0.000 A 
ATOM     16  N   UNL     1      51.076   1.083  17.170  0.00  0.00    +0.000 NA
ATOM     17  C   UNL     1      50.559   2.334  17.281  0.00  0.00    +0.000 A 
ATOM     18 CL   UNL     1      48.925   2.382  16.737  0.00  0.00    +0.000 Cl
ENDBRANCH   9  12
ENDBRANCH   7  10
ENDBRANCH   1   7
BRANCH   4  19
ATOM     19  C   UNL     1      47.693   8.349  12.172  0.00  0.00    +0.000 C 
BRANCH  19  20
ATOM     20  N   UNL     1      47.136   7.148  11.608  0.00  0.00    +0.000 N 
ATOM     21  C   UNL     1      45.806   7.042  11.295  0.00  0.00    +0.000 C 
ATOM     22  O   UNL     1      45.026   7.980  11.428  0.00  0.00    +0.000 OA
ATOM     23  H   UNL     1      47.688   6.303  11.713  0.00  0.00    +0.000 HD
BRANCH  21  24
ATOM     24  C   UNL     1      45.376   5.758  10.722  0.00  0.00    +0.000 A 
ATOM     25  C   UNL     1      45.692   5.446   9.407  0.00  0.00    +0.000 A 
ATOM     26  S   UNL     1      45.190   3.884   8.936  0.00  0.00    +0.000 S 
ATOM     27  C   UNL     1      44.483   3.593  10.456  0.00  0.00    +0.000 A 
ATOM     28  N   UNL     1      43.857   2.415  10.724  0.00  0.00    +0.000 NA
ATOM     29  C   UNL     1      43.338   2.343  11.906  0.00  0.00    +0.000 A 
ATOM     30  N   UNL     1      43.388   3.342  12.843  0.00  0.00    +0.000 N 
ATOM     31  C   UNL     1      44.025   4.539  12.623  0.00  0.00    +0.000 A 
ATOM     32  O   UNL     1      44.068   5.404  13.492  0.00  0.00    +0.000 OA
ATOM     33  C   UNL     1      44.630   4.671  11.311  0.00  0.00    +0.000 A 
ATOM     34  H   UNL     1      42.962   3.225  13.749  0.00  0.00    +0.000 HD
ENDBRANCH  21  24
ENDBRANCH  19  20
ENDBRANCH   4  19
TORSDOF 6
ENDMDL
MODEL 5
REMARK VINA RESULT:    -7.022      2.073      3.045
REMARK INTER + INTRA:         -10.473
REMARK INTER:                  -9.666
REMARK INTRA:                  -0.807
REMARK UNBOUND:                -0.988
REMARK  Name = 
REMARK  6 active torsions:
REMARK  status: ('A' for Active; 'I' for Inactive)
REMARK    1  A    between atoms: C_2  and  C_25
REMARK    2  A    between atoms: N_3  and  C_4
REMARK    3  A    between atoms: C_4  and  C_5
REMARK    4  A    between atoms: C_8  and  C_9
REMARK    5  A    between atoms: C_9  and  N_10
REMARK    6  A    between atoms: C_11  and  C_13
REMARK                            x       y       z     vdW  Elec       q    Type
REMARK                         _______ _______ _______ _____ _____    ______ ____
ROOT
ATOM      1  C   UNL     1      45.814   4.088   8.604  0.00  0.00    +0.000 A 
ATOM      2  C   UNL     1      45.312   2.923   9.198  0.00  0.00    +0.000 A 
ATOM      3  C   UNL     1      44.863   2.932  10.522  0.00  0.00    +0.000 A 
ATOM      4  C   UNL     1      44.883   4.114  11.273  0.00  0.00    +0.000 A 
ATOM      5  C   UNL     1      45.390   5.279  10.682  0.00  0.00    +0.000 A 
ATOM      6  C   UNL     1      45.841   5.271   9.359  0.00  0.00    +0.000 A 
ENDROOT
BRANCH   1   7
ATOM      7  C   UNL     1      46.273   4.087   7.170  0.00  0.00    +0.000 C 
BRANCH   7  10
ATOM      8  O   UNL     1      47.815   3.129   5.043  0.00  0.00    +0.000 OA
ATOM      9  C   UNL     1      47.024   2.364   5.586  0.00  0.00    +0.000 C 
ATOM     10  N   UNL     1      46.190   2.761   6.604  0.00  0.00    +0.000 N 
ATOM     11  H   UNL     1      45.582   2.093   7.064  0.00  0.00    +0.000 HD
BRANCH   9  12
ATOM     12  C   UNL     1      46.914   0.965   5.102  0.00  0.00    +0.000 A 
ATOM     13  C   UNL     1      46.904   0.759   3.713  0.00  0.00    +0.000 A 
ATOM     14  C   UNL     1      46.800  -0.530   3.195  0.00  0.00    +0.000 A 
ATOM     15  C   UNL     1      46.715  -1.587   4.085  0.00  0.00    +0.000 A 
ATOM     16  N   UNL     1      46.732  -1.434   5.424  0.00  0.00    +0.000 NA
ATOM     17  C   UNL     1      46.837  -0.168   5.903  0.00  0.00    +0.000 A 
ATOM     18 CL   UNL     1      46.906  -0.156   7.625  0.00  0.00    +0.000 Cl
ENDBRANCH   9  12
ENDBRANCH   7  10
ENDBRANCH   1   7
BRANCH   4  19
ATOM     19  C   UNL     1      44.425   4.128  12.710  0.00  0.00    +0.000 C 
BRANCH  19  20
ATOM     20  N   UNL     1      45.373   4.827  13.540  0.00  0.00    +0.000 N 
ATOM     21  C   UNL     1      46.508   4.222  14.012  0.00  0.00    +0.000 C 
ATOM     22  O   UNL     1      46.808   3.070  13.714  0.00  0.00    +0.000 OA
ATOM     23  H   UNL     1      45.039   5.674  13.989  0.00  0.00    +0.000 HD
BRANCH  21  24
ATOM     24  C   UNL     1      47.387   5.056  14.844  0.00  0.00    +0.000 A 
ATOM     25  C   UNL     1      48.099   6.100  14.269  0.00  0.00    +0.000 A 
ATOM     26  S   UNL     1      49.000   7.014  15.394  0.00  0.00    +0.000 S 
ATOM     27  C   UNL     1      48.515   6.011  16.680  0.00  0.00    +0.000 A 
ATOM     28  N   UNL     1      48.948   6.241  17.949  0.00  0.00    +0.000 NA
ATOM     29  C   UNL     1      48.527   5.384  18.820  0.00  0.00    +0.000 A 
ATOM     30  N   UNL     1      47.713   4.318  18.536  0.00  0.00    +0.000 N 
ATOM     31  C   UNL     1      47.236   4.059  17.274  0.00  0.00    +0.000 A 
ATOM     32  O   UNL     1      46.492   3.108  17.060  0.00  0.00    +0.000 OA
ATOM     33  C   UNL     1      47.676   4.996  16.257  0.00  0.00    +0.000 A 
ATOM     34  H   UNL     1      47.419   3.682  19.262  0.00  0.00    +0.000 HD
ENDBRANCH  21  24
ENDBRANCH  19  20
ENDBRANCH   4  19
TORSDOF 6
ENDMDL
MODEL 6
REMARK VINA RESULT:    -6.823      3.334      4.898
REMARK INTER + INTRA:         -10.204
REMARK INTER:                  -9.167
REMARK INTRA:                  -1.037
REMARK UNBOUND:                -0.988
REMARK  Name = 
REMARK  6 active torsions:
REMARK  status: ('A' for Active; 'I' for Inactive)
REMARK    1  A    between atoms: C_2  and  C_25
REMARK    2  A    between atoms: N_3  and  C_4
REMARK    3  A    between atoms: C_4  and  C_5
REMARK    4  A    between atoms: C_8  and  C_9
REMARK    5  A    between atoms: C_9  and  N_10
REMARK    6  A    between atoms: C_11  and  C_13
REMARK                            x       y       z     vdW  Elec       q    Type
REMARK                         _______ _______ _______ _____ _____    ______ ____
ROOT
ATOM      1  C   UNL     1      47.864   7.812  13.335  0.00  0.00    +0.000 A 
ATOM      2  C   UNL     1      48.021   8.973  14.103  0.00  0.00    +0.000 A 
ATOM      3  C   UNL     1      48.437   8.898  15.436  0.00  0.00    +0.000 A 
ATOM      4  C   UNL     1      48.728   7.659  16.022  0.00  0.00    +0.000 A 
ATOM      5  C   UNL     1      48.565   6.496  15.257  0.00  0.00    +0.000 A 
ATOM      6  C   UNL     1      48.149   6.571  13.924  0.00  0.00    +0.000 A 
ENDROOT
BRANCH   1   7
ATOM      7  C   UNL     1      47.444   7.893  11.892  0.00  0.00    +0.000 C 
BRANCH   7  10
ATOM      8  O   UNL     1      44.747   7.310  11.432  0.00  0.00    +0.000 OA
ATOM      9  C   UNL     1      45.585   6.445  11.192  0.00  0.00    +0.000 C 
ATOM     10  N   UNL     1      46.926   6.625  11.434  0.00  0.00    +0.000 N 
ATOM     11  H   UNL     1      47.598   5.911  11.180  0.00  0.00    +0.000 HD
BRANCH   9  12
ATOM     12  C   UNL     1      45.144   5.129  10.665  0.00  0.00    +0.000 A 
ATOM     13  C   UNL     1      45.477   4.819   9.337  0.00  0.00    +0.000 A 
ATOM     14  C   UNL     1      45.088   3.600   8.783  0.00  0.00    +0.000 A 
ATOM     15  C   UNL     1      44.380   2.717   9.578  0.00  0.00    +0.000 A 
ATOM     16  N   UNL     1      44.050   2.971  10.860  0.00  0.00    +0.000 NA
ATOM     17  C   UNL     1      44.442   4.164  11.377  0.00  0.00    +0.000 A 
ATOM     18 CL   UNL     1      43.995   4.301  13.036  0.00  0.00    +0.000 Cl
ENDBRANCH   9  12
ENDBRANCH   7  10
ENDBRANCH   1   7
BRANCH   4  19
ATOM     19  C   UNL     1      49.151   7.565  17.467  0.00  0.00    +0.000 C 
BRANCH  19  20
ATOM     20  N   UNL     1      50.199   6.590  17.628  0.00  0.00    +0.000 N 
ATOM     21  C   UNL     1      50.195   5.682  18.654  0.00  0.00    +0.000 C 
ATOM     22  O   UNL     1      49.273   5.613  19.462  0.00  0.00    +0.000 OA
ATOM     23  H   UNL     1      51.067   6.778  17.136  0.00  0.00    +0.000 HD
BRANCH  21  24
ATOM     24  C   UNL     1      51.325   4.744  18.692  0.00  0.00    +0.000 A 
ATOM     25  C   UNL     1      52.497   5.098  19.345  0.00  0.00    +0.000 A 
ATOM     26  S   UNL     1      53.670   3.858  19.364  0.00  0.00    +0.000 S 
ATOM     27  C   UNL     1      52.673   2.826  18.450  0.00  0.00    +0.000 A 
ATOM     28  N   UNL     1      53.090   1.579  18.100  0.00  0.00    +0.000 NA
ATOM     29  C   UNL     1      52.246   0.917  17.380  0.00  0.00    +0.000 A 
ATOM     30  N   UNL     1      51.023   1.389  16.978  0.00  0.00    +0.000 N 
ATOM     31  C   UNL     1      50.554   2.633  17.324  0.00  0.00    +0.000 A 
ATOM     32  O   UNL     1      49.445   3.015  16.963  0.00  0.00    +0.000 OA
ATOM     33  C   UNL     1      51.463   3.418  18.138  0.00  0.00    +0.000 A 
ATOM     34  H   UNL     1      50.408   0.822  16.414  0.00  0.00    +0.000 HD
ENDBRANCH  21  24
ENDBRANCH  19  20
ENDBRANCH   4  19
TORSDOF 6
ENDMDL
MODEL 7
REMARK VINA RESULT:    -6.784      5.358      7.743
REMARK INTER + INTRA:         -10.151
REMARK INTER:                  -9.248
REMARK INTRA:                  -0.904
REMARK UNBOUND:                -0.988
REMARK  Name = 
REMARK  6 active torsions:
REMARK  status: ('A' for Active; 'I' for Inactive)
REMARK    1  A    between atoms: C_2  and  C_25
REMARK    2  A    between atoms: N_3  and  C_4
REMARK    3  A    between atoms: C_4  and  C_5
REMARK    4  A    between atoms: C_8  and  C_9
REMARK    5  A    between atoms: C_9  and  N_10
REMARK    6  A    between atoms: C_11  and  C_13
REMARK                            x       y       z     vdW  Elec       q    Type
REMARK                         _______ _______ _______ _____ _____    ______ ____
ROOT
ATOM      1  C   UNL     1      44.754   9.149  11.844  0.00  0.00    +0.000 A 
ATOM      2  C   UNL     1      45.874   9.080  12.682  0.00  0.00    +0.000 A 
ATOM      3  C   UNL     1      46.429   7.845  13.034  0.00  0.00    +0.000 A 
ATOM      4  C   UNL     1      45.888   6.653  12.534  0.00  0.00    +0.000 A 
ATOM      5  C   UNL     1      44.764   6.720  11.700  0.00  0.00    +0.000 A 
ATOM      6  C   UNL     1      44.208   7.954  11.348  0.00  0.00    +0.000 A 
ENDROOT
BRANCH   1   7
ATOM      7  C   UNL     1      44.172  10.478  11.442  0.00  0.00    +0.000 C 
BRANCH   7  10
ATOM      8  O   UNL     1      42.463  12.615  12.020  0.00  0.00    +0.000 OA
ATOM      9  C   UNL     1      41.969  11.542  11.682  0.00  0.00    +0.000 C 
ATOM     10  N   UNL     1      42.729  10.425  11.427  0.00  0.00    +0.000 N 
ATOM     11  H   UNL     1      42.296   9.569  11.103  0.00  0.00    +0.000 HD
BRANCH   9  12
ATOM     12  C   UNL     1      40.493  11.417  11.588  0.00  0.00    +0.000 A 
ATOM     13  C   UNL     1      39.963  10.900  10.395  0.00  0.00    +0.000 A 
ATOM     14  C   UNL     1      38.584  10.760  10.243  0.00  0.00    +0.000 A 
ATOM     15  C   UNL     1      37.769  11.136  11.296  0.00  0.00    +0.000 A 
ATOM     16  N   UNL     1      38.238  11.626  12.461  0.00  0.00    +0.000 NA
ATOM     17  C   UNL     1      39.585  11.749  12.585  0.00  0.00    +0.000 A 
ATOM     18 CL   UNL     1      40.017  12.329  14.149  0.00  0.00    +0.000 Cl
ENDBRANCH   9  12
ENDBRANCH   7  10
ENDBRANCH   1   7
BRANCH   4  19
ATOM     19  C   UNL     1      46.463   5.316  12.929  0.00  0.00    +0.000 C 
BRANCH  19  20
ATOM     20  N   UNL     1      46.963   5.355  14.279  0.00  0.00    +0.000 N 
ATOM     21  C   UNL     1      47.347   4.221  14.944  0.00  0.00    +0.000 C 
ATOM     22  O   UNL     1      47.336   3.115  14.412  0.00  0.00    +0.000 OA
ATOM     23  H   UNL     1      46.758   6.196  14.810  0.00  0.00    +0.000 HD
BRANCH  21  24
ATOM     24  C   UNL     1      47.841   4.411  16.315  0.00  0.00    +0.000 A 
ATOM     25  C   UNL     1      47.359   3.612  17.342  0.00  0.00    +0.000 A 
ATOM     26  S   UNL     1      48.104   3.912  18.849  0.00  0.00    +0.000 S 
ATOM     27  C   UNL     1      49.055   5.161  18.191  0.00  0.00    +0.000 A 
ATOM     28  N   UNL     1      49.928   5.858  18.967  0.00  0.00    +0.000 NA
ATOM     29  C   UNL     1      50.561   6.798  18.345  0.00  0.00    +0.000 A 
ATOM     30  N   UNL     1      50.399   7.103  17.018  0.00  0.00    +0.000 N 
ATOM     31  C   UNL     1      49.543   6.414  16.194  0.00  0.00    +0.000 A 
ATOM     32  O   UNL     1      49.438   6.702  15.006  0.00  0.00    +0.000 OA
ATOM     33  C   UNL     1      48.810   5.343  16.842  0.00  0.00    +0.000 A 
ATOM     34  H   UNL     1      50.923   7.852  16.591  0.00  0.00    +0.000 HD
ENDBRANCH  21  24
ENDBRANCH  19  20
ENDBRANCH   4  19
TORSDOF 6
ENDMDL
MODEL 8
REMARK VINA RESULT:    -6.739      5.483      7.647
REMARK INTER + INTRA:         -10.091
REMARK INTER:                  -9.082
REMARK INTRA:                  -1.010
REMARK UNBOUND:                -0.988
REMARK  Name = 
REMARK  6 active torsions:
REMARK  status: ('A' for Active; 'I' for Inactive)
REMARK    1  A    between atoms: C_2  and  C_25
REMARK    2  A    between atoms: N_3  and  C_4
REMARK    3  A    between atoms: C_4  and  C_5
REMARK    4  A    between atoms: C_8  and  C_9
REMARK    5  A    between atoms: C_9  and  N_10
REMARK    6  A    between atoms: C_11  and  C_13
REMARK                            x       y       z     vdW  Elec       q    Type
REMARK                         _______ _______ _______ _____ _____    ______ ____
ROOT
ATOM      1  C   UNL     1      47.967   7.092  12.991  0.00  0.00    +0.000 A 
ATOM      2  C   UNL     1      48.995   7.226  13.932  0.00  0.00    +0.000 A 
ATOM      3  C   UNL     1      50.241   7.745  13.561  0.00  0.00    +0.000 A 
ATOM      4  C   UNL     1      50.475   8.162  12.244  0.00  0.00    +0.000 A 
ATOM      5  C   UNL     1      49.449   8.022  11.300  0.00  0.00    +0.000 A 
ATOM      6  C   UNL     1      48.204   7.503  11.670  0.00  0.00    +0.000 A 
ENDROOT
BRANCH   1   7
ATOM      7  C   UNL     1      46.618   6.560  13.394  0.00  0.00    +0.000 C 
BRANCH   7  10
ATOM      8  O   UNL     1      44.709   6.807  11.365  0.00  0.00    +0.000 OA
ATOM      9  C   UNL     1      45.281   5.729  11.506  0.00  0.00    +0.000 C 
ATOM     10  N   UNL     1      46.195   5.501  12.507  0.00  0.00    +0.000 N 
ATOM     11  H   UNL     1      46.686   4.617  12.567  0.00  0.00    +0.000 HD
BRANCH   9  12
ATOM     12  C   UNL     1      44.946   4.602  10.600  0.00  0.00    +0.000 A 
ATOM     13  C   UNL     1      45.419   4.671   9.280  0.00  0.00    +0.000 A 
ATOM     14  C   UNL     1      45.135   3.646   8.379  0.00  0.00    +0.000 A 
ATOM     15  C   UNL     1      44.389   2.570   8.826  0.00  0.00    +0.000 A 
ATOM     16  N   UNL     1      43.925   2.460  10.087  0.00  0.00    +0.000 NA
ATOM     17  C   UNL     1      44.218   3.471  10.946  0.00  0.00    +0.000 A 
ATOM     18 CL   UNL     1      43.606   3.144  12.524  0.00  0.00    +0.000 Cl
ENDBRANCH   9  12
ENDBRANCH   7  10
ENDBRANCH   1   7
BRANCH   4  19
ATOM     19  C   UNL     1      51.822   8.697  11.828  0.00  0.00    +0.000 C 
BRANCH  19  20
ATOM     20  N   UNL     1      52.138   8.291  10.483  0.00  0.00    +0.000 N 
ATOM     21  C   UNL     1      53.210   8.805   9.802  0.00  0.00    +0.000 C 
ATOM     22  O   UNL     1      53.992   9.600  10.317  0.00  0.00    +0.000 OA
ATOM     23  H   UNL     1      51.393   7.837   9.964  0.00  0.00    +0.000 HD
BRANCH  21  24
ATOM     24  C   UNL     1      53.415   8.297   8.439  0.00  0.00    +0.000 A 
ATOM     25  C   UNL     1      53.473   9.181   7.371  0.00  0.00    +0.000 A 
ATOM     26  S   UNL     1      53.800   8.427   5.876  0.00  0.00    +0.000 S 
ATOM     27  C   UNL     1      53.819   6.885   6.595  0.00  0.00    +0.000 A 
ATOM     28  N   UNL     1      54.042   5.768   5.852  0.00  0.00    +0.000 NA
ATOM     29  C   UNL     1      53.996   4.663   6.522  0.00  0.00    +0.000 A 
ATOM     30  N   UNL     1      53.748   4.576   7.867  0.00  0.00    +0.000 N 
ATOM     31  C   UNL     1      53.536   5.677   8.659  0.00  0.00    +0.000 A 
ATOM     32  O   UNL     1      53.337   5.563   9.865  0.00  0.00    +0.000 OA
ATOM     33  C   UNL     1      53.581   6.946   7.956  0.00  0.00    +0.000 A 
ATOM     34  H   UNL     1      53.724   3.681   8.333  0.00  0.00    +0.000 HD
ENDBRANCH  21  24
ENDBRANCH  19  20
ENDBRANCH   4  19
TORSDOF 6
ENDMDL
