MODEL 1
REMARK VINA RESULT:    -7.491      0.000      0.000
REMARK INTER + INTRA:          -9.074
REMARK INTER:                  -9.243
REMARK INTRA:                   0.170
REMARK UNBOUND:                 0.170
REMARK  Name = 
REMARK  6 active torsions:
REMARK  status: ('A' for Active; 'I' for Inactive)
REMARK    1  A    between atoms: C_1  and  C_2
REMARK    2  A    between atoms: C_2  and  C_3
REMARK    3  A    between atoms: C_2  and  N_10
REMARK    4  A    between atoms: C_3  and  C_4
REMARK    5  A    between atoms: N_10  and  C_11
REMARK    6  A    between atoms: C_12  and  C_14
REMARK                            x       y       z     vdW  Elec       q    Type
REMARK                         _______ _______ _______ _____ _____    ______ ____
ROOT
ATOM      1  N   UNL     1      44.959   5.201  10.389  0.00  0.00    +0.000 N 
ATOM      2  C   UNL     1      46.033   5.764   9.564  0.00  0.00    +0.000 C 
ATOM      3  C   UNL     1      44.264   6.049  11.296  0.00  0.00    +0.000 C 
ATOM      4  O   UNL     1      43.120   5.808  11.666  0.00  0.00    +0.000 OA
ENDROOT
BRANCH   3   5
ATOM      5  C   UNL     1      44.944   7.231  11.846  0.00  0.00    +0.000 A 
ATOM      6  C   UNL     1      44.721   8.528  11.413  0.00  0.00    +0.000 A 
ATOM      7  S   UNL     1      45.594   9.699  12.294  0.00  0.00    +0.000 S 
ATOM      8  C   UNL     1      46.446   8.504  13.145  0.00  0.00    +0.000 A 
ATOM      9  N   UNL     1      47.414   8.844  14.039  0.00  0.00    +0.000 NA
ATOM     10  C   UNL     1      48.045   7.839  14.547  0.00  0.00    +0.000 A 
ATOM     11  N   UNL     1      47.786   6.528  14.250  0.00  0.00    +0.000 N 
ATOM     12  C   UNL     1      46.789   6.124  13.389  0.00  0.00    +0.000 A 
ATOM     13  O   UNL     1      46.592   4.930  13.202  0.00  0.00    +0.000 OA
ATOM     14  C   UNL     1      46.056   7.227  12.782  0.00  0.00    +0.000 A 
ATOM     15  H   UNL     1      48.317   5.784  14.677  0.00  0.00    +0.000 HD
ENDBRANCH   3   5
BRANCH   1  17
ATOM     16  C   UNL     1      44.490   2.672  10.586  0.00  0.00    +0.000 C 
ATOM     17  C   UNL     1      44.240   4.004   9.841  0.00  0.00    +0.000 C 
BRANCH  17  18
ATOM     18  C   UNL     1      44.465   3.749   8.318  0.00  0.00    +0.000 C 
BRANCH  18  19
ATOM     19  C   UNL     1      45.636   2.889   7.880  0.00  0.00    +0.000 A 
ATOM     20  C   UNL     1      45.821   1.558   8.277  0.00  0.00    +0.000 A 
ATOM     21  C   UNL     1      46.841   0.780   7.728  0.00  0.00    +0.000 A 
ATOM     22  C   UNL     1      47.711   1.329   6.793  0.00  0.00    +0.000 A 
ATOM     23  C   UNL     1      47.585   2.667   6.435  0.00  0.00    +0.000 A 
ATOM     24  C   UNL     1      46.558   3.443   6.977  0.00  0.00    +0.000 A 
ENDBRANCH  18  19
ENDBRANCH  17  18
ENDBRANCH   1  17
TORSDOF 4
ENDMDL
MODEL 2
REMARK VINA RESULT:    -7.214      1.470      2.169
REMARK INTER + INTRA:          -8.731
REMARK INTER:                  -8.946
REMARK INTRA:                   0.215
REMARK UNBOUND:                 0.170
REMARK  Name = 
REMARK  6 active torsions:
REMARK  status: ('A' for Active; 'I' for Inactive)
REMARK    1  A    between atoms: C_1  and  C_2
REMARK    2  A    between atoms: C_2  and  C_3
REMARK    3  A    between atoms: C_2  and  N_10
REMARK    4  A    between atoms: C_3  and  C_4
REMARK    5  A    between atoms: N_10  and  C_11
REMARK    6  A    between atoms: C_12  and  C_14
REMARK                            x       y       z     vdW  Elec       q    Type
REMARK                         _______ _______ _______ _____ _____    ______ ____
ROOT
ATOM      1  N   UNL     1      45.340   5.030  10.687  0.00  0.00    +0.000 N 
ATOM      2  C   UNL     1      46.194   5.814   9.789  0.00  0.00    +0.000 C 
ATOM      3  C   UNL     1      45.182   5.449  12.037  0.00  0.00    +0.000 C 
ATOM      4  O   UNL     1      44.192   5.156  12.698  0.00  0.00    +0.000 OA
ENDROOT
BRANCH   3   5
ATOM      5  C   UNL     1      46.253   6.223  12.683  0.00  0.00    +0.000 A 
ATOM      6  C   UNL     1      47.188   5.682  13.551  0.00  0.00    +0.000 A 
ATOM      7  S   UNL     1      48.357   6.805  14.077  0.00  0.00    +0.000 S 
ATOM      8  C   UNL     1      47.542   8.090  13.327  0.00  0.00    +0.000 A 
ATOM      9  N   UNL     1      47.998   9.366  13.444  0.00  0.00    +0.000 NA
ATOM     10  C   UNL     1      47.236  10.256  12.902  0.00  0.00    +0.000 A 
ATOM     11  N   UNL     1      46.067   9.982  12.246  0.00  0.00    +0.000 N 
ATOM     12  C   UNL     1      45.580   8.706  12.057  0.00  0.00    +0.000 A 
ATOM     13  O   UNL     1      44.544   8.535  11.426  0.00  0.00    +0.000 OA
ATOM     14  C   UNL     1      46.404   7.668  12.662  0.00  0.00    +0.000 A 
ATOM     15  H   UNL     1      45.509  10.721  11.846  0.00  0.00    +0.000 HD
ENDBRANCH   3   5
BRANCH   1  17
ATOM     16  C   UNL     1      43.887   2.898  10.733  0.00  0.00    +0.000 C 
ATOM     17  C   UNL     1      44.231   4.243  10.052  0.00  0.00    +0.000 C 
BRANCH  17  18
ATOM     18  C   UNL     1      44.415   3.973   8.526  0.00  0.00    +0.000 C 
BRANCH  18  19
ATOM     19  C   UNL     1      45.523   3.042   8.071  0.00  0.00    +0.000 A 
ATOM     20  C   UNL     1      45.653   1.713   8.495  0.00  0.00    +0.000 A 
ATOM     21  C   UNL     1      46.611   0.869   7.933  0.00  0.00    +0.000 A 
ATOM     22  C   UNL     1      47.475   1.349   6.954  0.00  0.00    +0.000 A 
ATOM     23  C   UNL     1      47.406   2.683   6.566  0.00  0.00    +0.000 A 
ATOM     24  C   UNL     1      46.440   3.525   7.123  0.00  0.00    +0.000 A 
ENDBRANCH  18  19
ENDBRANCH  17  18
ENDBRANCH   1  17
TORSDOF 4
ENDMDL
MODEL 3
REMARK VINA RESULT:    -6.972      2.118      2.978
REMARK INTER + INTRA:          -8.432
REMARK INTER:                  -9.167
REMARK INTRA:                   0.735
REMARK UNBOUND:                 0.170
REMARK  Name = 
REMARK  6 active torsions:
REMARK  status: ('A' for Active; 'I' for Inactive)
REMARK    1  A    between atoms: C_1  and  C_2
REMARK    2  A    between atoms: C_2  and  C_3
REMARK    3  A    between atoms: C_2  and  N_10
REMARK    4  A    between atoms: C_3  and  C_4
REMARK    5  A    between atoms: N_10  and  C_11
REMARK    6  A    between atoms: C_12  and  C_14
REMARK                            x       y       z     vdW  Elec       q    Type
REMARK                         _______ _______ _______ _____ _____    ______ ____
ROOT
ATOM      1  N   UNL     1      44.873   5.257  12.427  0.00  0.00    +0.000 N 
ATOM      2  C   UNL     1      44.506   6.602  12.878  0.00  0.00    +0.000 C 
ATOM      3  C   UNL     1      46.042   4.641  12.958  0.00  0.00    +0.000 C 
ATOM      4  O   UNL     1      46.174   3.423  13.000  0.00  0.00    +0.000 OA
ENDROOT
BRANCH   3   5
ATOM      5  C   UNL     1      47.149   5.484  13.434  0.00  0.00    +0.000 A 
ATOM      6  C   UNL     1      47.889   6.327  12.620  0.00  0.00    +0.000 A 
ATOM      7  S   UNL     1      49.053   7.240  13.468  0.00  0.00    +0.000 S 
ATOM      8  C   UNL     1      48.745   6.400  14.909  0.00  0.00    +0.000 A 
ATOM      9  N   UNL     1      49.462   6.663  16.035  0.00  0.00    +0.000 NA
ATOM     10  C   UNL     1      49.189   5.890  17.032  0.00  0.00    +0.000 A 
ATOM     11  N   UNL     1      48.257   4.889  17.007  0.00  0.00    +0.000 N 
ATOM     12  C   UNL     1      47.470   4.608  15.911  0.00  0.00    +0.000 A 
ATOM     13  O   UNL     1      46.629   3.720  15.976  0.00  0.00    +0.000 OA
ATOM     14  C   UNL     1      47.751   5.449  14.755  0.00  0.00    +0.000 A 
ATOM     15  H   UNL     1      48.090   4.313  17.819  0.00  0.00    +0.000 HD
ENDBRANCH   3   5
BRANCH   1  17
ATOM     16  C   UNL     1      43.805   2.908  12.444  0.00  0.00    +0.000 C 
ATOM     17  C   UNL     1      43.759   4.373  11.950  0.00  0.00    +0.000 C 
BRANCH  17  18
ATOM     18  C   UNL     1      43.563   4.349  10.402  0.00  0.00    +0.000 C 
BRANCH  18  19
ATOM     19  C   UNL     1      44.610   3.673   9.537  0.00  0.00    +0.000 A 
ATOM     20  C   UNL     1      44.796   2.286   9.473  0.00  0.00    +0.000 A 
ATOM     21  C   UNL     1      45.680   1.721   8.554  0.00  0.00    +0.000 A 
ATOM     22  C   UNL     1      46.416   2.536   7.701  0.00  0.00    +0.000 A 
ATOM     23  C   UNL     1      46.294   3.919   7.793  0.00  0.00    +0.000 A 
ATOM     24  C   UNL     1      45.401   4.484   8.707  0.00  0.00    +0.000 A 
ENDBRANCH  18  19
ENDBRANCH  17  18
ENDBRANCH   1  17
TORSDOF 4
ENDMDL
MODEL 4
REMARK VINA RESULT:    -6.810      4.408      7.574
REMARK INTER + INTRA:          -8.232
REMARK INTER:                  -8.195
REMARK INTRA:                  -0.037
REMARK UNBOUND:                 0.170
REMARK  Name = 
REMARK  6 active torsions:
REMARK  status: ('A' for Active; 'I' for Inactive)
REMARK    1  A    between atoms: C_1  and  C_2
REMARK    2  A    between atoms: C_2  and  C_3
REMARK    3  A    between atoms: C_2  and  N_10
REMARK    4  A    between atoms: C_3  and  C_4
REMARK    5  A    between atoms: N_10  and  C_11
REMARK    6  A    between atoms: C_12  and  C_14
REMARK                            x       y       z     vdW  Elec       q    Type
REMARK                         _______ _______ _______ _____ _____    ______ ____
ROOT
ATOM      1  N   UNL     1      47.741   4.746  15.730  0.00  0.00    +0.000 N 
ATOM      2  C   UNL     1      48.315   6.074  15.965  0.00  0.00    +0.000 C 
ATOM      3  C   UNL     1      47.380   4.369  14.406  0.00  0.00    +0.000 C 
ATOM      4  O   UNL     1      47.334   3.196  14.053  0.00  0.00    +0.000 OA
ENDROOT
BRANCH   3   5
ATOM      5  C   UNL     1      47.009   5.409  13.436  0.00  0.00    +0.000 A 
ATOM      6  C   UNL     1      47.836   6.458  13.066  0.00  0.00    +0.000 A 
ATOM      7  S   UNL     1      47.166   7.460  11.860  0.00  0.00    +0.000 S 
ATOM      8  C   UNL     1      45.678   6.649  11.934  0.00  0.00    +0.000 A 
ATOM      9  N   UNL     1      44.625   7.057  11.176  0.00  0.00    +0.000 NA
ATOM     10  C   UNL     1      43.529   6.412  11.396  0.00  0.00    +0.000 A 
ATOM     11  N   UNL     1      43.396   5.390  12.296  0.00  0.00    +0.000 N 
ATOM     12  C   UNL     1      44.438   4.905  13.057  0.00  0.00    +0.000 A 
ATOM     13  O   UNL     1      44.252   3.961  13.815  0.00  0.00    +0.000 OA
ATOM     14  C   UNL     1      45.695   5.611  12.849  0.00  0.00    +0.000 A 
ATOM     15  H   UNL     1      42.511   4.925  12.428  0.00  0.00    +0.000 HD
ENDBRANCH   3   5
BRANCH   1  17
ATOM     16  C   UNL     1      46.948   3.035  17.492  0.00  0.00    +0.000 C 
ATOM     17  C   UNL     1      48.118   3.664  16.699  0.00  0.00    +0.000 C 
BRANCH  17  18
ATOM     18  C   UNL     1      49.227   4.063  17.722  0.00  0.00    +0.000 C 
BRANCH  18  19
ATOM     19  C   UNL     1      50.543   3.308  17.715  0.00  0.00    +0.000 A 
ATOM     20  C   UNL     1      51.755   3.845  18.167  0.00  0.00    +0.000 A 
ATOM     21  C   UNL     1      52.900   3.054  18.264  0.00  0.00    +0.000 A 
ATOM     22  C   UNL     1      52.859   1.717  17.881  0.00  0.00    +0.000 A 
ATOM     23  C   UNL     1      51.682   1.182  17.368  0.00  0.00    +0.000 A 
ATOM     24  C   UNL     1      50.533   1.973  17.281  0.00  0.00    +0.000 A 
ENDBRANCH  18  19
ENDBRANCH  17  18
ENDBRANCH   1  17
TORSDOF 4
ENDMDL
MODEL 5
REMARK VINA RESULT:    -6.767      4.315      6.210
REMARK INTER + INTRA:          -8.180
REMARK INTER:                  -8.099
REMARK INTRA:                  -0.081
REMARK UNBOUND:                 0.170
REMARK  Name = 
REMARK  6 active torsions:
REMARK  status: ('A' for Active; 'I' for Inactive)
REMARK    1  A    between atoms: C_1  and  C_2
REMARK    2  A    between atoms: C_2  and  C_3
REMARK    3  A    between atoms: C_2  and  N_10
REMARK    4  A    between atoms: C_3  and  C_4
REMARK    5  A    between atoms: N_10  and  C_11
REMARK    6  A    between atoms: C_12  and  C_14
REMARK                            x       y       z     vdW  Elec       q    Type
REMARK                         _______ _______ _______ _____ _____    ______ ____
ROOT
ATOM      1  N   UNL     1      47.421   4.841  15.001  0.00  0.00    +0.000 N 
ATOM      2  C   UNL     1      48.102   6.099  14.683  0.00  0.00    +0.000 C 
ATOM      3  C   UNL     1      47.477   4.337  16.331  0.00  0.00    +0.000 C 
ATOM      4  O   UNL     1      46.613   3.594  16.783  0.00  0.00    +0.000 OA
ENDROOT
BRANCH   3   5
ATOM      5  C   UNL     1      48.624   4.679  17.185  0.00  0.00    +0.000 A 
ATOM      6  C   UNL     1      48.816   5.922  17.767  0.00  0.00    +0.000 A 
ATOM      7  S   UNL     1      50.192   5.997  18.771  0.00  0.00    +0.000 S 
ATOM      8  C   UNL     1      50.686   4.443  18.306  0.00  0.00    +0.000 A 
ATOM      9  N   UNL     1      51.849   3.913  18.772  0.00  0.00    +0.000 NA
ATOM     10  C   UNL     1      52.149   2.763  18.269  0.00  0.00    +0.000 A 
ATOM     11  N   UNL     1      51.386   2.092  17.354  0.00  0.00    +0.000 N 
ATOM     12  C   UNL     1      50.177   2.557  16.882  0.00  0.00    +0.000 A 
ATOM     13  O   UNL     1      49.530   1.882  16.091  0.00  0.00    +0.000 OA
ATOM     14  C   UNL     1      49.802   3.860  17.415  0.00  0.00    +0.000 A 
ATOM     15  H   UNL     1      51.675   1.195  16.992  0.00  0.00    +0.000 HD
ENDBRANCH   3   5
BRANCH   1  17
ATOM     16  C   UNL     1      46.401   3.214  13.277  0.00  0.00    +0.000 C 
ATOM     17  C   UNL     1      46.237   4.477  14.153  0.00  0.00    +0.000 C 
BRANCH  17  18
ATOM     18  C   UNL     1      45.714   5.628  13.238  0.00  0.00    +0.000 C 
BRANCH  18  19
ATOM     19  C   UNL     1      45.236   5.296  11.837  0.00  0.00    +0.000 A 
ATOM     20  C   UNL     1      45.938   5.629  10.671  0.00  0.00    +0.000 A 
ATOM     21  C   UNL     1      45.515   5.174   9.422  0.00  0.00    +0.000 A 
ATOM     22  C   UNL     1      44.364   4.400   9.315  0.00  0.00    +0.000 A 
ATOM     23  C   UNL     1      43.617   4.113  10.453  0.00  0.00    +0.000 A 
ATOM     24  C   UNL     1      44.047   4.561  11.704  0.00  0.00    +0.000 A 
ENDBRANCH  18  19
ENDBRANCH  17  18
ENDBRANCH   1  17
TORSDOF 4
ENDMDL
MODEL 6
REMARK VINA RESULT:    -6.476      3.157      6.923
REMARK INTER + INTRA:          -7.821
REMARK INTER:                  -7.142
REMARK INTRA:                  -0.678
REMARK UNBOUND:                 0.170
REMARK  Name = 
REMARK  6 active torsions:
REMARK  status: ('A' for Active; 'I' for Inactive)
REMARK    1  A    between atoms: C_1  and  C_2
REMARK    2  A    between atoms: C_2  and  C_3
REMARK    3  A    between atoms: C_2  and  N_10
REMARK    4  A    between atoms: C_3  and  C_4
REMARK    5  A    between atoms: N_10  and  C_11
REMARK    6  A    between atoms: C_12  and  C_14
REMARK                            x       y       z     vdW  Elec       q    Type
REMARK                         _______ _______ _______ _____ _____    ______ ____
ROOT
ATOM      1  N   UNL     1      45.939   7.821  11.878  0.00  0.00    +0.000 N 
ATOM      2  C   UNL     1      44.627   8.193  11.339  0.00  0.00    +0.000 C 
ATOM      3  C   UNL     1      46.625   6.703  11.325  0.00  0.00    +0.000 C 
ATOM      4  O   UNL     1      47.845   6.598  11.378  0.00  0.00    +0.000 OA
ENDROOT
BRANCH   3   5
ATOM      5  C   UNL     1      45.853   5.616  10.707  0.00  0.00    +0.000 A 
ATOM      6  C   UNL     1      45.712   5.443   9.340  0.00  0.00    +0.000 A 
ATOM      7  S   UNL     1      44.829   4.046   8.919  0.00  0.00    +0.000 S 
ATOM      8  C   UNL     1      44.438   3.736  10.540  0.00  0.00    +0.000 A 
ATOM      9  N   UNL     1      43.635   2.690  10.874  0.00  0.00    +0.000 NA
ATOM     10  C   UNL     1      43.344   2.622  12.130  0.00  0.00    +0.000 A 
ATOM     11  N   UNL     1      43.793   3.499  13.080  0.00  0.00    +0.000 N 
ATOM     12  C   UNL     1      44.644   4.549  12.807  0.00  0.00    +0.000 A 
ATOM     13  O   UNL     1      45.034   5.270  13.717  0.00  0.00    +0.000 OA
ATOM     14  C   UNL     1      44.992   4.671  11.397  0.00  0.00    +0.000 A 
ATOM     15  H   UNL     1      43.527   3.398  14.048  0.00  0.00    +0.000 HD
ENDBRANCH   3   5
BRANCH   1  17
ATOM     16  C   UNL     1      47.024   8.775  14.016  0.00  0.00    +0.000 C 
ATOM     17  C   UNL     1      46.752   8.918  12.500  0.00  0.00    +0.000 C 
BRANCH  17  18
ATOM     18  C   UNL     1      46.205  10.357  12.248  0.00  0.00    +0.000 C 
BRANCH  18  19
ATOM     19  C   UNL     1      46.794  11.183  11.119  0.00  0.00    +0.000 A 
ATOM     20  C   UNL     1      48.167  11.286  10.860  0.00  0.00    +0.000 A 
ATOM     21  C   UNL     1      48.636  11.948   9.724  0.00  0.00    +0.000 A 
ATOM     22  C   UNL     1      47.739  12.542   8.842  0.00  0.00    +0.000 A 
ATOM     23  C   UNL     1      46.375  12.507   9.117  0.00  0.00    +0.000 A 
ATOM     24  C   UNL     1      45.906  11.836  10.249  0.00  0.00    +0.000 A 
ENDBRANCH  18  19
ENDBRANCH  17  18
ENDBRANCH   1  17
TORSDOF 4
ENDMDL
MODEL 7
REMARK VINA RESULT:    -6.333      2.619      7.744
REMARK INTER + INTRA:          -7.644
REMARK INTER:                  -7.163
REMARK INTRA:                  -0.481
REMARK UNBOUND:                 0.170
REMARK  Name = 
REMARK  6 active torsions:
REMARK  status: ('A' for Active; 'I' for Inactive)
REMARK    1  A    between atoms: C_1  and  C_2
REMARK    2  A    between atoms: C_2  and  C_3
REMARK    3  A    between atoms: C_2  and  N_10
REMARK    4  A    between atoms: C_3  and  C_4
REMARK    5  A    between atoms: N_10  and  C_11
REMARK    6  A    between atoms: C_12  and  C_14
REMARK                            x       y       z     vdW  Elec       q    Type
REMARK                         _______ _______ _______ _____ _____    ______ ____
ROOT
ATOM      1  N   UNL     1      46.937   6.391  12.830  0.00  0.00    +0.000 N 
ATOM      2  C   UNL     1      47.460   5.180  13.470  0.00  0.00    +0.000 C 
ATOM      3  C   UNL     1      45.582   6.416  12.394  0.00  0.00    +0.000 C 
ATOM      4  O   UNL     1      44.954   7.462  12.281  0.00  0.00    +0.000 OA
ENDROOT
BRANCH   3   5
ATOM      5  C   UNL     1      44.920   5.156  12.023  0.00  0.00    +0.000 A 
ATOM      6  C   UNL     1      44.308   4.305  12.929  0.00  0.00    +0.000 A 
ATOM      7  S   UNL     1      43.553   2.963  12.196  0.00  0.00    +0.000 S 
ATOM      8  C   UNL     1      44.185   3.366  10.675  0.00  0.00    +0.000 A 
ATOM      9  N   UNL     1      43.958   2.571   9.594  0.00  0.00    +0.000 NA
ATOM     10  C   UNL     1      44.571   2.944   8.521  0.00  0.00    +0.000 A 
ATOM     11  N   UNL     1      45.380   4.045   8.431  0.00  0.00    +0.000 N 
ATOM     12  C   UNL     1      45.609   4.910   9.479  0.00  0.00    +0.000 A 
ATOM     13  O   UNL     1      46.315   5.897   9.312  0.00  0.00    +0.000 OA
ATOM     14  C   UNL     1      44.944   4.522  10.716  0.00  0.00    +0.000 A 
ATOM     15  H   UNL     1      45.837   4.284   7.564  0.00  0.00    +0.000 HD
ENDBRANCH   3   5
BRANCH   1  17
ATOM     16  C   UNL     1      48.009   8.595  12.023  0.00  0.00    +0.000 C 
ATOM     17  C   UNL     1      47.587   7.690  13.204  0.00  0.00    +0.000 C 
BRANCH  17  18
ATOM     18  C   UNL     1      48.811   7.554  14.162  0.00  0.00    +0.000 C 
BRANCH  18  19
ATOM     19  C   UNL     1      48.657   7.952  15.618  0.00  0.00    +0.000 A 
ATOM     20  C   UNL     1      48.273   9.230  16.043  0.00  0.00    +0.000 A 
ATOM     21  C   UNL     1      48.014   9.492  17.389  0.00  0.00    +0.000 A 
ATOM     22  C   UNL     1      48.164   8.486  18.337  0.00  0.00    +0.000 A 
ATOM     23  C   UNL     1      48.608   7.228  17.943  0.00  0.00    +0.000 A 
ATOM     24  C   UNL     1      48.857   6.963  16.595  0.00  0.00    +0.000 A 
ENDBRANCH  18  19
ENDBRANCH  17  18
ENDBRANCH   1  17
TORSDOF 4
ENDMDL
MODEL 8
REMARK VINA RESULT:    -6.313      3.488      5.935
REMARK INTER + INTRA:          -7.619
REMARK INTER:                  -7.066
REMARK INTRA:                  -0.554
REMARK UNBOUND:                 0.170
REMARK  Name = 
REMARK  6 active torsions:
REMARK  status: ('A' for Active; 'I' for Inactive)
REMARK    1  A    between atoms: C_1  and  C_2
REMARK    2  A    between atoms: C_2  and  C_3
REMARK    3  A    between atoms: C_2  and  N_10
REMARK    4  A    between atoms: C_3  and  C_4
REMARK    5  A    between atoms: N_10  and  C_11
REMARK    6  A    between atoms: C_12  and  C_14
REMARK                            x       y       z     vdW  Elec       q    Type
REMARK                         _______ _______ _______ _____ _____    ______ ____
ROOT
ATOM      1  N   UNL     1      47.917   7.898  13.955  0.00  0.00    +0.000 N 
ATOM      2  C   UNL     1      47.613   8.812  15.060  0.00  0.00    +0.000 C 
ATOM      3  C   UNL     1      48.315   6.563  14.247  0.00  0.00    +0.000 C 
ATOM      4  O   UNL     1      48.149   5.645  13.451  0.00  0.00    +0.000 OA
ENDROOT
BRANCH   3   5
ATOM      5  C   UNL     1      48.985   6.273  15.523  0.00  0.00    +0.000 A 
ATOM      6  C   UNL     1      50.208   6.807  15.898  0.00  0.00    +0.000 A 
ATOM      7  S   UNL     1      50.695   6.354  17.468  0.00  0.00    +0.000 S 
ATOM      8  C   UNL     1      49.394   5.277  17.622  0.00  0.00    +0.000 A 
ATOM      9  N   UNL     1      49.255   4.508  18.736  0.00  0.00    +0.000 NA
ATOM     10  C   UNL     1      48.276   3.668  18.684  0.00  0.00    +0.000 A 
ATOM     11  N   UNL     1      47.419   3.538  17.625  0.00  0.00    +0.000 N 
ATOM     12  C   UNL     1      47.484   4.319  16.492  0.00  0.00    +0.000 A 
ATOM     13  O   UNL     1      46.658   4.170  15.600  0.00  0.00    +0.000 OA
ATOM     14  C   UNL     1      48.582   5.277  16.501  0.00  0.00    +0.000 A 
ATOM     15  H   UNL     1      46.674   2.858  17.641  0.00  0.00    +0.000 HD
ENDBRANCH   3   5
BRANCH   1  17
ATOM     16  C   UNL     1      47.469   9.568  12.039  0.00  0.00    +0.000 C 
ATOM     17  C   UNL     1      47.233   8.165  12.647  0.00  0.00    +0.000 C 
BRANCH  17  18
ATOM     18  C   UNL     1      45.695   7.900  12.650  0.00  0.00    +0.000 C 
BRANCH  18  19
ATOM     19  C   UNL     1      45.173   6.578  12.119  0.00  0.00    +0.000 A 
ATOM     20  C   UNL     1      45.468   6.075  10.845  0.00  0.00    +0.000 A 
ATOM     21  C   UNL     1      45.072   4.791  10.470  0.00  0.00    +0.000 A 
ATOM     22  C   UNL     1      44.349   3.998  11.354  0.00  0.00    +0.000 A 
ATOM     23  C   UNL     1      43.990   4.503  12.599  0.00  0.00    +0.000 A 
ATOM     24  C   UNL     1      44.395   5.785  12.978  0.00  0.00    +0.000 A 
ENDBRANCH  18  19
ENDBRANCH  17  18
ENDBRANCH   1  17
TORSDOF 4
ENDMDL
MODEL 9
REMARK VINA RESULT:    -6.300      3.370      6.908
REMARK INTER + INTRA:          -7.603
REMARK INTER:                  -6.867
REMARK INTRA:                  -0.736
REMARK UNBOUND:                 0.170
REMARK  Name = 
REMARK  6 active torsions:
REMARK  status: ('A' for Active; 'I' for Inactive)
REMARK    1  A    between atoms: C_1  and  C_2
REMARK    2  A    between atoms: C_2  and  C_3
REMARK    3  A    between atoms: C_2  and  N_10
REMARK    4  A    between atoms: C_3  and  C_4
REMARK    5  A    between atoms: N_10  and  C_11
REMARK    6  A    between atoms: C_12  and  C_14
REMARK                            x       y       z     vdW  Elec       q    Type
REMARK                         _______ _______ _______ _____ _____    ______ ____
ROOT
ATOM      1  N   UNL     1      46.828   8.909  12.536  0.00  0.00    +0.000 N 
ATOM      2  C   UNL     1      45.455   8.853  13.046  0.00  0.00    +0.000 C 
ATOM      3  C   UNL     1      47.490   7.697  12.191  0.00  0.00    +0.000 C 
ATOM      4  O   UNL     1      48.402   7.663  11.372  0.00  0.00    +0.000 OA
ENDROOT
BRANCH   3   5
ATOM      5  C   UNL     1      47.104   6.447  12.863  0.00  0.00    +0.000 A 
ATOM      6  C   UNL     1      47.675   5.990  14.040  0.00  0.00    +0.000 A 
ATOM      7  S   UNL     1      46.967   4.554  14.626  0.00  0.00    +0.000 S 
ATOM      8  C   UNL     1      46.016   4.387  13.232  0.00  0.00    +0.000 A 
ATOM      9  N   UNL     1      45.202   3.309  13.068  0.00  0.00    +0.000 NA
ATOM     10  C   UNL     1      44.605   3.261  11.925  0.00  0.00    +0.000 A 
ATOM     11  N   UNL     1      44.739   4.199  10.938  0.00  0.00    +0.000 N 
ATOM     12  C   UNL     1      45.512   5.334  11.065  0.00  0.00    +0.000 A 
ATOM     13  O   UNL     1      45.553   6.149  10.152  0.00  0.00    +0.000 OA
ATOM     14  C   UNL     1      46.215   5.425  12.338  0.00  0.00    +0.000 A 
ATOM     15  H   UNL     1      44.249   4.106  10.061  0.00  0.00    +0.000 HD
ENDBRANCH   3   5
BRANCH   1  17
ATOM     16  C   UNL     1      48.503  10.865  12.388  0.00  0.00    +0.000 C 
ATOM     17  C   UNL     1      47.240  10.168  11.833  0.00  0.00    +0.000 C 
BRANCH  17  18
ATOM     18  C   UNL     1      46.116  11.244  11.712  0.00  0.00    +0.000 C 
BRANCH  18  19
ATOM     19  C   UNL     1      45.379  11.397  10.395  0.00  0.00    +0.000 A 
ATOM     20  C   UNL     1      45.859  12.146   9.313  0.00  0.00    +0.000 A 
ATOM     21  C   UNL     1      45.201  12.133   8.082  0.00  0.00    +0.000 A 
ATOM     22  C   UNL     1      44.036  11.392   7.921  0.00  0.00    +0.000 A 
ATOM     23  C   UNL     1      43.507  10.694   9.003  0.00  0.00    +0.000 A 
ATOM     24  C   UNL     1      44.171  10.700  10.232  0.00  0.00    +0.000 A 
ENDBRANCH  18  19
ENDBRANCH  17  18
ENDBRANCH   1  17
TORSDOF 4
ENDMDL
