MODEL 1
REMARK VINA RESULT:    -7.403      0.000      0.000
REMARK INTER + INTRA:         -11.621
REMARK INTER:                 -10.432
REMARK INTRA:                  -1.189
REMARK UNBOUND:                -1.189
REMARK  Name = 
REMARK  8 active torsions:
REMARK  status: ('A' for Active; 'I' for Inactive)
REMARK    1  A    between atoms: C_1  and  N_2
REMARK    2  A    between atoms: N_2  and  C_3
REMARK    3  A    between atoms: C_3  and  C_4
REMARK    4  A    between atoms: C_7  and  C_8
REMARK    5  A    between atoms: C_8  and  C_9
REMARK    6  A    between atoms: C_9  and  N_10
REMARK    7  A    between atoms: N_10  and  C_11
REMARK    8  A    between atoms: C_19  and  C_21
REMARK                            x       y       z     vdW  Elec       q    Type
REMARK                         _______ _______ _______ _____ _____    ______ ____
ROOT
ATOM      1  C   UNL     1      47.346   6.186  12.420  0.00  0.00    +0.000 C 
ENDROOT
BRANCH   1   2
ATOM      2  C   UNL     1      47.612   5.777  13.834  0.00  0.00    +0.000 A 
ATOM      3  C   UNL     1      46.993   4.636  14.360  0.00  0.00    +0.000 A 
ATOM      4  C   UNL     1      47.178   4.298  15.695  0.00  0.00    +0.000 A 
ATOM      5  C   UNL     1      48.009   5.070  16.514  0.00  0.00    +0.000 A 
ATOM      6  C   UNL     1      48.658   6.188  15.970  0.00  0.00    +0.000 A 
ATOM      7  C   UNL     1      48.459   6.541  14.639  0.00  0.00    +0.000 A 
BRANCH   5   8
ATOM      8  C   UNL     1      48.164   4.788  17.989  0.00  0.00    +0.000 C 
BRANCH   8   9
ATOM      9  C   UNL     1      49.296   3.833  18.393  0.00  0.00    +0.000 C 
BRANCH   9  10
ATOM     10  N   UNL     1      49.782   3.020  17.275  0.00  0.00    +0.000 NA
ATOM     11  H   UNL     1      49.550   3.461  16.385  0.00  0.00    +0.000 HD
BRANCH  10  12
ATOM     12  C   UNL     1      51.217   2.727  17.362  0.00  0.00    +0.000 C 
ATOM     13  C   UNL     1      51.524   1.234  17.537  0.00  0.00    +0.000 C 
ATOM     14  C   UNL     1      53.014   1.020  17.753  0.00  0.00    +0.000 C 
ATOM     15  O   UNL     1      53.474   1.771  18.873  0.00  0.00    +0.000 OA
ATOM     16  C   UNL     1      53.302   3.175  18.684  0.00  0.00    +0.000 C 
ATOM     17  C   UNL     1      51.828   3.524  18.523  0.00  0.00    +0.000 C 
ENDBRANCH  10  12
ENDBRANCH   9  10
ENDBRANCH   8   9
ENDBRANCH   5   8
ENDBRANCH   1   2
BRANCH   1  19
ATOM     18  C   UNL     1      46.588   8.613  12.252  0.00  0.00    +0.000 C 
ATOM     19  N   UNL     1      46.298   7.183  12.182  0.00  0.00    +0.000 N 
ATOM     20  C   UNL     1      45.003   6.846  11.743  0.00  0.00    +0.000 C 
ATOM     21  O   UNL     1      44.192   7.721  11.444  0.00  0.00    +0.000 OA
BRANCH  20  22
ATOM     22  C   UNL     1      44.612   5.428  11.671  0.00  0.00    +0.000 A 
ATOM     23  C   UNL     1      43.896   4.758  12.649  0.00  0.00    +0.000 A 
ATOM     24  S   UNL     1      43.566   3.129  12.271  0.00  0.00    +0.000 S 
ATOM     25  C   UNL     1      44.221   3.311  10.716  0.00  0.00    +0.000 A 
ATOM     26  N   UNL     1      44.146   2.298   9.812  0.00  0.00    +0.000 NA
ATOM     27  C   UNL     1      44.636   2.591   8.657  0.00  0.00    +0.000 A 
ATOM     28  N   UNL     1      45.227   3.787   8.331  0.00  0.00    +0.000 N 
ATOM     29  C   UNL     1      45.436   4.790   9.252  0.00  0.00    +0.000 A 
ATOM     30  O   UNL     1      46.175   5.737   8.992  0.00  0.00    +0.000 OA
ATOM     31  C   UNL     1      44.788   4.562  10.534  0.00  0.00    +0.000 A 
ATOM     32  H   UNL     1      45.648   3.923   7.427  0.00  0.00    +0.000 HD
ENDBRANCH  20  22
ENDBRANCH   1  19
TORSDOF 7
ENDMDL
MODEL 2
REMARK VINA RESULT:    -7.258      1.311      1.950
REMARK INTER + INTRA:         -11.417
REMARK INTER:                 -10.105
REMARK INTRA:                  -1.312
REMARK UNBOUND:                -1.189
REMARK  Name = 
REMARK  8 active torsions:
REMARK  status: ('A' for Active; 'I' for Inactive)
REMARK    1  A    between atoms: C_1  and  N_2
REMARK    2  A    between atoms: N_2  and  C_3
REMARK    3  A    between atoms: C_3  and  C_4
REMARK    4  A    between atoms: C_7  and  C_8
REMARK    5  A    between atoms: C_8  and  C_9
REMARK    6  A    between atoms: C_9  and  N_10
REMARK    7  A    between atoms: N_10  and  C_11
REMARK    8  A    between atoms: C_19  and  C_21
REMARK                            x       y       z     vdW  Elec       q    Type
REMARK                         _______ _______ _______ _____ _____    ______ ____
ROOT
ATOM      1  C   UNL     1      47.452   6.529  12.559  0.00  0.00    +0.000 C 
ENDROOT
BRANCH   1   2
ATOM      2  C   UNL     1      47.595   5.847  13.883  0.00  0.00    +0.000 A 
ATOM      3  C   UNL     1      46.898   4.657  14.134  0.00  0.00    +0.000 A 
ATOM      4  C   UNL     1      46.969   4.062  15.387  0.00  0.00    +0.000 A 
ATOM      5  C   UNL     1      47.760   4.623  16.396  0.00  0.00    +0.000 A 
ATOM      6  C   UNL     1      48.487   5.792  16.124  0.00  0.00    +0.000 A 
ATOM      7  C   UNL     1      48.403   6.401  14.877  0.00  0.00    +0.000 A 
BRANCH   5   8
ATOM      8  C   UNL     1      47.792   4.058  17.796  0.00  0.00    +0.000 C 
BRANCH   8   9
ATOM      9  C   UNL     1      48.947   3.103  18.127  0.00  0.00    +0.000 C 
BRANCH   9  10
ATOM     10  N   UNL     1      49.658   2.632  16.936  0.00  0.00    +0.000 NA
ATOM     11  H   UNL     1      49.462   3.239  16.139  0.00  0.00    +0.000 HD
BRANCH  10  12
ATOM     12  C   UNL     1      51.103   2.492  17.150  0.00  0.00    +0.000 C 
ATOM     13  C   UNL     1      51.518   1.084  17.596  0.00  0.00    +0.000 C 
ATOM     14  C   UNL     1      53.001   1.048  17.926  0.00  0.00    +0.000 C 
ATOM     15  O   UNL     1      53.320   2.014  18.923  0.00  0.00    +0.000 OA
ATOM     16  C   UNL     1      53.048   3.345  18.486  0.00  0.00    +0.000 C 
ATOM     17  C   UNL     1      51.566   3.525  18.187  0.00  0.00    +0.000 C 
ENDBRANCH  10  12
ENDBRANCH   9  10
ENDBRANCH   8   9
ENDBRANCH   5   8
ENDBRANCH   1   2
BRANCH   1  19
ATOM     18  C   UNL     1      46.463   8.819  13.079  0.00  0.00    +0.000 C 
ATOM     19  N   UNL     1      46.382   7.521  12.414  0.00  0.00    +0.000 N 
ATOM     20  C   UNL     1      45.296   7.354  11.534  0.00  0.00    +0.000 C 
ATOM     21  O   UNL     1      44.483   8.261  11.357  0.00  0.00    +0.000 OA
BRANCH  20  22
ATOM     22  C   UNL     1      45.117   6.066  10.844  0.00  0.00    +0.000 A 
ATOM     23  C   UNL     1      45.707   5.732   9.635  0.00  0.00    +0.000 A 
ATOM     24  S   UNL     1      45.338   4.157   9.097  0.00  0.00    +0.000 S 
ATOM     25  C   UNL     1      44.516   3.809  10.540  0.00  0.00    +0.000 A 
ATOM     26  N   UNL     1      44.042   2.557  10.780  0.00  0.00    +0.000 NA
ATOM     27  C   UNL     1      43.487   2.421  11.935  0.00  0.00    +0.000 A 
ATOM     28  N   UNL     1      43.326   3.427  12.857  0.00  0.00    +0.000 N 
ATOM     29  C   UNL     1      43.678   4.734  12.602  0.00  0.00    +0.000 A 
ATOM     30  O   UNL     1      43.304   5.641  13.342  0.00  0.00    +0.000 OA
ATOM     31  C   UNL     1      44.425   4.917  11.367  0.00  0.00    +0.000 A 
ATOM     32  H   UNL     1      42.823   3.264  13.713  0.00  0.00    +0.000 HD
ENDBRANCH  20  22
ENDBRANCH   1  19
TORSDOF 7
ENDMDL
MODEL 3
REMARK VINA RESULT:    -7.215      3.660      8.588
REMARK INTER + INTRA:         -11.355
REMARK INTER:                 -10.079
REMARK INTRA:                  -1.277
REMARK UNBOUND:                -1.189
REMARK  Name = 
REMARK  8 active torsions:
REMARK  status: ('A' for Active; 'I' for Inactive)
REMARK    1  A    between atoms: C_1  and  N_2
REMARK    2  A    between atoms: N_2  and  C_3
REMARK    3  A    between atoms: C_3  and  C_4
REMARK    4  A    between atoms: C_7  and  C_8
REMARK    5  A    between atoms: C_8  and  C_9
REMARK    6  A    between atoms: C_9  and  N_10
REMARK    7  A    between atoms: N_10  and  C_11
REMARK    8  A    between atoms: C_19  and  C_21
REMARK                            x       y       z     vdW  Elec       q    Type
REMARK                         _______ _______ _______ _____ _____    ______ ____
ROOT
ATOM      1  C   UNL     1      47.469   7.762  13.623  0.00  0.00    +0.000 C 
ENDROOT
BRANCH   1   2
ATOM      2  C   UNL     1      46.648   6.578  13.218  0.00  0.00    +0.000 A 
ATOM      3  C   UNL     1      46.934   5.315  13.754  0.00  0.00    +0.000 A 
ATOM      4  C   UNL     1      46.224   4.201  13.323  0.00  0.00    +0.000 A 
ATOM      5  C   UNL     1      45.198   4.333  12.380  0.00  0.00    +0.000 A 
ATOM      6  C   UNL     1      44.891   5.608  11.879  0.00  0.00    +0.000 A 
ATOM      7  C   UNL     1      45.613   6.722  12.294  0.00  0.00    +0.000 A 
BRANCH   5   8
ATOM      8  C   UNL     1      44.466   3.138  11.820  0.00  0.00    +0.000 C 
BRANCH   8   9
ATOM      9  C   UNL     1      44.131   3.176  10.322  0.00  0.00    +0.000 C 
BRANCH   9  10
ATOM     10  N   UNL     1      44.633   2.007   9.595  0.00  0.00    +0.000 NA
ATOM     11  H   UNL     1      43.880   1.563   9.070  0.00  0.00    +0.000 HD
BRANCH  10  12
ATOM     12  C   UNL     1      45.772   2.321   8.724  0.00  0.00    +0.000 C 
ATOM     13  C   UNL     1      45.448   3.377   7.658  0.00  0.00    +0.000 C 
ATOM     14  C   UNL     1      46.626   3.554   6.713  0.00  0.00    +0.000 C 
ATOM     15  O   UNL     1      46.980   2.312   6.111  0.00  0.00    +0.000 OA
ATOM     16  C   UNL     1      47.395   1.347   7.077  0.00  0.00    +0.000 C 
ATOM     17  C   UNL     1      46.265   1.034   8.049  0.00  0.00    +0.000 C 
ENDBRANCH  10  12
ENDBRANCH   9  10
ENDBRANCH   8   9
ENDBRANCH   5   8
ENDBRANCH   1   2
BRANCH   1  19
ATOM     18  C   UNL     1      49.614   7.279  12.336  0.00  0.00    +0.000 C 
ATOM     19  N   UNL     1      48.927   7.630  13.577  0.00  0.00    +0.000 N 
ATOM     20  C   UNL     1      49.762   7.960  14.662  0.00  0.00    +0.000 C 
ATOM     21  O   UNL     1      50.986   7.946  14.542  0.00  0.00    +0.000 OA
BRANCH  20  22
ATOM     22  C   UNL     1      49.157   8.297  15.961  0.00  0.00    +0.000 A 
ATOM     23  C   UNL     1      48.808   9.577  16.360  0.00  0.00    +0.000 A 
ATOM     24  S   UNL     1      48.100   9.651  17.908  0.00  0.00    +0.000 S 
ATOM     25  C   UNL     1      48.082   7.958  18.029  0.00  0.00    +0.000 A 
ATOM     26  N   UNL     1      47.485   7.348  19.087  0.00  0.00    +0.000 NA
ATOM     27  C   UNL     1      47.499   6.061  19.025  0.00  0.00    +0.000 A 
ATOM     28  N   UNL     1      48.086   5.326  18.024  0.00  0.00    +0.000 N 
ATOM     29  C   UNL     1      48.808   5.903  17.002  0.00  0.00    +0.000 A 
ATOM     30  O   UNL     1      49.515   5.216  16.268  0.00  0.00    +0.000 OA
ATOM     31  C   UNL     1      48.714   7.354  16.954  0.00  0.00    +0.000 A 
ATOM     32  H   UNL     1      48.116   4.322  18.073  0.00  0.00    +0.000 HD
ENDBRANCH  20  22
ENDBRANCH   1  19
TORSDOF 7
ENDMDL
MODEL 4
REMARK VINA RESULT:    -7.189      2.717      8.504
REMARK INTER + INTRA:         -11.319
REMARK INTER:                 -10.183
REMARK INTRA:                  -1.137
REMARK UNBOUND:                -1.189
REMARK  Name = 
REMARK  8 active torsions:
REMARK  status: ('A' for Active; 'I' for Inactive)
REMARK    1  A    between atoms: C_1  and  N_2
REMARK    2  A    between atoms: N_2  and  C_3
REMARK    3  A    between atoms: C_3  and  C_4
REMARK    4  A    between atoms: C_7  and  C_8
REMARK    5  A    between atoms: C_8  and  C_9
REMARK    6  A    between atoms: C_9  and  N_10
REMARK    7  A    between atoms: N_10  and  C_11
REMARK    8  A    between atoms: C_19  and  C_21
REMARK                            x       y       z     vdW  Elec       q    Type
REMARK                         _______ _______ _______ _____ _____    ______ ____
ROOT
ATOM      1  C   UNL     1      49.177   6.822  15.029  0.00  0.00    +0.000 C 
ENDROOT
BRANCH   1   2
ATOM      2  C   UNL     1      48.069   6.657  14.038  0.00  0.00    +0.000 A 
ATOM      3  C   UNL     1      47.322   5.471  14.015  0.00  0.00    +0.000 A 
ATOM      4  C   UNL     1      46.344   5.285  13.047  0.00  0.00    +0.000 A 
ATOM      5  C   UNL     1      46.071   6.288  12.111  0.00  0.00    +0.000 A 
ATOM      6  C   UNL     1      46.795   7.489  12.165  0.00  0.00    +0.000 A 
ATOM      7  C   UNL     1      47.788   7.671  13.120  0.00  0.00    +0.000 A 
BRANCH   5   8
ATOM      8  C   UNL     1      45.080   6.088  10.989  0.00  0.00    +0.000 C 
BRANCH   8   9
ATOM      9  C   UNL     1      44.798   4.639  10.569  0.00  0.00    +0.000 C 
BRANCH   9  10
ATOM     10  N   UNL     1      44.168   4.539   9.250  0.00  0.00    +0.000 NA
ATOM     11  H   UNL     1      44.150   5.450   8.793  0.00  0.00    +0.000 HD
BRANCH  10  12
ATOM     12  C   UNL     1      44.798   3.529   8.391  0.00  0.00    +0.000 C 
ATOM     13  C   UNL     1      45.172   2.243   9.139  0.00  0.00    +0.000 C 
ATOM     14  C   UNL     1      45.936   1.300   8.223  0.00  0.00    +0.000 C 
ATOM     15  O   UNL     1      47.094   1.939   7.694  0.00  0.00    +0.000 OA
ATOM     16  C   UNL     1      46.763   3.076   6.898  0.00  0.00    +0.000 C 
ATOM     17  C   UNL     1      46.047   4.130   7.732  0.00  0.00    +0.000 C 
ENDBRANCH  10  12
ENDBRANCH   9  10
ENDBRANCH   8   9
ENDBRANCH   5   8
ENDBRANCH   1   2
BRANCH   1  19
ATOM     18  C   UNL     1      48.866   8.992  16.327  0.00  0.00    +0.000 C 
ATOM     19  N   UNL     1      48.879   7.532  16.276  0.00  0.00    +0.000 N 
ATOM     20  C   UNL     1      48.456   6.878  17.448  0.00  0.00    +0.000 C 
ATOM     21  O   UNL     1      48.104   7.521  18.436  0.00  0.00    +0.000 OA
BRANCH  20  22
ATOM     22  C   UNL     1      48.466   5.406  17.498  0.00  0.00    +0.000 A 
ATOM     23  C   UNL     1      47.346   4.605  17.348  0.00  0.00    +0.000 A 
ATOM     24  S   UNL     1      47.674   2.935  17.424  0.00  0.00    +0.000 S 
ATOM     25  C   UNL     1      49.345   3.222  17.491  0.00  0.00    +0.000 A 
ATOM     26  N   UNL     1      50.226   2.186  17.452  0.00  0.00    +0.000 NA
ATOM     27  C   UNL     1      51.462   2.550  17.457  0.00  0.00    +0.000 A 
ATOM     28  N   UNL     1      51.902   3.849  17.534  0.00  0.00    +0.000 N 
ATOM     29  C   UNL     1      51.046   4.916  17.701  0.00  0.00    +0.000 A 
ATOM     30  O   UNL     1      51.478   6.025  18.007  0.00  0.00    +0.000 OA
ATOM     31  C   UNL     1      49.638   4.574  17.572  0.00  0.00    +0.000 A 
ATOM     32  H   UNL     1      52.884   4.057  17.600  0.00  0.00    +0.000 HD
ENDBRANCH  20  22
ENDBRANCH   1  19
TORSDOF 7
ENDMDL
MODEL 5
REMARK VINA RESULT:    -7.021      2.805      4.138
REMARK INTER + INTRA:         -11.082
REMARK INTER:                  -9.650
REMARK INTRA:                  -1.432
REMARK UNBOUND:                -1.189
REMARK  Name = 
REMARK  8 active torsions:
REMARK  status: ('A' for Active; 'I' for Inactive)
REMARK    1  A    between atoms: C_1  and  N_2
REMARK    2  A    between atoms: N_2  and  C_3
REMARK    3  A    between atoms: C_3  and  C_4
REMARK    4  A    between atoms: C_7  and  C_8
REMARK    5  A    between atoms: C_8  and  C_9
REMARK    6  A    between atoms: C_9  and  N_10
REMARK    7  A    between atoms: N_10  and  C_11
REMARK    8  A    between atoms: C_19  and  C_21
REMARK                            x       y       z     vdW  Elec       q    Type
REMARK                         _______ _______ _______ _____ _____    ______ ____
ROOT
ATOM      1  C   UNL     1      47.305   6.128  12.555  0.00  0.00    +0.000 C 
ENDROOT
BRANCH   1   2
ATOM      2  C   UNL     1      47.558   5.766  13.984  0.00  0.00    +0.000 A 
ATOM      3  C   UNL     1      48.420   6.551  14.762  0.00  0.00    +0.000 A 
ATOM      4  C   UNL     1      48.717   6.173  16.065  0.00  0.00    +0.000 A 
ATOM      5  C   UNL     1      48.134   5.031  16.625  0.00  0.00    +0.000 A 
ATOM      6  C   UNL     1      47.240   4.273  15.853  0.00  0.00    +0.000 A 
ATOM      7  C   UNL     1      46.955   4.636  14.541  0.00  0.00    +0.000 A 
BRANCH   5   8
ATOM      8  C   UNL     1      48.499   4.538  18.004  0.00  0.00    +0.000 C 
BRANCH   8   9
ATOM      9  C   UNL     1      49.070   5.579  18.978  0.00  0.00    +0.000 C 
BRANCH   9  10
ATOM     10  N   UNL     1      48.128   5.945  20.039  0.00  0.00    +0.000 NA
ATOM     11  H   UNL     1      48.339   5.434  20.896  0.00  0.00    +0.000 HD
BRANCH  10  12
ATOM     12  C   UNL     1      48.075   7.390  20.284  0.00  0.00    +0.000 C 
ATOM     13  C   UNL     1      47.308   7.763  21.559  0.00  0.00    +0.000 C 
ATOM     14  C   UNL     1      47.180   9.274  21.679  0.00  0.00    +0.000 C 
ATOM     15  O   UNL     1      46.547   9.819  20.525  0.00  0.00    +0.000 OA
ATOM     16  C   UNL     1      47.303   9.582  19.337  0.00  0.00    +0.000 C 
ATOM     17  C   UNL     1      47.442   8.089  19.073  0.00  0.00    +0.000 C 
ENDBRANCH  10  12
ENDBRANCH   9  10
ENDBRANCH   8   9
ENDBRANCH   5   8
ENDBRANCH   1   2
BRANCH   1  19
ATOM     18  C   UNL     1      46.577   8.562  12.361  0.00  0.00    +0.000 C 
ATOM     19  N   UNL     1      46.276   7.134  12.277  0.00  0.00    +0.000 N 
ATOM     20  C   UNL     1      44.998   6.810  11.786  0.00  0.00    +0.000 C 
ATOM     21  O   UNL     1      44.207   7.693  11.456  0.00  0.00    +0.000 OA
BRANCH  20  22
ATOM     22  C   UNL     1      44.596   5.396  11.696  0.00  0.00    +0.000 A 
ATOM     23  C   UNL     1      43.867   4.721  12.661  0.00  0.00    +0.000 A 
ATOM     24  S   UNL     1      43.528   3.099  12.264  0.00  0.00    +0.000 S 
ATOM     25  C   UNL     1      44.198   3.292  10.716  0.00  0.00    +0.000 A 
ATOM     26  N   UNL     1      44.123   2.289   9.801  0.00  0.00    +0.000 NA
ATOM     27  C   UNL     1      44.625   2.589   8.654  0.00  0.00    +0.000 A 
ATOM     28  N   UNL     1      45.228   3.784   8.344  0.00  0.00    +0.000 N 
ATOM     29  C   UNL     1      45.436   4.777   9.277  0.00  0.00    +0.000 A 
ATOM     30  O   UNL     1      46.185   5.720   9.034  0.00  0.00    +0.000 OA
ATOM     31  C   UNL     1      44.776   4.541  10.552  0.00  0.00    +0.000 A 
ATOM     32  H   UNL     1      45.658   3.926   7.446  0.00  0.00    +0.000 HD
ENDBRANCH  20  22
ENDBRANCH   1  19
TORSDOF 7
ENDMDL
MODEL 6
REMARK VINA RESULT:    -6.932      1.580      2.062
REMARK INTER + INTRA:         -10.957
REMARK INTER:                  -9.360
REMARK INTRA:                  -1.597
REMARK UNBOUND:                -1.189
REMARK  Name = 
REMARK  8 active torsions:
REMARK  status: ('A' for Active; 'I' for Inactive)
REMARK    1  A    between atoms: C_1  and  N_2
REMARK    2  A    between atoms: N_2  and  C_3
REMARK    3  A    between atoms: C_3  and  C_4
REMARK    4  A    between atoms: C_7  and  C_8
REMARK    5  A    between atoms: C_8  and  C_9
REMARK    6  A    between atoms: C_9  and  N_10
REMARK    7  A    between atoms: N_10  and  C_11
REMARK    8  A    between atoms: C_19  and  C_21
REMARK                            x       y       z     vdW  Elec       q    Type
REMARK                         _______ _______ _______ _____ _____    ______ ____
ROOT
ATOM      1  C   UNL     1      47.398   6.188  12.389  0.00  0.00    +0.000 C 
ENDROOT
BRANCH   1   2
ATOM      2  C   UNL     1      47.571   5.670  13.782  0.00  0.00    +0.000 A 
ATOM      3  C   UNL     1      47.007   4.440  14.145  0.00  0.00    +0.000 A 
ATOM      4  C   UNL     1      47.101   3.993  15.456  0.00  0.00    +0.000 A 
ATOM      5  C   UNL     1      47.787   4.745  16.416  0.00  0.00    +0.000 A 
ATOM      6  C   UNL     1      48.385   5.956  16.035  0.00  0.00    +0.000 A 
ATOM      7  C   UNL     1      48.276   6.416  14.727  0.00  0.00    +0.000 A 
BRANCH   5   8
ATOM      8  C   UNL     1      47.834   4.338  17.869  0.00  0.00    +0.000 C 
BRANCH   8   9
ATOM      9  C   UNL     1      49.087   3.581  18.332  0.00  0.00    +0.000 C 
BRANCH   9  10
ATOM     10  N   UNL     1      49.760   4.228  19.461  0.00  0.00    +0.000 NA
ATOM     11  H   UNL     1      50.026   3.536  20.163  0.00  0.00    +0.000 HD
BRANCH  10  12
ATOM     12  C   UNL     1      50.915   5.036  19.053  0.00  0.00    +0.000 C 
ATOM     13  C   UNL     1      50.611   6.538  18.982  0.00  0.00    +0.000 C 
ATOM     14  C   UNL     1      51.807   7.296  18.428  0.00  0.00    +0.000 C 
ATOM     15  O   UNL     1      52.176   6.788  17.148  0.00  0.00    +0.000 OA
ATOM     16  C   UNL     1      52.572   5.419  17.209  0.00  0.00    +0.000 C 
ATOM     17  C   UNL     1      51.424   4.543  17.691  0.00  0.00    +0.000 C 
ENDBRANCH  10  12
ENDBRANCH   9  10
ENDBRANCH   8   9
ENDBRANCH   5   8
ENDBRANCH   1   2
BRANCH   1  19
ATOM     18  C   UNL     1      46.694   8.632  12.239  0.00  0.00    +0.000 C 
ATOM     19  N   UNL     1      46.371   7.209  12.163  0.00  0.00    +0.000 N 
ATOM     20  C   UNL     1      45.067   6.904  11.729  0.00  0.00    +0.000 C 
ATOM     21  O   UNL     1      44.273   7.798  11.440  0.00  0.00    +0.000 OA
BRANCH  20  22
ATOM     22  C   UNL     1      44.644   5.495  11.651  0.00  0.00    +0.000 A 
ATOM     23  C   UNL     1      43.894   4.844  12.616  0.00  0.00    +0.000 A 
ATOM     24  S   UNL     1      43.532   3.222  12.235  0.00  0.00    +0.000 S 
ATOM     25  C   UNL     1      44.222   3.386  10.693  0.00  0.00    +0.000 A 
ATOM     26  N   UNL     1      44.140   2.374   9.789  0.00  0.00    +0.000 NA
ATOM     27  C   UNL     1      44.659   2.652   8.643  0.00  0.00    +0.000 A 
ATOM     28  N   UNL     1      45.284   3.834   8.326  0.00  0.00    +0.000 N 
ATOM     29  C   UNL     1      45.499   4.834   9.250  0.00  0.00    +0.000 A 
ATOM     30  O   UNL     1      46.265   5.762   9.003  0.00  0.00    +0.000 OA
ATOM     31  C   UNL     1      44.821   4.623  10.520  0.00  0.00    +0.000 A 
ATOM     32  H   UNL     1      45.726   3.958   7.431  0.00  0.00    +0.000 HD
ENDBRANCH  20  22
ENDBRANCH   1  19
TORSDOF 7
ENDMDL
MODEL 7
REMARK VINA RESULT:    -6.819      1.421      2.023
REMARK INTER + INTRA:         -10.798
REMARK INTER:                  -9.752
REMARK INTRA:                  -1.046
REMARK UNBOUND:                -1.189
REMARK  Name = 
REMARK  8 active torsions:
REMARK  status: ('A' for Active; 'I' for Inactive)
REMARK    1  A    between atoms: C_1  and  N_2
REMARK    2  A    between atoms: N_2  and  C_3
REMARK    3  A    between atoms: C_3  and  C_4
REMARK    4  A    between atoms: C_7  and  C_8
REMARK    5  A    between atoms: C_8  and  C_9
REMARK    6  A    between atoms: C_9  and  N_10
REMARK    7  A    between atoms: N_10  and  C_11
REMARK    8  A    between atoms: C_19  and  C_21
REMARK                            x       y       z     vdW  Elec       q    Type
REMARK                         _______ _______ _______ _____ _____    ______ ____
ROOT
ATOM      1  C   UNL     1      47.491   6.519  12.143  0.00  0.00    +0.000 C 
ENDROOT
BRANCH   1   2
ATOM      2  C   UNL     1      48.261   6.615  13.422  0.00  0.00    +0.000 A 
ATOM      3  C   UNL     1      47.745   6.043  14.593  0.00  0.00    +0.000 A 
ATOM      4  C   UNL     1      48.421   6.197  15.797  0.00  0.00    +0.000 A 
ATOM      5  C   UNL     1      49.634   6.891  15.847  0.00  0.00    +0.000 A 
ATOM      6  C   UNL     1      50.165   7.426  14.663  0.00  0.00    +0.000 A 
ATOM      7  C   UNL     1      49.482   7.291  13.459  0.00  0.00    +0.000 A 
BRANCH   5   8
ATOM      8  C   UNL     1      50.352   7.157  17.148  0.00  0.00    +0.000 C 
BRANCH   8   9
ATOM      9  C   UNL     1      51.044   5.958  17.811  0.00  0.00    +0.000 C 
BRANCH   9  10
ATOM     10  N   UNL     1      50.152   5.201  18.693  0.00  0.00    +0.000 NA
ATOM     11  H   UNL     1      49.246   5.664  18.769  0.00  0.00    +0.000 HD
BRANCH  10  12
ATOM     12  C   UNL     1      49.996   3.800  18.285  0.00  0.00    +0.000 C 
ATOM     13  C   UNL     1      51.220   3.243  17.545  0.00  0.00    +0.000 C 
ATOM     14  C   UNL     1      50.938   1.838  17.037  0.00  0.00    +0.000 C 
ATOM     15  O   UNL     1      49.785   1.826  16.200  0.00  0.00    +0.000 OA
ATOM     16  C   UNL     1      48.610   2.233  16.900  0.00  0.00    +0.000 C 
ATOM     17  C   UNL     1      48.748   3.664  17.403  0.00  0.00    +0.000 C 
ENDBRANCH  10  12
ENDBRANCH   9  10
ENDBRANCH   8   9
ENDBRANCH   5   8
ENDBRANCH   1   2
BRANCH   1  19
ATOM     18  C   UNL     1      46.759   8.938  11.819  0.00  0.00    +0.000 C 
ATOM     19  N   UNL     1      46.442   7.514  11.900  0.00  0.00    +0.000 N 
ATOM     20  C   UNL     1      45.112   7.169  11.595  0.00  0.00    +0.000 C 
ATOM     21  O   UNL     1      44.292   8.032  11.284  0.00  0.00    +0.000 OA
BRANCH  20  22
ATOM     22  C   UNL     1      44.695   5.759  11.681  0.00  0.00    +0.000 A 
ATOM     23  C   UNL     1      44.008   5.204  12.748  0.00  0.00    +0.000 A 
ATOM     24  S   UNL     1      43.636   3.553  12.549  0.00  0.00    +0.000 S 
ATOM     25  C   UNL     1      44.230   3.566  10.959  0.00  0.00    +0.000 A 
ATOM     26  N   UNL     1      44.101   2.470  10.165  0.00  0.00    +0.000 NA
ATOM     27  C   UNL     1      44.548   2.636   8.968  0.00  0.00    +0.000 A 
ATOM     28  N   UNL     1      45.145   3.782   8.501  0.00  0.00    +0.000 N 
ATOM     29  C   UNL     1      45.408   4.867   9.307  0.00  0.00    +0.000 A 
ATOM     30  O   UNL     1      46.151   5.768   8.926  0.00  0.00    +0.000 OA
ATOM     31  C   UNL     1      44.809   4.781  10.631  0.00  0.00    +0.000 A 
ATOM     32  H   UNL     1      45.531   3.819   7.572  0.00  0.00    +0.000 HD
ENDBRANCH  20  22
ENDBRANCH   1  19
TORSDOF 7
ENDMDL
MODEL 8
REMARK VINA RESULT:    -6.419      2.629      8.429
REMARK INTER + INTRA:         -10.235
REMARK INTER:                  -8.987
REMARK INTRA:                  -1.247
REMARK UNBOUND:                -1.189
REMARK  Name = 
REMARK  8 active torsions:
REMARK  status: ('A' for Active; 'I' for Inactive)
REMARK    1  A    between atoms: C_1  and  N_2
REMARK    2  A    between atoms: N_2  and  C_3
REMARK    3  A    between atoms: C_3  and  C_4
REMARK    4  A    between atoms: C_7  and  C_8
REMARK    5  A    between atoms: C_8  and  C_9
REMARK    6  A    between atoms: C_9  and  N_10
REMARK    7  A    between atoms: N_10  and  C_11
REMARK    8  A    between atoms: C_19  and  C_21
REMARK                            x       y       z     vdW  Elec       q    Type
REMARK                         _______ _______ _______ _____ _____    ______ ____
ROOT
ATOM      1  C   UNL     1      49.651   7.306  16.865  0.00  0.00    +0.000 C 
ENDROOT
BRANCH   1   2
ATOM      2  C   UNL     1      48.783   7.474  15.658  0.00  0.00    +0.000 A 
ATOM      3  C   UNL     1      48.542   6.382  14.813  0.00  0.00    +0.000 A 
ATOM      4  C   UNL     1      47.800   6.554  13.651  0.00  0.00    +0.000 A 
ATOM      5  C   UNL     1      47.260   7.804  13.331  0.00  0.00    +0.000 A 
ATOM      6  C   UNL     1      47.472   8.884  14.203  0.00  0.00    +0.000 A 
ATOM      7  C   UNL     1      48.230   8.720  15.357  0.00  0.00    +0.000 A 
BRANCH   5   8
ATOM      8  C   UNL     1      46.527   8.052  12.035  0.00  0.00    +0.000 C 
BRANCH   8   9
ATOM      9  C   UNL     1      45.178   7.339  11.859  0.00  0.00    +0.000 C 
BRANCH   9  10
ATOM     10  N   UNL     1      45.128   6.502  10.658  0.00  0.00    +0.000 NA
ATOM     11  H   UNL     1      45.953   6.658  10.079  0.00  0.00    +0.000 HD
BRANCH  10  12
ATOM     12  C   UNL     1      44.956   5.076  10.960  0.00  0.00    +0.000 C 
ATOM     13  C   UNL     1      44.364   4.275   9.794  0.00  0.00    +0.000 C 
ATOM     14  C   UNL     1      44.090   2.841  10.220  0.00  0.00    +0.000 C 
ATOM     15  O   UNL     1      43.226   2.808  11.353  0.00  0.00    +0.000 OA
ATOM     16  C   UNL     1      43.806   3.451  12.487  0.00  0.00    +0.000 C 
ATOM     17  C   UNL     1      44.065   4.924  12.201  0.00  0.00    +0.000 C 
ENDBRANCH  10  12
ENDBRANCH   9  10
ENDBRANCH   8   9
ENDBRANCH   5   8
ENDBRANCH   1   2
BRANCH   1  19
ATOM     18  C   UNL     1      48.950   8.644  18.916  0.00  0.00    +0.000 C 
ATOM     19  N   UNL     1      49.011   7.383  18.181  0.00  0.00    +0.000 N 
ATOM     20  C   UNL     1      48.305   6.309  18.755  0.00  0.00    +0.000 C 
ATOM     21  O   UNL     1      47.685   6.454  19.809  0.00  0.00    +0.000 OA
BRANCH  20  22
ATOM     22  C   UNL     1      48.336   4.992  18.099  0.00  0.00    +0.000 A 
ATOM     23  C   UNL     1      47.310   4.472  17.327  0.00  0.00    +0.000 A 
ATOM     24  S   UNL     1      47.646   2.934  16.673  0.00  0.00    +0.000 S 
ATOM     25  C   UNL     1      49.238   2.985  17.259  0.00  0.00    +0.000 A 
ATOM     26  N   UNL     1      50.123   2.003  16.941  0.00  0.00    +0.000 NA
ATOM     27  C   UNL     1      51.307   2.194  17.409  0.00  0.00    +0.000 A 
ATOM     28  N   UNL     1      51.683   3.256  18.196  0.00  0.00    +0.000 N 
ATOM     29  C   UNL     1      50.789   4.203  18.644  0.00  0.00    +0.000 A 
ATOM     30  O   UNL     1      51.103   4.992  19.533  0.00  0.00    +0.000 OA
ATOM     31  C   UNL     1      49.469   4.106  18.041  0.00  0.00    +0.000 A 
ATOM     32  H   UNL     1      52.611   3.307  18.581  0.00  0.00    +0.000 HD
ENDBRANCH  20  22
ENDBRANCH   1  19
TORSDOF 7
ENDMDL
MODEL 9
REMARK VINA RESULT:    -6.323      3.370      8.264
REMARK INTER + INTRA:         -10.099
REMARK INTER:                  -8.432
REMARK INTRA:                  -1.667
REMARK UNBOUND:                -1.189
REMARK  Name = 
REMARK  8 active torsions:
REMARK  status: ('A' for Active; 'I' for Inactive)
REMARK    1  A    between atoms: C_1  and  N_2
REMARK    2  A    between atoms: N_2  and  C_3
REMARK    3  A    between atoms: C_3  and  C_4
REMARK    4  A    between atoms: C_7  and  C_8
REMARK    5  A    between atoms: C_8  and  C_9
REMARK    6  A    between atoms: C_9  and  N_10
REMARK    7  A    between atoms: N_10  and  C_11
REMARK    8  A    between atoms: C_19  and  C_21
REMARK                            x       y       z     vdW  Elec       q    Type
REMARK                         _______ _______ _______ _____ _____    ______ ____
ROOT
ATOM      1  C   UNL     1      51.074   7.502  17.801  0.00  0.00    +0.000 C 
ENDROOT
BRANCH   1   2
ATOM      2  C   UNL     1      50.069   7.745  16.719  0.00  0.00    +0.000 A 
ATOM      3  C   UNL     1      50.110   6.985  15.543  0.00  0.00    +0.000 A 
ATOM      4  C   UNL     1      49.227   7.260  14.507  0.00  0.00    +0.000 A 
ATOM      5  C   UNL     1      48.270   8.272  14.639  0.00  0.00    +0.000 A 
ATOM      6  C   UNL     1      48.208   9.002  15.836  0.00  0.00    +0.000 A 
ATOM      7  C   UNL     1      49.103   8.742  16.868  0.00  0.00    +0.000 A 
BRANCH   5   8
ATOM      8  C   UNL     1      47.354   8.662  13.504  0.00  0.00    +0.000 C 
BRANCH   8   9
ATOM      9  C   UNL     1      46.764   7.516  12.671  0.00  0.00    +0.000 C 
BRANCH   9  10
ATOM     10  N   UNL     1      45.521   6.981  13.233  0.00  0.00    +0.000 NA
ATOM     11  H   UNL     1      44.781   7.683  13.196  0.00  0.00    +0.000 HD
BRANCH  10  12
ATOM     12  C   UNL     1      45.095   5.731  12.594  0.00  0.00    +0.000 C 
ATOM     13  C   UNL     1      43.622   5.388  12.853  0.00  0.00    +0.000 C 
ATOM     14  C   UNL     1      43.287   4.021  12.277  0.00  0.00    +0.000 C 
ATOM     15  O   UNL     1      44.146   3.022  12.818  0.00  0.00    +0.000 OA
ATOM     16  C   UNL     1      45.515   3.259  12.493  0.00  0.00    +0.000 C 
ATOM     17  C   UNL     1      45.990   4.582  13.080  0.00  0.00    +0.000 C 
ENDBRANCH  10  12
ENDBRANCH   9  10
ENDBRANCH   8   9
ENDBRANCH   5   8
ENDBRANCH   1   2
BRANCH   1  19
ATOM     18  C   UNL     1      50.201   8.311  20.053  0.00  0.00    +0.000 C 
ATOM     19  N   UNL     1      50.572   7.225  19.150  0.00  0.00    +0.000 N 
ATOM     20  C   UNL     1      50.286   5.926  19.610  0.00  0.00    +0.000 C 
ATOM     21  O   UNL     1      49.756   5.749  20.707  0.00  0.00    +0.000 OA
BRANCH  20  22
ATOM     22  C   UNL     1      50.653   4.768  18.779  0.00  0.00    +0.000 A 
ATOM     23  C   UNL     1      51.878   4.122  18.825  0.00  0.00    +0.000 A 
ATOM     24  S   UNL     1      52.000   2.793  17.764  0.00  0.00    +0.000 S 
ATOM     25  C   UNL     1      50.365   2.933  17.331  0.00  0.00    +0.000 A 
ATOM     26  N   UNL     1      49.784   2.007  16.522  0.00  0.00    +0.000 NA
ATOM     27  C   UNL     1      48.528   2.207  16.318  0.00  0.00    +0.000 A 
ATOM     28  N   UNL     1      47.806   3.265  16.814  0.00  0.00    +0.000 N 
ATOM     29  C   UNL     1      48.384   4.290  17.531  0.00  0.00    +0.000 A 
ATOM     30  O   UNL     1      47.766   5.330  17.749  0.00  0.00    +0.000 OA
ATOM     31  C   UNL     1      49.770   4.048  17.898  0.00  0.00    +0.000 A 
ATOM     32  H   UNL     1      46.841   3.394  16.559  0.00  0.00    +0.000 HD
ENDBRANCH  20  22
ENDBRANCH   1  19
TORSDOF 7
ENDMDL
