MODEL 1
REMARK VINA RESULT:    -8.210      0.000      0.000
REMARK INTER + INTRA:         -11.586
REMARK INTER:                 -10.610
REMARK INTRA:                  -0.976
REMARK UNBOUND:                -0.976
REMARK  Name = 
REMARK  5 active torsions:
REMARK  status: ('A' for Active; 'I' for Inactive)
REMARK    1  A    between atoms: C_2  and  C_4
REMARK    2  A    between atoms: C_7  and  O_8
REMARK    3  A    between atoms: O_8  and  C_9
REMARK    4  A    between atoms: C_9  and  C_10
REMARK    5  A    between atoms: C_15  and  C_16
REMARK                            x       y       z     vdW  Elec       q    Type
REMARK                         _______ _______ _______ _____ _____    ______ ____
ROOT
ATOM      1  C   UNL     1      44.891   4.607  12.154  0.00  0.00    +0.000 A 
ATOM      2  C   UNL     1      45.621   3.594  12.787  0.00  0.00    +0.000 A 
ATOM      3  C   UNL     1      46.659   3.926  13.637  0.00  0.00    +0.000 A 
ATOM      4  F   UNL     1      47.352   2.951  14.243  0.00  0.00    +0.000 F 
ATOM      5  C   UNL     1      47.005   5.251  13.862  0.00  0.00    +0.000 A 
ATOM      6  C   UNL     1      46.347   6.290  13.188  0.00  0.00    +0.000 A 
ATOM      7  C   UNL     1      45.248   5.948  12.378  0.00  0.00    +0.000 A 
ENDROOT
BRANCH   6   8
ATOM      8  C   UNL     1      46.811   7.749  13.262  0.00  0.00    +0.000 C 
ATOM      9  C   UNL     1      47.267   8.273  11.888  0.00  0.00    +0.000 C 
ATOM     10  C   UNL     1      48.523   7.532  11.438  0.00  0.00    +0.000 C 
ATOM     11  C   UNL     1      49.642   7.575  12.480  0.00  0.00    +0.000 C 
ATOM     12  N   UNL     1      49.271   7.474  13.890  0.00  0.00    +0.000 NA
ATOM     13  C   UNL     1      47.968   8.051  14.244  0.00  0.00    +0.000 C 
ATOM     14  H   UNL     1      49.323   6.501  14.181  0.00  0.00    +0.000 HD
ENDBRANCH   6   8
BRANCH   1  15
ATOM     15  C   UNL     1      43.707   4.211  11.309  0.00  0.00    +0.000 C 
BRANCH  15  16
ATOM     16  O   UNL     1      43.861   4.605   9.947  0.00  0.00    +0.000 OA
BRANCH  16  20
ATOM     17  C   UNL     1      46.569   2.478   7.599  0.00  0.00    +0.000 A 
ATOM     18  C   UNL     1      45.726   1.761   8.447  0.00  0.00    +0.000 A 
ATOM     19  C   UNL     1      44.803   2.444   9.251  0.00  0.00    +0.000 A 
ATOM     20  C   UNL     1      44.730   3.837   9.214  0.00  0.00    +0.000 A 
ATOM     21  C   UNL     1      45.598   4.551   8.383  0.00  0.00    +0.000 A 
ATOM     22  C   UNL     1      46.522   3.875   7.580  0.00  0.00    +0.000 A 
BRANCH  17  24
ATOM     23  N   UNL     1      48.651   2.471   6.347  0.00  0.00    +0.000 N 
ATOM     24  C   UNL     1      47.535   1.775   6.718  0.00  0.00    +0.000 C 
ATOM     25  O   UNL     1      47.365   0.611   6.369  0.00  0.00    +0.000 OA
ATOM     26  H   UNL     1      49.355   1.947   5.841  0.00  0.00    +0.000 HD
ATOM     27  H   UNL     1      48.948   3.311   6.825  0.00  0.00    +0.000 HD
ENDBRANCH  17  24
ENDBRANCH  16  20
ENDBRANCH  15  16
ENDBRANCH   1  15
TORSDOF 5
ENDMDL
MODEL 2
REMARK VINA RESULT:    -7.943      1.905      2.563
REMARK INTER + INTRA:         -11.240
REMARK INTER:                 -10.394
REMARK INTRA:                  -0.846
REMARK UNBOUND:                -0.976
REMARK  Name = 
REMARK  5 active torsions:
REMARK  status: ('A' for Active; 'I' for Inactive)
REMARK    1  A    between atoms: C_2  and  C_4
REMARK    2  A    between atoms: C_7  and  O_8
REMARK    3  A    between atoms: O_8  and  C_9
REMARK    4  A    between atoms: C_9  and  C_10
REMARK    5  A    between atoms: C_15  and  C_16
REMARK                            x       y       z     vdW  Elec       q    Type
REMARK                         _______ _______ _______ _____ _____    ______ ____
ROOT
ATOM      1  C   UNL     1      44.918   5.719  11.842  0.00  0.00    +0.000 A 
ATOM      2  C   UNL     1      44.031   6.657  11.300  0.00  0.00    +0.000 A 
ATOM      3  C   UNL     1      44.300   8.007  11.422  0.00  0.00    +0.000 A 
ATOM      4  F   UNL     1      43.449   8.901  10.898  0.00  0.00    +0.000 F 
ATOM      5  C   UNL     1      45.430   8.454  12.093  0.00  0.00    +0.000 A 
ATOM      6  C   UNL     1      46.303   7.548  12.714  0.00  0.00    +0.000 A 
ATOM      7  C   UNL     1      46.058   6.175  12.525  0.00  0.00    +0.000 A 
ENDROOT
BRANCH   6   8
ATOM      8  C   UNL     1      47.458   7.997  13.616  0.00  0.00    +0.000 C 
ATOM      9  C   UNL     1      48.221   9.191  13.013  0.00  0.00    +0.000 C 
ATOM     10  C   UNL     1      48.929   8.764  11.731  0.00  0.00    +0.000 C 
ATOM     11  C   UNL     1      49.823   7.538  11.927  0.00  0.00    +0.000 C 
ATOM     12  N   UNL     1      49.351   6.480  12.819  0.00  0.00    +0.000 NA
ATOM     13  C   UNL     1      48.525   6.927  13.948  0.00  0.00    +0.000 C 
ATOM     14  H   UNL     1      48.863   5.775  12.274  0.00  0.00    +0.000 HD
ENDBRANCH   6   8
BRANCH   1  15
ATOM     15  C   UNL     1      44.640   4.257  11.606  0.00  0.00    +0.000 C 
BRANCH  15  16
ATOM     16  O   UNL     1      44.039   4.021  10.334  0.00  0.00    +0.000 OA
BRANCH  16  20
ATOM     17  C   UNL     1      46.619   2.412   7.484  0.00  0.00    +0.000 A 
ATOM     18  C   UNL     1      46.420   3.791   7.489  0.00  0.00    +0.000 A 
ATOM     19  C   UNL     1      45.559   4.367   8.433  0.00  0.00    +0.000 A 
ATOM     20  C   UNL     1      44.894   3.566   9.362  0.00  0.00    +0.000 A 
ATOM     21  C   UNL     1      45.074   2.180   9.333  0.00  0.00    +0.000 A 
ATOM     22  C   UNL     1      45.931   1.601   8.391  0.00  0.00    +0.000 A 
BRANCH  17  24
ATOM     23  N   UNL     1      48.693   2.466   6.220  0.00  0.00    +0.000 N 
ATOM     24  C   UNL     1      47.547   1.782   6.511  0.00  0.00    +0.000 C 
ATOM     25  O   UNL     1      47.319   0.681   6.020  0.00  0.00    +0.000 OA
ATOM     26  H   UNL     1      49.369   1.978   5.644  0.00  0.00    +0.000 HD
ATOM     27  H   UNL     1      49.031   3.224   6.796  0.00  0.00    +0.000 HD
ENDBRANCH  17  24
ENDBRANCH  16  20
ENDBRANCH  15  16
ENDBRANCH   1  15
TORSDOF 5
ENDMDL
MODEL 3
REMARK VINA RESULT:    -6.532      4.602      6.487
REMARK INTER + INTRA:          -9.418
REMARK INTER:                  -8.558
REMARK INTRA:                  -0.860
REMARK UNBOUND:                -0.976
REMARK  Name = 
REMARK  5 active torsions:
REMARK  status: ('A' for Active; 'I' for Inactive)
REMARK    1  A    between atoms: C_2  and  C_4
REMARK    2  A    between atoms: C_7  and  O_8
REMARK    3  A    between atoms: O_8  and  C_9
REMARK    4  A    between atoms: C_9  and  C_10
REMARK    5  A    between atoms: C_15  and  C_16
REMARK                            x       y       z     vdW  Elec       q    Type
REMARK                         _______ _______ _______ _____ _____    ______ ____
ROOT
ATOM      1  C   UNL     1      48.986   7.669  14.908  0.00  0.00    +0.000 A 
ATOM      2  C   UNL     1      48.463   8.902  15.317  0.00  0.00    +0.000 A 
ATOM      3  C   UNL     1      48.244   9.142  16.660  0.00  0.00    +0.000 A 
ATOM      4  F   UNL     1      47.745  10.325  17.046  0.00  0.00    +0.000 F 
ATOM      5  C   UNL     1      48.516   8.172  17.615  0.00  0.00    +0.000 A 
ATOM      6  C   UNL     1      48.969   6.900  17.238  0.00  0.00    +0.000 A 
ATOM      7  C   UNL     1      49.255   6.687  15.877  0.00  0.00    +0.000 A 
ENDROOT
BRANCH   6   8
ATOM      8  C   UNL     1      49.109   5.742  18.234  0.00  0.00    +0.000 C 
ATOM      9  C   UNL     1      49.471   4.422  17.527  0.00  0.00    +0.000 C 
ATOM     10  C   UNL     1      48.317   3.975  16.635  0.00  0.00    +0.000 C 
ATOM     11  C   UNL     1      46.986   3.891  17.385  0.00  0.00    +0.000 C 
ATOM     12  N   UNL     1      46.701   4.909  18.393  0.00  0.00    +0.000 NA
ATOM     13  C   UNL     1      47.869   5.437  19.108  0.00  0.00    +0.000 C 
ATOM     14  H   UNL     1      46.171   5.664  17.966  0.00  0.00    +0.000 HD
ENDBRANCH   6   8
BRANCH   1  15
ATOM     15  C   UNL     1      49.302   7.478  13.446  0.00  0.00    +0.000 C 
BRANCH  15  16
ATOM     16  O   UNL     1      48.808   6.237  12.947  0.00  0.00    +0.000 OA
BRANCH  16  20
ATOM     17  C   UNL     1      44.673   5.782  12.689  0.00  0.00    +0.000 A 
ATOM     18  C   UNL     1      45.258   6.870  12.045  0.00  0.00    +0.000 A 
ATOM     19  C   UNL     1      46.646   7.055  12.111  0.00  0.00    +0.000 A 
ATOM     20  C   UNL     1      47.443   6.160  12.825  0.00  0.00    +0.000 A 
ATOM     21  C   UNL     1      46.848   5.086  13.493  0.00  0.00    +0.000 A 
ATOM     22  C   UNL     1      45.463   4.899  13.432  0.00  0.00    +0.000 A 
BRANCH  17  24
ATOM     23  N   UNL     1      42.512   6.306  11.711  0.00  0.00    +0.000 N 
ATOM     24  C   UNL     1      43.208   5.550  12.611  0.00  0.00    +0.000 C 
ATOM     25  O   UNL     1      42.652   4.694  13.291  0.00  0.00    +0.000 OA
ATOM     26  H   UNL     1      41.536   6.062  11.586  0.00  0.00    +0.000 HD
ATOM     27  H   UNL     1      42.966   6.812  10.963  0.00  0.00    +0.000 HD
ENDBRANCH  17  24
ENDBRANCH  16  20
ENDBRANCH  15  16
ENDBRANCH   1  15
TORSDOF 5
ENDMDL
MODEL 4
REMARK VINA RESULT:    -6.487      3.540      5.635
REMARK INTER + INTRA:          -9.359
REMARK INTER:                  -8.561
REMARK INTRA:                  -0.798
REMARK UNBOUND:                -0.976
REMARK  Name = 
REMARK  5 active torsions:
REMARK  status: ('A' for Active; 'I' for Inactive)
REMARK    1  A    between atoms: C_2  and  C_4
REMARK    2  A    between atoms: C_7  and  O_8
REMARK    3  A    between atoms: O_8  and  C_9
REMARK    4  A    between atoms: C_9  and  C_10
REMARK    5  A    between atoms: C_15  and  C_16
REMARK                            x       y       z     vdW  Elec       q    Type
REMARK                         _______ _______ _______ _____ _____    ______ ____
ROOT
ATOM      1  C   UNL     1      48.929   7.001  14.372  0.00  0.00    +0.000 A 
ATOM      2  C   UNL     1      50.182   7.606  14.530  0.00  0.00    +0.000 A 
ATOM      3  C   UNL     1      50.916   7.373  15.678  0.00  0.00    +0.000 A 
ATOM      4  F   UNL     1      52.116   7.953  15.823  0.00  0.00    +0.000 F 
ATOM      5  C   UNL     1      50.423   6.562  16.691  0.00  0.00    +0.000 A 
ATOM      6  C   UNL     1      49.141   6.000  16.602  0.00  0.00    +0.000 A 
ATOM      7  C   UNL     1      48.430   6.185  15.402  0.00  0.00    +0.000 A 
ENDROOT
BRANCH   6   8
ATOM      8  C   UNL     1      48.484   5.251  17.767  0.00  0.00    +0.000 C 
ATOM      9  C   UNL     1      49.441   4.221  18.397  0.00  0.00    +0.000 C 
ATOM     10  C   UNL     1      49.742   3.110  17.396  0.00  0.00    +0.000 C 
ATOM     11  C   UNL     1      48.477   2.462  16.831  0.00  0.00    +0.000 C 
ATOM     12  N   UNL     1      47.330   3.324  16.553  0.00  0.00    +0.000 NA
ATOM     13  C   UNL     1      47.180   4.483  17.441  0.00  0.00    +0.000 C 
ATOM     14  H   UNL     1      47.360   3.618  15.581  0.00  0.00    +0.000 HD
ENDBRANCH   6   8
BRANCH   1  15
ATOM     15  C   UNL     1      48.201   7.200  13.068  0.00  0.00    +0.000 C 
BRANCH  15  16
ATOM     16  O   UNL     1      46.785   7.227  13.240  0.00  0.00    +0.000 OA
BRANCH  16  20
ATOM     17  C   UNL     1      44.699   4.040  11.547  0.00  0.00    +0.000 A 
ATOM     18  C   UNL     1      45.205   5.023  10.698  0.00  0.00    +0.000 A 
ATOM     19  C   UNL     1      45.912   6.109  11.233  0.00  0.00    +0.000 A 
ATOM     20  C   UNL     1      46.103   6.216  12.611  0.00  0.00    +0.000 A 
ATOM     21  C   UNL     1      45.569   5.243  13.459  0.00  0.00    +0.000 A 
ATOM     22  C   UNL     1      44.861   4.158  12.931  0.00  0.00    +0.000 A 
BRANCH  17  24
ATOM     23  N   UNL     1      44.546   2.222   9.943  0.00  0.00    +0.000 N 
ATOM     24  C   UNL     1      43.971   2.867  11.002  0.00  0.00    +0.000 C 
ATOM     25  O   UNL     1      42.924   2.466  11.500  0.00  0.00    +0.000 OA
ATOM     26  H   UNL     1      44.100   1.360   9.651  0.00  0.00    +0.000 HD
ATOM     27  H   UNL     1      45.515   2.356   9.689  0.00  0.00    +0.000 HD
ENDBRANCH  17  24
ENDBRANCH  16  20
ENDBRANCH  15  16
ENDBRANCH   1  15
TORSDOF 5
ENDMDL
MODEL 5
REMARK VINA RESULT:    -6.284      5.101      7.950
REMARK INTER + INTRA:          -9.097
REMARK INTER:                  -8.465
REMARK INTRA:                  -0.632
REMARK UNBOUND:                -0.976
REMARK  Name = 
REMARK  5 active torsions:
REMARK  status: ('A' for Active; 'I' for Inactive)
REMARK    1  A    between atoms: C_2  and  C_4
REMARK    2  A    between atoms: C_7  and  O_8
REMARK    3  A    between atoms: O_8  and  C_9
REMARK    4  A    between atoms: C_9  and  C_10
REMARK    5  A    between atoms: C_15  and  C_16
REMARK                            x       y       z     vdW  Elec       q    Type
REMARK                         _______ _______ _______ _____ _____    ______ ____
ROOT
ATOM      1  C   UNL     1      47.004   4.726  14.610  0.00  0.00    +0.000 A 
ATOM      2  C   UNL     1      47.779   5.849  14.296  0.00  0.00    +0.000 A 
ATOM      3  C   UNL     1      47.574   6.511  13.100  0.00  0.00    +0.000 A 
ATOM      4  F   UNL     1      48.317   7.588  12.806  0.00  0.00    +0.000 F 
ATOM      5  C   UNL     1      46.622   6.070  12.191  0.00  0.00    +0.000 A 
ATOM      6  C   UNL     1      45.879   4.907  12.437  0.00  0.00    +0.000 A 
ATOM      7  C   UNL     1      46.044   4.279  13.685  0.00  0.00    +0.000 A 
ENDROOT
BRANCH   6   8
ATOM      8  C   UNL     1      44.952   4.280  11.389  0.00  0.00    +0.000 C 
ATOM      9  C   UNL     1      44.384   5.339  10.425  0.00  0.00    +0.000 C 
ATOM     10  C   UNL     1      43.461   6.291  11.180  0.00  0.00    +0.000 C 
ATOM     11  C   UNL     1      42.364   5.561  11.958  0.00  0.00    +0.000 C 
ATOM     12  N   UNL     1      42.709   4.299  12.610  0.00  0.00    +0.000 NA
ATOM     13  C   UNL     1      43.734   3.496  11.932  0.00  0.00    +0.000 C 
ATOM     14  H   UNL     1      42.978   4.483  13.574  0.00  0.00    +0.000 HD
ENDBRANCH   6   8
BRANCH   1  15
ATOM     15  C   UNL     1      47.189   4.088  15.963  0.00  0.00    +0.000 C 
BRANCH  15  16
ATOM     16  O   UNL     1      48.112   4.809  16.776  0.00  0.00    +0.000 OA
BRANCH  16  20
ATOM     17  C   UNL     1      51.511   2.564  17.661  0.00  0.00    +0.000 A 
ATOM     18  C   UNL     1      51.602   3.953  17.731  0.00  0.00    +0.000 A 
ATOM     19  C   UNL     1      50.479   4.740  17.440  0.00  0.00    +0.000 A 
ATOM     20  C   UNL     1      49.274   4.140  17.072  0.00  0.00    +0.000 A 
ATOM     21  C   UNL     1      49.197   2.748  16.975  0.00  0.00    +0.000 A 
ATOM     22  C   UNL     1      50.316   1.959  17.263  0.00  0.00    +0.000 A 
BRANCH  17  24
ATOM     23  N   UNL     1      53.370   2.021  19.129  0.00  0.00    +0.000 N 
ATOM     24  C   UNL     1      52.679   1.710  17.992  0.00  0.00    +0.000 C 
ATOM     25  O   UNL     1      52.989   0.744  17.302  0.00  0.00    +0.000 OA
ATOM     26  H   UNL     1      54.093   1.367  19.403  0.00  0.00    +0.000 HD
ATOM     27  H   UNL     1      52.989   2.625  19.844  0.00  0.00    +0.000 HD
ENDBRANCH  17  24
ENDBRANCH  16  20
ENDBRANCH  15  16
ENDBRANCH   1  15
TORSDOF 5
ENDMDL
MODEL 6
REMARK VINA RESULT:    -6.138      5.049      8.907
REMARK INTER + INTRA:          -8.908
REMARK INTER:                  -8.271
REMARK INTRA:                  -0.637
REMARK UNBOUND:                -0.976
REMARK  Name = 
REMARK  5 active torsions:
REMARK  status: ('A' for Active; 'I' for Inactive)
REMARK    1  A    between atoms: C_2  and  C_4
REMARK    2  A    between atoms: C_7  and  O_8
REMARK    3  A    between atoms: O_8  and  C_9
REMARK    4  A    between atoms: C_9  and  C_10
REMARK    5  A    between atoms: C_15  and  C_16
REMARK                            x       y       z     vdW  Elec       q    Type
REMARK                         _______ _______ _______ _____ _____    ______ ____
ROOT
ATOM      1  C   UNL     1      46.802   4.887  14.211  0.00  0.00    +0.000 A 
ATOM      2  C   UNL     1      47.607   5.772  13.484  0.00  0.00    +0.000 A 
ATOM      3  C   UNL     1      47.095   6.406  12.368  0.00  0.00    +0.000 A 
ATOM      4  F   UNL     1      47.869   7.255  11.677  0.00  0.00    +0.000 F 
ATOM      5  C   UNL     1      45.796   6.167  11.941  0.00  0.00    +0.000 A 
ATOM      6  C   UNL     1      44.985   5.231  12.599  0.00  0.00    +0.000 A 
ATOM      7  C   UNL     1      45.489   4.642  13.773  0.00  0.00    +0.000 A 
ENDROOT
BRANCH   6   8
ATOM      8  C   UNL     1      43.616   4.799  12.060  0.00  0.00    +0.000 C 
ATOM      9  C   UNL     1      43.511   3.268  11.928  0.00  0.00    +0.000 C 
ATOM     10  C   UNL     1      44.479   2.769  10.859  0.00  0.00    +0.000 C 
ATOM     11  C   UNL     1      44.299   3.485   9.518  0.00  0.00    +0.000 C 
ATOM     12  N   UNL     1      43.997   4.914   9.538  0.00  0.00    +0.000 NA
ATOM     13  C   UNL     1      43.207   5.378  10.684  0.00  0.00    +0.000 C 
ATOM     14  H   UNL     1      44.864   5.441   9.463  0.00  0.00    +0.000 HD
ENDBRANCH   6   8
BRANCH   1  15
ATOM     15  C   UNL     1      47.363   4.288  15.475  0.00  0.00    +0.000 C 
BRANCH  15  16
ATOM     16  O   UNL     1      48.556   4.945  15.899  0.00  0.00    +0.000 OA
BRANCH  16  20
ATOM     17  C   UNL     1      48.991   5.020  20.043  0.00  0.00    +0.000 A 
ATOM     18  C   UNL     1      50.096   4.671  19.271  0.00  0.00    +0.000 A 
ATOM     19  C   UNL     1      49.987   4.635  17.874  0.00  0.00    +0.000 A 
ATOM     20  C   UNL     1      48.774   4.938  17.254  0.00  0.00    +0.000 A 
ATOM     21  C   UNL     1      47.661   5.259  18.035  0.00  0.00    +0.000 A 
ATOM     22  C   UNL     1      47.765   5.295  19.430  0.00  0.00    +0.000 A 
BRANCH  17  24
ATOM     23  N   UNL     1      50.261   5.570  22.040  0.00  0.00    +0.000 N 
ATOM     24  C   UNL     1      49.090   5.092  21.523  0.00  0.00    +0.000 C 
ATOM     25  O   UNL     1      48.154   4.776  22.250  0.00  0.00    +0.000 OA
ATOM     26  H   UNL     1      50.277   5.720  23.042  0.00  0.00    +0.000 HD
ATOM     27  H   UNL     1      50.931   6.080  21.481  0.00  0.00    +0.000 HD
ENDBRANCH  17  24
ENDBRANCH  16  20
ENDBRANCH  15  16
ENDBRANCH   1  15
TORSDOF 5
ENDMDL
MODEL 7
REMARK VINA RESULT:    -6.010      4.538      8.334
REMARK INTER + INTRA:          -8.743
REMARK INTER:                  -7.989
REMARK INTRA:                  -0.754
REMARK UNBOUND:                -0.976
REMARK  Name = 
REMARK  5 active torsions:
REMARK  status: ('A' for Active; 'I' for Inactive)
REMARK    1  A    between atoms: C_2  and  C_4
REMARK    2  A    between atoms: C_7  and  O_8
REMARK    3  A    between atoms: O_8  and  C_9
REMARK    4  A    between atoms: C_9  and  C_10
REMARK    5  A    between atoms: C_15  and  C_16
REMARK                            x       y       z     vdW  Elec       q    Type
REMARK                         _______ _______ _______ _____ _____    ______ ____
ROOT
ATOM      1  C   UNL     1      47.176   7.141  13.339  0.00  0.00    +0.000 A 
ATOM      2  C   UNL     1      46.715   8.461  13.270  0.00  0.00    +0.000 A 
ATOM      3  C   UNL     1      45.593   8.758  12.519  0.00  0.00    +0.000 A 
ATOM      4  F   UNL     1      45.155  10.024  12.459  0.00  0.00    +0.000 F 
ATOM      5  C   UNL     1      44.922   7.770  11.813  0.00  0.00    +0.000 A 
ATOM      6  C   UNL     1      45.396   6.450  11.797  0.00  0.00    +0.000 A 
ATOM      7  C   UNL     1      46.497   6.143  12.618  0.00  0.00    +0.000 A 
ENDROOT
BRANCH   6   8
ATOM      8  C   UNL     1      44.799   5.367  10.891  0.00  0.00    +0.000 C 
ATOM      9  C   UNL     1      43.260   5.356  10.953  0.00  0.00    +0.000 C 
ATOM     10  C   UNL     1      42.797   4.938  12.346  0.00  0.00    +0.000 C 
ATOM     11  C   UNL     1      43.409   3.612  12.801  0.00  0.00    +0.000 C 
ATOM     12  N   UNL     1      44.800   3.340  12.445  0.00  0.00    +0.000 NA
ATOM     13  C   UNL     1      45.250   3.913  11.171  0.00  0.00    +0.000 C 
ATOM     14  H   UNL     1      45.405   3.638  13.206  0.00  0.00    +0.000 HD
ENDBRANCH   6   8
BRANCH   1  15
ATOM     15  C   UNL     1      48.343   6.840  14.243  0.00  0.00    +0.000 C 
BRANCH  15  16
ATOM     16  O   UNL     1      48.325   5.494  14.715  0.00  0.00    +0.000 OA
BRANCH  16  20
ATOM     17  C   UNL     1      48.159   5.272  18.874  0.00  0.00    +0.000 A 
ATOM     18  C   UNL     1      47.548   4.261  18.135  0.00  0.00    +0.000 A 
ATOM     19  C   UNL     1      47.584   4.303  16.735  0.00  0.00    +0.000 A 
ATOM     20  C   UNL     1      48.220   5.357  16.077  0.00  0.00    +0.000 A 
ATOM     21  C   UNL     1      48.806   6.382  16.823  0.00  0.00    +0.000 A 
ATOM     22  C   UNL     1      48.771   6.346  18.221  0.00  0.00    +0.000 A 
BRANCH  17  24
ATOM     23  N   UNL     1      47.698   6.347  21.004  0.00  0.00    +0.000 N 
ATOM     24  C   UNL     1      48.158   5.234  20.359  0.00  0.00    +0.000 C 
ATOM     25  O   UNL     1      48.514   4.238  20.980  0.00  0.00    +0.000 OA
ATOM     26  H   UNL     1      47.596   6.269  22.009  0.00  0.00    +0.000 HD
ATOM     27  H   UNL     1      47.157   7.060  20.533  0.00  0.00    +0.000 HD
ENDBRANCH  17  24
ENDBRANCH  16  20
ENDBRANCH  15  16
ENDBRANCH   1  15
TORSDOF 5
ENDMDL
MODEL 8
REMARK VINA RESULT:    -5.939      4.663      6.652
REMARK INTER + INTRA:          -8.651
REMARK INTER:                  -8.253
REMARK INTRA:                  -0.398
REMARK UNBOUND:                -0.976
REMARK  Name = 
REMARK  5 active torsions:
REMARK  status: ('A' for Active; 'I' for Inactive)
REMARK    1  A    between atoms: C_2  and  C_4
REMARK    2  A    between atoms: C_7  and  O_8
REMARK    3  A    between atoms: O_8  and  C_9
REMARK    4  A    between atoms: C_9  and  C_10
REMARK    5  A    between atoms: C_15  and  C_16
REMARK                            x       y       z     vdW  Elec       q    Type
REMARK                         _______ _______ _______ _____ _____    ______ ____
ROOT
ATOM      1  C   UNL     1      48.372   5.422  16.433  0.00  0.00    +0.000 A 
ATOM      2  C   UNL     1      47.629   4.238  16.515  0.00  0.00    +0.000 A 
ATOM      3  C   UNL     1      47.675   3.478  17.668  0.00  0.00    +0.000 A 
ATOM      4  F   UNL     1      46.959   2.346  17.742  0.00  0.00    +0.000 F 
ATOM      5  C   UNL     1      48.462   3.858  18.746  0.00  0.00    +0.000 A 
ATOM      6  C   UNL     1      49.277   4.997  18.674  0.00  0.00    +0.000 A 
ATOM      7  C   UNL     1      49.173   5.802  17.524  0.00  0.00    +0.000 A 
ENDROOT
BRANCH   6   8
ATOM      8  C   UNL     1      50.296   5.356  19.762  0.00  0.00    +0.000 C 
ATOM      9  C   UNL     1      49.802   4.950  21.163  0.00  0.00    +0.000 C 
ATOM     10  C   UNL     1      48.580   5.779  21.545  0.00  0.00    +0.000 C 
ATOM     11  C   UNL     1      48.824   7.285  21.426  0.00  0.00    +0.000 C 
ATOM     12  N   UNL     1      49.638   7.761  20.309  0.00  0.00    +0.000 NA
ATOM     13  C   UNL     1      50.696   6.847  19.863  0.00  0.00    +0.000 C 
ATOM     14  H   UNL     1      49.030   8.012  19.535  0.00  0.00    +0.000 HD
ENDBRANCH   6   8
BRANCH   1  15
ATOM     15  C   UNL     1      48.223   6.273  15.198  0.00  0.00    +0.000 C 
BRANCH  15  16
ATOM     16  O   UNL     1      48.193   5.491  14.006  0.00  0.00    +0.000 OA
BRANCH  16  20
ATOM     17  C   UNL     1      44.596   5.572  11.902  0.00  0.00    +0.000 A 
ATOM     18  C   UNL     1      45.578   6.502  11.565  0.00  0.00    +0.000 A 
ATOM     19  C   UNL     1      46.800   6.503  12.251  0.00  0.00    +0.000 A 
ATOM     20  C   UNL     1      47.034   5.586  13.277  0.00  0.00    +0.000 A 
ATOM     21  C   UNL     1      46.035   4.676  13.630  0.00  0.00    +0.000 A 
ATOM     22  C   UNL     1      44.813   4.672  12.949  0.00  0.00    +0.000 A 
BRANCH  17  24
ATOM     23  N   UNL     1      42.240   6.152  11.764  0.00  0.00    +0.000 N 
ATOM     24  C   UNL     1      43.304   5.533  11.171  0.00  0.00    +0.000 C 
ATOM     25  O   UNL     1      43.202   5.007  10.068  0.00  0.00    +0.000 OA
ATOM     26  H   UNL     1      41.396   6.217  11.208  0.00  0.00    +0.000 HD
ATOM     27  H   UNL     1      42.352   6.812  12.522  0.00  0.00    +0.000 HD
ENDBRANCH  17  24
ENDBRANCH  16  20
ENDBRANCH  15  16
ENDBRANCH   1  15
TORSDOF 5
ENDMDL
MODEL 9
REMARK VINA RESULT:    -5.750      4.402      7.058
REMARK INTER + INTRA:          -8.407
REMARK INTER:                  -7.610
REMARK INTRA:                  -0.797
REMARK UNBOUND:                -0.976
REMARK  Name = 
REMARK  5 active torsions:
REMARK  status: ('A' for Active; 'I' for Inactive)
REMARK    1  A    between atoms: C_2  and  C_4
REMARK    2  A    between atoms: C_7  and  O_8
REMARK    3  A    between atoms: O_8  and  C_9
REMARK    4  A    between atoms: C_9  and  C_10
REMARK    5  A    between atoms: C_15  and  C_16
REMARK                            x       y       z     vdW  Elec       q    Type
REMARK                         _______ _______ _______ _____ _____    ______ ____
ROOT
ATOM      1  C   UNL     1      46.646   4.921  13.652  0.00  0.00    +0.000 A 
ATOM      2  C   UNL     1      45.513   4.982  12.832  0.00  0.00    +0.000 A 
ATOM      3  C   UNL     1      45.219   6.149  12.154  0.00  0.00    +0.000 A 
ATOM      4  F   UNL     1      44.134   6.201  11.368  0.00  0.00    +0.000 F 
ATOM      5  C   UNL     1      46.020   7.275  12.285  0.00  0.00    +0.000 A 
ATOM      6  C   UNL     1      47.120   7.276  13.155  0.00  0.00    +0.000 A 
ATOM      7  C   UNL     1      47.452   6.064  13.788  0.00  0.00    +0.000 A 
ENDROOT
BRANCH   6   8
ATOM      8  C   UNL     1      47.923   8.544  13.472  0.00  0.00    +0.000 C 
ATOM      9  C   UNL     1      48.320   9.303  12.192  0.00  0.00    +0.000 C 
ATOM     10  C   UNL     1      49.298   8.468  11.372  0.00  0.00    +0.000 C 
ATOM     11  C   UNL     1      50.515   8.015  12.183  0.00  0.00    +0.000 C 
ATOM     12  N   UNL     1      50.305   7.630  13.577  0.00  0.00    +0.000 NA
ATOM     13  C   UNL     1      49.230   8.344  14.276  0.00  0.00    +0.000 C 
ATOM     14  H   UNL     1      50.160   6.625  13.629  0.00  0.00    +0.000 HD
ENDBRANCH   6   8
BRANCH   1  15
ATOM     15  C   UNL     1      46.987   3.604  14.300  0.00  0.00    +0.000 C 
BRANCH  15  16
ATOM     16  O   UNL     1      46.900   3.665  15.723  0.00  0.00    +0.000 OA
BRANCH  16  20
ATOM     17  C   UNL     1      50.539   3.469  17.745  0.00  0.00    +0.000 A 
ATOM     18  C   UNL     1      49.983   2.282  17.274  0.00  0.00    +0.000 A 
ATOM     19  C   UNL     1      48.760   2.310  16.589  0.00  0.00    +0.000 A 
ATOM     20  C   UNL     1      48.093   3.519  16.386  0.00  0.00    +0.000 A 
ATOM     21  C   UNL     1      48.642   4.703  16.886  0.00  0.00    +0.000 A 
ATOM     22  C   UNL     1      49.861   4.679  17.572  0.00  0.00    +0.000 A 
BRANCH  17  24
ATOM     23  N   UNL     1      52.517   2.279  18.502  0.00  0.00    +0.000 N 
ATOM     24  C   UNL     1      51.847   3.468  18.449  0.00  0.00    +0.000 C 
ATOM     25  O   UNL     1      52.325   4.492  18.926  0.00  0.00    +0.000 OA
ATOM     26  H   UNL     1      53.455   2.313  18.884  0.00  0.00    +0.000 HD
ATOM     27  H   UNL     1      52.286   1.500  17.900  0.00  0.00    +0.000 HD
ENDBRANCH  17  24
ENDBRANCH  16  20
ENDBRANCH  15  16
ENDBRANCH   1  15
TORSDOF 5
ENDMDL
