MODEL 1
REMARK VINA RESULT:    -8.335      0.000      0.000
REMARK INTER + INTRA:         -12.459
REMARK INTER:                 -11.746
REMARK INTRA:                  -0.713
REMARK UNBOUND:                -0.713
REMARK  Name = 
REMARK  9 active torsions:
REMARK  status: ('A' for Active; 'I' for Inactive)
REMARK    1  A    between atoms: C_1  and  O_2
REMARK    2  A    between atoms: O_2  and  C_3
REMARK    3  A    between atoms: C_6  and  C_7
REMARK    4  A    between atoms: C_7  and  C_8
REMARK    5  A    between atoms: C_8  and  N_9
REMARK    6  A    between atoms: C_13  and  C_14
REMARK    7  A    between atoms: C_20  and  N_21
REMARK    8  A    between atoms: N_21  and  C_22
REMARK    9  A    between atoms: N_24  and  C_25
REMARK                            x       y       z     vdW  Elec       q    Type
REMARK                         _______ _______ _______ _____ _____    ______ ____
ROOT
ATOM      1  C   UNL     1      47.349   6.037  13.514  0.00  0.00    +0.000 A 
ATOM      2  C   UNL     1      46.693   6.921  12.645  0.00  0.00    +0.000 A 
ATOM      3  C   UNL     1      45.364   6.734  12.284  0.00  0.00    +0.000 A 
ATOM      4  C   UNL     1      44.639   5.637  12.752  0.00  0.00    +0.000 A 
ATOM      5  C   UNL     1      45.299   4.742  13.613  0.00  0.00    +0.000 A 
ATOM      6  C   UNL     1      46.643   4.928  14.033  0.00  0.00    +0.000 A 
ENDROOT
BRANCH   1   8
ATOM      7  C   UNL     1      49.152   7.545  13.858  0.00  0.00    +0.000 C 
ATOM      8  O   UNL     1      48.681   6.198  13.816  0.00  0.00    +0.000 OA
ENDBRANCH   1   8
BRANCH   6   9
ATOM      9  N   UNL     1      47.182   3.931  14.900  0.00  0.00    +0.000 N 
ATOM     10  H   UNL     1      47.023   2.996  14.531  0.00  0.00    +0.000 HD
BRANCH   9  11
ATOM     11  C   UNL     1      47.225   3.928  16.347  0.00  0.00    +0.000 C 
ATOM     12  C   UNL     1      48.211   4.985  16.915  0.00  0.00    +0.000 C 
ATOM     13  N   UNL     1      48.983   3.931  17.600  0.00  0.00    +0.000 NA
ATOM     14  C   UNL     1      48.739   3.971  19.043  0.00  0.00    +0.000 C 
ATOM     15  C   UNL     1      48.171   2.874  16.965  0.00  0.00    +0.000 C 
ENDBRANCH   9  11
ENDBRANCH   6   9
BRANCH   4  16
ATOM     16  C   UNL     1      43.190   5.394  12.349  0.00  0.00    +0.000 C 
BRANCH  16  17
ATOM     17  C   UNL     1      43.057   4.573  11.061  0.00  0.00    +0.000 C 
BRANCH  17  18
ATOM     18  N   UNL     1      43.787   5.116   9.911  0.00  0.00    +0.000 N 
ATOM     19  C   UNL     1      44.578   4.099   9.319  0.00  0.00    +0.000 A 
ATOM     20  C   UNL     1      45.351   4.397   8.204  0.00  0.00    +0.000 A 
ATOM     21  C   UNL     1      46.119   3.386   7.614  0.00  0.00    +0.000 A 
ATOM     22  C   UNL     1      46.108   2.095   8.151  0.00  0.00    +0.000 A 
ATOM     23  C   UNL     1      45.309   1.889   9.257  0.00  0.00    +0.000 A 
ATOM     24  N   UNL     1      44.555   2.850   9.836  0.00  0.00    +0.000 NA
ATOM     25  H   UNL     1      44.403   5.881  10.172  0.00  0.00    +0.000 HD
BRANCH  22  26
ATOM     26  C   UNL     1      46.936   1.026   7.540  0.00  0.00    +0.000 C 
ATOM     27  N   UNL     1      47.963   1.379   6.712  0.00  0.00    +0.000 N 
ATOM     28  O   UNL     1      46.718  -0.151   7.786  0.00  0.00    +0.000 OA
ATOM     29  H   UNL     1      48.234   2.313   6.461  0.00  0.00    +0.000 HD
ATOM     30  H   UNL     1      48.516   0.622   6.321  0.00  0.00    +0.000 HD
ENDBRANCH  22  26
ENDBRANCH  17  18
ENDBRANCH  16  17
ENDBRANCH   4  16
TORSDOF 7
ENDMDL
MODEL 2
REMARK VINA RESULT:    -7.990      2.735      4.564
REMARK INTER + INTRA:         -11.972
REMARK INTER:                 -11.152
REMARK INTRA:                  -0.820
REMARK UNBOUND:                -0.713
REMARK  Name = 
REMARK  9 active torsions:
REMARK  status: ('A' for Active; 'I' for Inactive)
REMARK    1  A    between atoms: C_1  and  O_2
REMARK    2  A    between atoms: O_2  and  C_3
REMARK    3  A    between atoms: C_6  and  C_7
REMARK    4  A    between atoms: C_7  and  C_8
REMARK    5  A    between atoms: C_8  and  N_9
REMARK    6  A    between atoms: C_13  and  C_14
REMARK    7  A    between atoms: C_20  and  N_21
REMARK    8  A    between atoms: N_21  and  C_22
REMARK    9  A    between atoms: N_24  and  C_25
REMARK                            x       y       z     vdW  Elec       q    Type
REMARK                         _______ _______ _______ _____ _____    ______ ____
ROOT
ATOM      1  C   UNL     1      46.703   6.534  13.219  0.00  0.00    +0.000 A 
ATOM      2  C   UNL     1      46.987   5.163  13.304  0.00  0.00    +0.000 A 
ATOM      3  C   UNL     1      46.005   4.202  13.097  0.00  0.00    +0.000 A 
ATOM      4  C   UNL     1      44.686   4.570  12.824  0.00  0.00    +0.000 A 
ATOM      5  C   UNL     1      44.396   5.944  12.751  0.00  0.00    +0.000 A 
ATOM      6  C   UNL     1      45.386   6.949  12.918  0.00  0.00    +0.000 A 
ENDROOT
BRANCH   1   8
ATOM      7  C   UNL     1      48.669   7.645  12.481  0.00  0.00    +0.000 C 
ATOM      8  O   UNL     1      47.669   7.476  13.486  0.00  0.00    +0.000 OA
ENDBRANCH   1   8
BRANCH   6   9
ATOM      9  N   UNL     1      44.941   8.302  12.828  0.00  0.00    +0.000 N 
ATOM     10  H   UNL     1      44.048   8.428  13.298  0.00  0.00    +0.000 HD
BRANCH   9  11
ATOM     11  C   UNL     1      45.091   9.224  11.721  0.00  0.00    +0.000 C 
ATOM     12  C   UNL     1      46.105  10.359  12.026  0.00  0.00    +0.000 C 
ATOM     13  N   UNL     1      45.063  11.380  11.808  0.00  0.00    +0.000 NA
ATOM     14  C   UNL     1      45.282  12.074  10.538  0.00  0.00    +0.000 C 
ATOM     15  C   UNL     1      44.025  10.341  11.661  0.00  0.00    +0.000 C 
ENDBRANCH   9  11
ENDBRANCH   6   9
BRANCH   4  16
ATOM     16  C   UNL     1      43.585   3.537  12.620  0.00  0.00    +0.000 C 
BRANCH  16  17
ATOM     17  C   UNL     1      43.482   3.051  11.169  0.00  0.00    +0.000 C 
BRANCH  17  18
ATOM     18  N   UNL     1      43.876   4.041  10.163  0.00  0.00    +0.000 N 
ATOM     19  C   UNL     1      44.788   3.459   9.246  0.00  0.00    +0.000 A 
ATOM     20  C   UNL     1      45.288   4.224   8.200  0.00  0.00    +0.000 A 
ATOM     21  C   UNL     1      46.177   3.641   7.289  0.00  0.00    +0.000 A 
ATOM     22  C   UNL     1      46.557   2.304   7.441  0.00  0.00    +0.000 A 
ATOM     23  C   UNL     1      46.009   1.619   8.506  0.00  0.00    +0.000 A 
ATOM     24  N   UNL     1      45.144   2.163   9.391  0.00  0.00    +0.000 NA
ATOM     25  H   UNL     1      44.324   4.854  10.576  0.00  0.00    +0.000 HD
BRANCH  22  26
ATOM     26  C   UNL     1      47.514   1.688   6.488  0.00  0.00    +0.000 C 
ATOM     27  N   UNL     1      48.697   2.323   6.239  0.00  0.00    +0.000 N 
ATOM     28  O   UNL     1      47.260   0.621   5.950  0.00  0.00    +0.000 OA
ATOM     29  H   UNL     1      49.006   3.190   6.640  0.00  0.00    +0.000 HD
ATOM     30  H   UNL     1      49.332   1.867   5.590  0.00  0.00    +0.000 HD
ENDBRANCH  22  26
ENDBRANCH  17  18
ENDBRANCH  16  17
ENDBRANCH   4  16
TORSDOF 7
ENDMDL
MODEL 3
REMARK VINA RESULT:    -6.890      3.484      5.477
REMARK INTER + INTRA:         -10.423
REMARK INTER:                  -9.551
REMARK INTRA:                  -0.872
REMARK UNBOUND:                -0.713
REMARK  Name = 
REMARK  9 active torsions:
REMARK  status: ('A' for Active; 'I' for Inactive)
REMARK    1  A    between atoms: C_1  and  O_2
REMARK    2  A    between atoms: O_2  and  C_3
REMARK    3  A    between atoms: C_6  and  C_7
REMARK    4  A    between atoms: C_7  and  C_8
REMARK    5  A    between atoms: C_8  and  N_9
REMARK    6  A    between atoms: C_13  and  C_14
REMARK    7  A    between atoms: C_20  and  N_21
REMARK    8  A    between atoms: N_21  and  C_22
REMARK    9  A    between atoms: N_24  and  C_25
REMARK                            x       y       z     vdW  Elec       q    Type
REMARK                         _______ _______ _______ _____ _____    ______ ____
ROOT
ATOM      1  C   UNL     1      47.004   8.576  12.052  0.00  0.00    +0.000 A 
ATOM      2  C   UNL     1      47.349   7.222  11.927  0.00  0.00    +0.000 A 
ATOM      3  C   UNL     1      46.397   6.215  12.030  0.00  0.00    +0.000 A 
ATOM      4  C   UNL     1      45.059   6.515  12.292  0.00  0.00    +0.000 A 
ATOM      5  C   UNL     1      44.712   7.871  12.429  0.00  0.00    +0.000 A 
ATOM      6  C   UNL     1      45.655   8.925  12.289  0.00  0.00    +0.000 A 
ENDROOT
BRANCH   1   8
ATOM      7  C   UNL     1      49.158   9.298  12.747  0.00  0.00    +0.000 C 
ATOM      8  O   UNL     1      47.964   9.559  12.009  0.00  0.00    +0.000 OA
ENDBRANCH   1   8
BRANCH   6   9
ATOM      9  N   UNL     1      45.158  10.251  12.467  0.00  0.00    +0.000 N 
ATOM     10  H   UNL     1      44.811  10.390  13.413  0.00  0.00    +0.000 HD
BRANCH   9  11
ATOM     11  C   UNL     1      44.447  11.077  11.515  0.00  0.00    +0.000 C 
ATOM     12  C   UNL     1      42.953  10.672  11.375  0.00  0.00    +0.000 C 
ATOM     13  N   UNL     1      43.135  10.411   9.935  0.00  0.00    +0.000 NA
ATOM     14  C   UNL     1      42.507  11.466   9.138  0.00  0.00    +0.000 C 
ATOM     15  C   UNL     1      44.591  10.636  10.041  0.00  0.00    +0.000 C 
ENDBRANCH   9  11
ENDBRANCH   6   9
BRANCH   4  16
ATOM     16  C   UNL     1      44.001   5.429  12.437  0.00  0.00    +0.000 C 
BRANCH  16  17
ATOM     17  C   UNL     1      43.429   4.968  11.090  0.00  0.00    +0.000 C 
BRANCH  17  18
ATOM     18  N   UNL     1      43.574   3.533  10.823  0.00  0.00    +0.000 N 
ATOM     19  C   UNL     1      44.509   3.330   9.776  0.00  0.00    +0.000 A 
ATOM     20  C   UNL     1      44.802   2.037   9.364  0.00  0.00    +0.000 A 
ATOM     21  C   UNL     1      45.736   1.841   8.339  0.00  0.00    +0.000 A 
ATOM     22  C   UNL     1      46.357   2.941   7.739  0.00  0.00    +0.000 A 
ATOM     23  C   UNL     1      46.007   4.188   8.213  0.00  0.00    +0.000 A 
ATOM     24  N   UNL     1      45.113   4.397   9.207  0.00  0.00    +0.000 NA
ATOM     25  H   UNL     1      42.696   3.102  10.548  0.00  0.00    +0.000 HD
BRANCH  22  26
ATOM     26  C   UNL     1      47.333   2.737   6.640  0.00  0.00    +0.000 C 
ATOM     27  N   UNL     1      47.127   3.372   5.448  0.00  0.00    +0.000 N 
ATOM     28  O   UNL     1      48.317   2.031   6.800  0.00  0.00    +0.000 OA
ATOM     29  H   UNL     1      46.363   3.984   5.221  0.00  0.00    +0.000 HD
ATOM     30  H   UNL     1      47.821   3.219   4.722  0.00  0.00    +0.000 HD
ENDBRANCH  22  26
ENDBRANCH  17  18
ENDBRANCH  16  17
ENDBRANCH   4  16
TORSDOF 7
ENDMDL
MODEL 4
REMARK VINA RESULT:    -6.867      3.432      6.162
REMARK INTER + INTRA:         -10.389
REMARK INTER:                  -9.651
REMARK INTRA:                  -0.739
REMARK UNBOUND:                -0.713
REMARK  Name = 
REMARK  9 active torsions:
REMARK  status: ('A' for Active; 'I' for Inactive)
REMARK    1  A    between atoms: C_1  and  O_2
REMARK    2  A    between atoms: O_2  and  C_3
REMARK    3  A    between atoms: C_6  and  C_7
REMARK    4  A    between atoms: C_7  and  C_8
REMARK    5  A    between atoms: C_8  and  N_9
REMARK    6  A    between atoms: C_13  and  C_14
REMARK    7  A    between atoms: C_20  and  N_21
REMARK    8  A    between atoms: N_21  and  C_22
REMARK    9  A    between atoms: N_24  and  C_25
REMARK                            x       y       z     vdW  Elec       q    Type
REMARK                         _______ _______ _______ _____ _____    ______ ____
ROOT
ATOM      1  C   UNL     1      44.103   3.223  10.159  0.00  0.00    +0.000 A 
ATOM      2  C   UNL     1      44.529   2.140   9.377  0.00  0.00    +0.000 A 
ATOM      3  C   UNL     1      45.467   2.298   8.363  0.00  0.00    +0.000 A 
ATOM      4  C   UNL     1      45.999   3.553   8.066  0.00  0.00    +0.000 A 
ATOM      5  C   UNL     1      45.565   4.644   8.841  0.00  0.00    +0.000 A 
ATOM      6  C   UNL     1      44.639   4.507   9.910  0.00  0.00    +0.000 A 
ENDROOT
BRANCH   1   8
ATOM      7  C   UNL     1      43.594   2.712  12.423  0.00  0.00    +0.000 C 
ATOM      8  O   UNL     1      43.132   3.066  11.119  0.00  0.00    +0.000 OA
ENDBRANCH   1   8
BRANCH   6   9
ATOM      9  N   UNL     1      44.283   5.705  10.599  0.00  0.00    +0.000 N 
ATOM     10  H   UNL     1      44.064   6.454   9.947  0.00  0.00    +0.000 HD
BRANCH   9  11
ATOM     11  C   UNL     1      44.827   6.223  11.837  0.00  0.00    +0.000 C 
ATOM     12  C   UNL     1      45.631   7.535  11.631  0.00  0.00    +0.000 C 
ATOM     13  N   UNL     1      46.843   6.908  12.190  0.00  0.00    +0.000 NA
ATOM     14  C   UNL     1      47.117   7.425  13.531  0.00  0.00    +0.000 C 
ATOM     15  C   UNL     1      46.172   5.595  12.265  0.00  0.00    +0.000 C 
ENDBRANCH   9  11
ENDBRANCH   6   9
BRANCH   4  16
ATOM     16  C   UNL     1      47.007   3.758   6.942  0.00  0.00    +0.000 C 
BRANCH  16  17
ATOM     17  C   UNL     1      47.264   2.483   6.130  0.00  0.00    +0.000 C 
BRANCH  17  18
ATOM     18  N   UNL     1      46.687   2.489   4.782  0.00  0.00    +0.000 N 
ATOM     19  C   UNL     1      46.642   1.167   4.272  0.00  0.00    +0.000 A 
ATOM     20  C   UNL     1      46.123   0.941   3.003  0.00  0.00    +0.000 A 
ATOM     21  C   UNL     1      46.069  -0.368   2.510  0.00  0.00    +0.000 A 
ATOM     22  C   UNL     1      46.540  -1.430   3.288  0.00  0.00    +0.000 A 
ATOM     23  C   UNL     1      47.036  -1.114   4.536  0.00  0.00    +0.000 A 
ATOM     24  N   UNL     1      47.090   0.143   5.033  0.00  0.00    +0.000 NA
ATOM     25  H   UNL     1      47.225   3.057   4.134  0.00  0.00    +0.000 HD
BRANCH  22  26
ATOM     26  C   UNL     1      46.501  -2.816   2.760  0.00  0.00    +0.000 C 
ATOM     27  N   UNL     1      45.288  -3.402   2.533  0.00  0.00    +0.000 N 
ATOM     28  O   UNL     1      47.533  -3.420   2.512  0.00  0.00    +0.000 OA
ATOM     29  H   UNL     1      44.386  -2.988   2.687  0.00  0.00    +0.000 HD
ATOM     30  H   UNL     1      45.299  -4.347   2.160  0.00  0.00    +0.000 HD
ENDBRANCH  22  26
ENDBRANCH  17  18
ENDBRANCH  16  17
ENDBRANCH   4  16
TORSDOF 7
ENDMDL
MODEL 5
REMARK VINA RESULT:    -6.662      1.979      2.536
REMARK INTER + INTRA:         -10.101
REMARK INTER:                  -9.421
REMARK INTRA:                  -0.680
REMARK UNBOUND:                -0.713
REMARK  Name = 
REMARK  9 active torsions:
REMARK  status: ('A' for Active; 'I' for Inactive)
REMARK    1  A    between atoms: C_1  and  O_2
REMARK    2  A    between atoms: O_2  and  C_3
REMARK    3  A    between atoms: C_6  and  C_7
REMARK    4  A    between atoms: C_7  and  C_8
REMARK    5  A    between atoms: C_8  and  N_9
REMARK    6  A    between atoms: C_13  and  C_14
REMARK    7  A    between atoms: C_20  and  N_21
REMARK    8  A    between atoms: N_21  and  C_22
REMARK    9  A    between atoms: N_24  and  C_25
REMARK                            x       y       z     vdW  Elec       q    Type
REMARK                         _______ _______ _______ _____ _____    ______ ____
ROOT
ATOM      1  C   UNL     1      46.968   8.297  12.466  0.00  0.00    +0.000 A 
ATOM      2  C   UNL     1      45.821   8.643  11.737  0.00  0.00    +0.000 A 
ATOM      3  C   UNL     1      44.715   7.804  11.677  0.00  0.00    +0.000 A 
ATOM      4  C   UNL     1      44.718   6.565  12.320  0.00  0.00    +0.000 A 
ATOM      5  C   UNL     1      45.871   6.209  13.042  0.00  0.00    +0.000 A 
ATOM      6  C   UNL     1      47.001   7.063  13.155  0.00  0.00    +0.000 A 
ENDROOT
BRANCH   1   8
ATOM      7  C   UNL     1      47.850  10.478  12.138  0.00  0.00    +0.000 C 
ATOM      8  O   UNL     1      48.078   9.107  12.469  0.00  0.00    +0.000 OA
ENDBRANCH   1   8
BRANCH   6   9
ATOM      9  N   UNL     1      48.103   6.562  13.911  0.00  0.00    +0.000 N 
ATOM     10  H   UNL     1      48.110   5.545  13.923  0.00  0.00    +0.000 HD
BRANCH   9  11
ATOM     11  C   UNL     1      48.685   7.109  15.119  0.00  0.00    +0.000 C 
ATOM     12  C   UNL     1      50.220   7.317  14.998  0.00  0.00    +0.000 C 
ATOM     13  N   UNL     1      50.454   6.417  16.143  0.00  0.00    +0.000 NA
ATOM     14  C   UNL     1      50.849   7.183  17.326  0.00  0.00    +0.000 C 
ATOM     15  C   UNL     1      49.022   6.064  16.206  0.00  0.00    +0.000 C 
ENDBRANCH   9  11
ENDBRANCH   6   9
BRANCH   4  16
ATOM     16  C   UNL     1      43.529   5.614  12.247  0.00  0.00    +0.000 C 
BRANCH  16  17
ATOM     17  C   UNL     1      43.339   5.001  10.854  0.00  0.00    +0.000 C 
BRANCH  17  18
ATOM     18  N   UNL     1      43.613   3.562  10.776  0.00  0.00    +0.000 N 
ATOM     19  C   UNL     1      44.501   3.299   9.703  0.00  0.00    +0.000 A 
ATOM     20  C   UNL     1      44.900   1.992   9.451  0.00  0.00    +0.000 A 
ATOM     21  C   UNL     1      45.788   1.739   8.399  0.00  0.00    +0.000 A 
ATOM     22  C   UNL     1      46.259   2.794   7.611  0.00  0.00    +0.000 A 
ATOM     23  C   UNL     1      45.812   4.059   7.934  0.00  0.00    +0.000 A 
ATOM     24  N   UNL     1      44.961   4.324   8.951  0.00  0.00    +0.000 NA
ATOM     25  H   UNL     1      42.769   3.017  10.626  0.00  0.00    +0.000 HD
BRANCH  22  26
ATOM     26  C   UNL     1      47.185   2.526   6.483  0.00  0.00    +0.000 C 
ATOM     27  N   UNL     1      48.205   1.635   6.664  0.00  0.00    +0.000 N 
ATOM     28  O   UNL     1      47.030   3.075   5.403  0.00  0.00    +0.000 OA
ATOM     29  H   UNL     1      48.407   1.121   7.503  0.00  0.00    +0.000 HD
ATOM     30  H   UNL     1      48.812   1.467   5.867  0.00  0.00    +0.000 HD
ENDBRANCH  22  26
ENDBRANCH  17  18
ENDBRANCH  16  17
ENDBRANCH   4  16
TORSDOF 7
ENDMDL
MODEL 6
REMARK VINA RESULT:    -6.658      3.808      7.493
REMARK INTER + INTRA:         -10.096
REMARK INTER:                  -9.069
REMARK INTRA:                  -1.026
REMARK UNBOUND:                -0.713
REMARK  Name = 
REMARK  9 active torsions:
REMARK  status: ('A' for Active; 'I' for Inactive)
REMARK    1  A    between atoms: C_1  and  O_2
REMARK    2  A    between atoms: O_2  and  C_3
REMARK    3  A    between atoms: C_6  and  C_7
REMARK    4  A    between atoms: C_7  and  C_8
REMARK    5  A    between atoms: C_8  and  N_9
REMARK    6  A    between atoms: C_13  and  C_14
REMARK    7  A    between atoms: C_20  and  N_21
REMARK    8  A    between atoms: N_21  and  C_22
REMARK    9  A    between atoms: N_24  and  C_25
REMARK                            x       y       z     vdW  Elec       q    Type
REMARK                         _______ _______ _______ _____ _____    ______ ____
ROOT
ATOM      1  C   UNL     1      45.212   9.965  12.058  0.00  0.00    +0.000 A 
ATOM      2  C   UNL     1      46.251  10.866  11.782  0.00  0.00    +0.000 A 
ATOM      3  C   UNL     1      47.570  10.443  11.665  0.00  0.00    +0.000 A 
ATOM      4  C   UNL     1      47.913   9.102  11.848  0.00  0.00    +0.000 A 
ATOM      5  C   UNL     1      46.874   8.198  12.137  0.00  0.00    +0.000 A 
ATOM      6  C   UNL     1      45.512   8.594  12.222  0.00  0.00    +0.000 A 
ENDROOT
BRANCH   1   8
ATOM      7  C   UNL     1      43.454  11.360  11.279  0.00  0.00    +0.000 C 
ATOM      8  O   UNL     1      43.921  10.404  12.231  0.00  0.00    +0.000 OA
ENDBRANCH   1   8
BRANCH   6   9
ATOM      9  N   UNL     1      44.571   7.568  12.534  0.00  0.00    +0.000 N 
ATOM     10  H   UNL     1      44.351   7.559  13.527  0.00  0.00    +0.000 HD
BRANCH   9  11
ATOM     11  C   UNL     1      44.462   6.245  11.956  0.00  0.00    +0.000 C 
ATOM     12  C   UNL     1      42.991   5.754  11.867  0.00  0.00    +0.000 C 
ATOM     13  N   UNL     1      43.307   4.584  12.708  0.00  0.00    +0.000 NA
ATOM     14  C   UNL     1      43.340   3.364  11.900  0.00  0.00    +0.000 C 
ATOM     15  C   UNL     1      44.674   5.084  12.953  0.00  0.00    +0.000 C 
ENDBRANCH   9  11
ENDBRANCH   6   9
BRANCH   4  16
ATOM     16  C   UNL     1      49.354   8.616  11.752  0.00  0.00    +0.000 C 
BRANCH  16  17
ATOM     17  C   UNL     1      49.597   7.311  12.519  0.00  0.00    +0.000 C 
BRANCH  17  18
ATOM     18  N   UNL     1      50.142   7.486  13.869  0.00  0.00    +0.000 N 
ATOM     19  C   UNL     1      49.405   6.701  14.792  0.00  0.00    +0.000 A 
ATOM     20  C   UNL     1      49.759   6.714  16.135  0.00  0.00    +0.000 A 
ATOM     21  C   UNL     1      49.037   5.927  17.040  0.00  0.00    +0.000 A 
ATOM     22  C   UNL     1      47.969   5.143  16.589  0.00  0.00    +0.000 A 
ATOM     23  C   UNL     1      47.690   5.190  15.239  0.00  0.00    +0.000 A 
ATOM     24  N   UNL     1      48.381   5.938  14.349  0.00  0.00    +0.000 NA
ATOM     25  H   UNL     1      50.103   8.454  14.178  0.00  0.00    +0.000 HD
BRANCH  22  26
ATOM     26  C   UNL     1      47.190   4.322  17.549  0.00  0.00    +0.000 C 
ATOM     27  N   UNL     1      47.032   4.775  18.828  0.00  0.00    +0.000 N 
ATOM     28  O   UNL     1      46.681   3.268  17.200  0.00  0.00    +0.000 OA
ATOM     29  H   UNL     1      47.394   5.632  19.208  0.00  0.00    +0.000 HD
ATOM     30  H   UNL     1      46.483   4.193  19.454  0.00  0.00    +0.000 HD
ENDBRANCH  22  26
ENDBRANCH  17  18
ENDBRANCH  16  17
ENDBRANCH   4  16
TORSDOF 7
ENDMDL
MODEL 7
REMARK VINA RESULT:    -6.284      3.701      6.963
REMARK INTER + INTRA:          -9.568
REMARK INTER:                  -8.537
REMARK INTRA:                  -1.031
REMARK UNBOUND:                -0.713
REMARK  Name = 
REMARK  9 active torsions:
REMARK  status: ('A' for Active; 'I' for Inactive)
REMARK    1  A    between atoms: C_1  and  O_2
REMARK    2  A    between atoms: O_2  and  C_3
REMARK    3  A    between atoms: C_6  and  C_7
REMARK    4  A    between atoms: C_7  and  C_8
REMARK    5  A    between atoms: C_8  and  N_9
REMARK    6  A    between atoms: C_13  and  C_14
REMARK    7  A    between atoms: C_20  and  N_21
REMARK    8  A    between atoms: N_21  and  C_22
REMARK    9  A    between atoms: N_24  and  C_25
REMARK                            x       y       z     vdW  Elec       q    Type
REMARK                         _______ _______ _______ _____ _____    ______ ____
ROOT
ATOM      1  C   UNL     1      47.302   4.653  16.294  0.00  0.00    +0.000 A 
ATOM      2  C   UNL     1      48.230   5.458  16.971  0.00  0.00    +0.000 A 
ATOM      3  C   UNL     1      48.982   6.420  16.307  0.00  0.00    +0.000 A 
ATOM      4  C   UNL     1      48.860   6.600  14.928  0.00  0.00    +0.000 A 
ATOM      5  C   UNL     1      47.940   5.786  14.244  0.00  0.00    +0.000 A 
ATOM      6  C   UNL     1      47.129   4.823  14.902  0.00  0.00    +0.000 A 
ENDROOT
BRANCH   1   8
ATOM      7  C   UNL     1      47.403   2.643  17.556  0.00  0.00    +0.000 C 
ATOM      8  O   UNL     1      46.609   3.665  16.951  0.00  0.00    +0.000 OA
ENDBRANCH   1   8
BRANCH   6   9
ATOM      9  N   UNL     1      46.248   4.062  14.075  0.00  0.00    +0.000 N 
ATOM     10  H   UNL     1      46.541   3.089  14.024  0.00  0.00    +0.000 HD
BRANCH   9  11
ATOM     11  C   UNL     1      45.574   4.477  12.864  0.00  0.00    +0.000 C 
ATOM     12  C   UNL     1      44.344   5.383  13.148  0.00  0.00    +0.000 C 
ATOM     13  N   UNL     1      43.452   4.424  12.469  0.00  0.00    +0.000 NA
ATOM     14  C   UNL     1      43.031   4.947  11.168  0.00  0.00    +0.000 C 
ATOM     15  C   UNL     1      44.555   3.456  12.308  0.00  0.00    +0.000 C 
ENDBRANCH   9  11
ENDBRANCH   6   9
BRANCH   4  16
ATOM     16  C   UNL     1      49.693   7.628  14.171  0.00  0.00    +0.000 C 
BRANCH  16  17
ATOM     17  C   UNL     1      49.223   7.829  12.725  0.00  0.00    +0.000 C 
BRANCH  17  18
ATOM     18  N   UNL     1      49.013   9.228  12.339  0.00  0.00    +0.000 N 
ATOM     19  C   UNL     1      47.634   9.461  12.103  0.00  0.00    +0.000 A 
ATOM     20  C   UNL     1      47.209  10.729  11.729  0.00  0.00    +0.000 A 
ATOM     21  C   UNL     1      45.846  10.957  11.511  0.00  0.00    +0.000 A 
ATOM     22  C   UNL     1      44.928   9.913  11.664  0.00  0.00    +0.000 A 
ATOM     23  C   UNL     1      45.438   8.687  12.040  0.00  0.00    +0.000 A 
ATOM     24  N   UNL     1      46.751   8.450  12.263  0.00  0.00    +0.000 NA
ATOM     25  H   UNL     1      49.522   9.476  11.495  0.00  0.00    +0.000 HD
BRANCH  22  26
ATOM     26  C   UNL     1      43.484  10.147  11.415  0.00  0.00    +0.000 C 
ATOM     27  N   UNL     1      42.777   9.215  10.709  0.00  0.00    +0.000 N 
ATOM     28  O   UNL     1      42.929  11.144  11.850  0.00  0.00    +0.000 OA
ATOM     29  H   UNL     1      43.134   8.359  10.326  0.00  0.00    +0.000 HD
ATOM     30  H   UNL     1      41.788   9.403  10.568  0.00  0.00    +0.000 HD
ENDBRANCH  22  26
ENDBRANCH  17  18
ENDBRANCH  16  17
ENDBRANCH   4  16
TORSDOF 7
ENDMDL
MODEL 8
REMARK VINA RESULT:    -6.172      3.702      7.576
REMARK INTER + INTRA:          -9.410
REMARK INTER:                  -8.193
REMARK INTRA:                  -1.217
REMARK UNBOUND:                -0.713
REMARK  Name = 
REMARK  9 active torsions:
REMARK  status: ('A' for Active; 'I' for Inactive)
REMARK    1  A    between atoms: C_1  and  O_2
REMARK    2  A    between atoms: O_2  and  C_3
REMARK    3  A    between atoms: C_6  and  C_7
REMARK    4  A    between atoms: C_7  and  C_8
REMARK    5  A    between atoms: C_8  and  N_9
REMARK    6  A    between atoms: C_13  and  C_14
REMARK    7  A    between atoms: C_20  and  N_21
REMARK    8  A    between atoms: N_21  and  C_22
REMARK    9  A    between atoms: N_24  and  C_25
REMARK                            x       y       z     vdW  Elec       q    Type
REMARK                         _______ _______ _______ _____ _____    ______ ____
ROOT
ATOM      1  C   UNL     1      45.266   4.710  12.863  0.00  0.00    +0.000 A 
ATOM      2  C   UNL     1      45.212   5.521  11.720  0.00  0.00    +0.000 A 
ATOM      3  C   UNL     1      46.248   6.387  11.392  0.00  0.00    +0.000 A 
ATOM      4  C   UNL     1      47.374   6.503  12.209  0.00  0.00    +0.000 A 
ATOM      5  C   UNL     1      47.425   5.700  13.363  0.00  0.00    +0.000 A 
ATOM      6  C   UNL     1      46.401   4.776  13.703  0.00  0.00    +0.000 A 
ENDROOT
BRANCH   1   8
ATOM      7  C   UNL     1      43.543   3.249  12.129  0.00  0.00    +0.000 C 
ATOM      8  O   UNL     1      44.209   3.902  13.210  0.00  0.00    +0.000 OA
ENDBRANCH   1   8
BRANCH   6   9
ATOM      9  N   UNL     1      46.586   4.038  14.911  0.00  0.00    +0.000 N 
ATOM     10  H   UNL     1      45.694   3.789  15.331  0.00  0.00    +0.000 HD
BRANCH   9  11
ATOM     11  C   UNL     1      47.615   4.205  15.915  0.00  0.00    +0.000 C 
ATOM     12  C   UNL     1      48.164   2.848  16.436  0.00  0.00    +0.000 C 
ATOM     13  N   UNL     1      47.761   3.189  17.814  0.00  0.00    +0.000 NA
ATOM     14  C   UNL     1      48.935   3.516  18.625  0.00  0.00    +0.000 C 
ATOM     15  C   UNL     1      47.088   4.419  17.352  0.00  0.00    +0.000 C 
ENDBRANCH   9  11
ENDBRANCH   6   9
BRANCH   4  16
ATOM     16  C   UNL     1      48.511   7.465  11.887  0.00  0.00    +0.000 C 
BRANCH  16  17
ATOM     17  C   UNL     1      49.052   8.187  13.127  0.00  0.00    +0.000 C 
BRANCH  17  18
ATOM     18  N   UNL     1      50.243   7.572  13.722  0.00  0.00    +0.000 N 
ATOM     19  C   UNL     1      50.076   7.457  15.125  0.00  0.00    +0.000 A 
ATOM     20  C   UNL     1      51.088   6.893  15.891  0.00  0.00    +0.000 A 
ATOM     21  C   UNL     1      50.913   6.769  17.274  0.00  0.00    +0.000 A 
ATOM     22  C   UNL     1      49.730   7.217  17.872  0.00  0.00    +0.000 A 
ATOM     23  C   UNL     1      48.777   7.761  17.035  0.00  0.00    +0.000 A 
ATOM     24  N   UNL     1      48.926   7.882  15.697  0.00  0.00    +0.000 NA
ATOM     25  H   UNL     1      51.084   8.115  13.550  0.00  0.00    +0.000 HD
BRANCH  22  26
ATOM     26  C   UNL     1      49.548   7.104  19.340  0.00  0.00    +0.000 C 
ATOM     27  N   UNL     1      48.286   6.948  19.839  0.00  0.00    +0.000 N 
ATOM     28  O   UNL     1      50.511   7.129  20.092  0.00  0.00    +0.000 OA
ATOM     29  H   UNL     1      47.436   6.899  19.308  0.00  0.00    +0.000 HD
ATOM     30  H   UNL     1      48.201   6.863  20.848  0.00  0.00    +0.000 HD
ENDBRANCH  22  26
ENDBRANCH  17  18
ENDBRANCH  16  17
ENDBRANCH   4  16
TORSDOF 7
ENDMDL
MODEL 9
REMARK VINA RESULT:    -5.987      3.281      5.027
REMARK INTER + INTRA:          -9.150
REMARK INTER:                  -8.282
REMARK INTRA:                  -0.868
REMARK UNBOUND:                -0.713
REMARK  Name = 
REMARK  9 active torsions:
REMARK  status: ('A' for Active; 'I' for Inactive)
REMARK    1  A    between atoms: C_1  and  O_2
REMARK    2  A    between atoms: O_2  and  C_3
REMARK    3  A    between atoms: C_6  and  C_7
REMARK    4  A    between atoms: C_7  and  C_8
REMARK    5  A    between atoms: C_8  and  N_9
REMARK    6  A    between atoms: C_13  and  C_14
REMARK    7  A    between atoms: C_20  and  N_21
REMARK    8  A    between atoms: N_21  and  C_22
REMARK    9  A    between atoms: N_24  and  C_25
REMARK                            x       y       z     vdW  Elec       q    Type
REMARK                         _______ _______ _______ _____ _____    ______ ____
ROOT
ATOM      1  C   UNL     1      48.484   6.982  18.564  0.00  0.00    +0.000 A 
ATOM      2  C   UNL     1      48.841   8.284  18.184  0.00  0.00    +0.000 A 
ATOM      3  C   UNL     1      49.089   8.614  16.857  0.00  0.00    +0.000 A 
ATOM      4  C   UNL     1      49.020   7.648  15.852  0.00  0.00    +0.000 A 
ATOM      5  C   UNL     1      48.675   6.338  16.231  0.00  0.00    +0.000 A 
ATOM      6  C   UNL     1      48.375   5.980  17.573  0.00  0.00    +0.000 A 
ENDROOT
BRANCH   1   8
ATOM      7  C   UNL     1      49.458   6.740  20.717  0.00  0.00    +0.000 C 
ATOM      8  O   UNL     1      48.299   6.655  19.886  0.00  0.00    +0.000 OA
ENDBRANCH   1   8
BRANCH   6   9
ATOM      9  N   UNL     1      48.052   4.610  17.808  0.00  0.00    +0.000 N 
ATOM     10  H   UNL     1      47.174   4.520  18.314  0.00  0.00    +0.000 HD
BRANCH   9  11
ATOM     11  C   UNL     1      48.950   3.515  18.110  0.00  0.00    +0.000 C 
ATOM     12  C   UNL     1      50.428   3.848  17.769  0.00  0.00    +0.000 C 
ATOM     13  N   UNL     1      50.494   2.706  16.837  0.00  0.00    +0.000 NA
ATOM     14  C   UNL     1      51.291   1.621  17.409  0.00  0.00    +0.000 C 
ATOM     15  C   UNL     1      49.052   2.439  17.006  0.00  0.00    +0.000 C 
ENDBRANCH   9  11
ENDBRANCH   6   9
BRANCH   4  16
ATOM     16  C   UNL     1      49.315   7.976  14.394  0.00  0.00    +0.000 C 
BRANCH  16  17
ATOM     17  C   UNL     1      48.884   6.863  13.431  0.00  0.00    +0.000 C 
BRANCH  17  18
ATOM     18  N   UNL     1      47.965   7.292  12.373  0.00  0.00    +0.000 N 
ATOM     19  C   UNL     1      46.942   6.325  12.202  0.00  0.00    +0.000 A 
ATOM     20  C   UNL     1      45.954   6.535  11.248  0.00  0.00    +0.000 A 
ATOM     21  C   UNL     1      44.939   5.584  11.094  0.00  0.00    +0.000 A 
ATOM     22  C   UNL     1      44.929   4.435  11.891  0.00  0.00    +0.000 A 
ATOM     23  C   UNL     1      45.947   4.310  12.814  0.00  0.00    +0.000 A 
ATOM     24  N   UNL     1      46.931   5.221  12.982  0.00  0.00    +0.000 NA
ATOM     25  H   UNL     1      48.434   7.413  11.480  0.00  0.00    +0.000 HD
BRANCH  22  26
ATOM     26  C   UNL     1      43.864   3.416  11.716  0.00  0.00    +0.000 C 
ATOM     27  N   UNL     1      43.698   2.464  12.681  0.00  0.00    +0.000 N 
ATOM     28  O   UNL     1      43.133   3.438  10.737  0.00  0.00    +0.000 OA
ATOM     29  H   UNL     1      44.232   2.370  13.526  0.00  0.00    +0.000 HD
ATOM     30  H   UNL     1      42.952   1.790  12.533  0.00  0.00    +0.000 HD
ENDBRANCH  22  26
ENDBRANCH  17  18
ENDBRANCH  16  17
ENDBRANCH   4  16
TORSDOF 7
ENDMDL
