MODEL 1
REMARK VINA RESULT:    -8.362      0.000      0.000
REMARK INTER + INTRA:         -11.896
REMARK INTER:                 -10.806
REMARK INTRA:                  -1.089
REMARK UNBOUND:                -1.089
REMARK  Name = 
REMARK  6 active torsions:
REMARK  status: ('A' for Active; 'I' for Inactive)
REMARK    1  A    between atoms: C_1  and  C_2
REMARK    2  A    between atoms: C_2  and  N_3
REMARK    3  A    between atoms: C_2  and  C_16
REMARK    4  A    between atoms: C_4  and  C_6
REMARK    5  A    between atoms: C_19  and  O_20
REMARK    6  A    between atoms: O_20  and  C_21
REMARK                            x       y       z     vdW  Elec       q    Type
REMARK                         _______ _______ _______ _____ _____    ______ ____
ROOT
ATOM      1  C   UNL     1      45.169   8.210  12.859  0.00  0.00    +0.000 C 
ATOM      2  C   UNL     1      46.348   7.259  12.643  0.00  0.00    +0.000 C 
ENDROOT
BRANCH   2   3
ATOM      3  C   UNL     1      45.936   6.149  11.688  0.00  0.00    +0.000 A 
ATOM      4  C   UNL     1      46.244   6.300  10.325  0.00  0.00    +0.000 A 
ATOM      5  C   UNL     1      45.821   5.359   9.384  0.00  0.00    +0.000 A 
ATOM      6  C   UNL     1      45.146   4.210   9.794  0.00  0.00    +0.000 A 
ATOM      7  C   UNL     1      44.810   4.061  11.138  0.00  0.00    +0.000 A 
ATOM      8  C   UNL     1      45.186   5.030  12.077  0.00  0.00    +0.000 A 
BRANCH   6   9
ATOM      9  O   UNL     1      44.710   3.216   8.946  0.00  0.00    +0.000 OA
BRANCH   9  10
ATOM     10  C   UNL     1      45.572   2.673   8.021  0.00  0.00    +0.000 A 
ATOM     11  C   UNL     1      45.988   3.325   6.856  0.00  0.00    +0.000 A 
ATOM     12  C   UNL     1      46.844   2.682   5.960  0.00  0.00    +0.000 A 
ATOM     13  C   UNL     1      47.337   1.413   6.258  0.00  0.00    +0.000 A 
ATOM     14  C   UNL     1      46.980   0.788   7.452  0.00  0.00    +0.000 A 
ATOM     15  C   UNL     1      46.096   1.417   8.332  0.00  0.00    +0.000 A 
ENDBRANCH   9  10
ENDBRANCH   6   9
ENDBRANCH   2   3
BRANCH   2  16
ATOM     16  N   UNL     1      46.868   6.770  13.907  0.00  0.00    +0.000 N 
ATOM     17  C   UNL     1      48.205   6.537  14.101  0.00  0.00    +0.000 C 
ATOM     18  O   UNL     1      49.028   6.672  13.198  0.00  0.00    +0.000 OA
ATOM     19  H   UNL     1      46.214   6.575  14.656  0.00  0.00    +0.000 HD
BRANCH  17  20
ATOM     20  C   UNL     1      48.626   6.170  15.460  0.00  0.00    +0.000 A 
ATOM     21  C   UNL     1      49.572   6.949  16.113  0.00  0.00    +0.000 A 
ATOM     22  S   UNL     1      49.944   6.408  17.685  0.00  0.00    +0.000 S 
ATOM     23  C   UNL     1      48.888   5.084  17.534  0.00  0.00    +0.000 A 
ATOM     24  N   UNL     1      48.759   4.179  18.542  0.00  0.00    +0.000 NA
ATOM     25  C   UNL     1      47.958   3.202  18.281  0.00  0.00    +0.000 A 
ATOM     26  N   UNL     1      47.261   3.054  17.112  0.00  0.00    +0.000 N 
ATOM     27  C   UNL     1      47.305   3.980  16.100  0.00  0.00    +0.000 A 
ATOM     28  O   UNL     1      46.565   3.887  15.122  0.00  0.00    +0.000 OA
ATOM     29  C   UNL     1      48.235   5.073  16.315  0.00  0.00    +0.000 A 
ATOM     30  H   UNL     1      46.626   2.279  16.984  0.00  0.00    +0.000 HD
ENDBRANCH  17  20
ENDBRANCH   2  16
TORSDOF 5
ENDMDL
MODEL 2
REMARK VINA RESULT:    -7.611      4.154      9.800
REMARK INTER + INTRA:         -10.925
REMARK INTER:                  -9.641
REMARK INTRA:                  -1.284
REMARK UNBOUND:                -1.089
REMARK  Name = 
REMARK  6 active torsions:
REMARK  status: ('A' for Active; 'I' for Inactive)
REMARK    1  A    between atoms: C_1  and  C_2
REMARK    2  A    between atoms: C_2  and  N_3
REMARK    3  A    between atoms: C_2  and  C_16
REMARK    4  A    between atoms: C_4  and  C_6
REMARK    5  A    between atoms: C_19  and  O_20
REMARK    6  A    between atoms: O_20  and  C_21
REMARK                            x       y       z     vdW  Elec       q    Type
REMARK                         _______ _______ _______ _____ _____    ______ ____
ROOT
ATOM      1  C   UNL     1      47.776   3.152  16.831  0.00  0.00    +0.000 C 
ATOM      2  C   UNL     1      48.029   4.565  16.300  0.00  0.00    +0.000 C 
ENDROOT
BRANCH   2   3
ATOM      3  C   UNL     1      48.091   5.540  17.467  0.00  0.00    +0.000 A 
ATOM      4  C   UNL     1      49.106   6.512  17.465  0.00  0.00    +0.000 A 
ATOM      5  C   UNL     1      49.270   7.383  18.543  0.00  0.00    +0.000 A 
ATOM      6  C   UNL     1      48.378   7.350  19.615  0.00  0.00    +0.000 A 
ATOM      7  C   UNL     1      47.384   6.373  19.644  0.00  0.00    +0.000 A 
ATOM      8  C   UNL     1      47.250   5.464  18.587  0.00  0.00    +0.000 A 
BRANCH   6   9
ATOM      9  O   UNL     1      48.443   8.180  20.711  0.00  0.00    +0.000 OA
BRANCH   9  10
ATOM     10  C   UNL     1      47.439   9.093  20.944  0.00  0.00    +0.000 A 
ATOM     11  C   UNL     1      46.743   9.205  22.151  0.00  0.00    +0.000 A 
ATOM     12  C   UNL     1      45.718  10.143  22.285  0.00  0.00    +0.000 A 
ATOM     13  C   UNL     1      45.430  11.014  21.235  0.00  0.00    +0.000 A 
ATOM     14  C   UNL     1      46.168  10.951  20.055  0.00  0.00    +0.000 A 
ATOM     15  C   UNL     1      47.171   9.990  19.908  0.00  0.00    +0.000 A 
ENDBRANCH   9  10
ENDBRANCH   6   9
ENDBRANCH   2   3
BRANCH   2  16
ATOM     16  N   UNL     1      47.053   4.932  15.292  0.00  0.00    +0.000 N 
ATOM     17  C   UNL     1      47.392   5.663  14.183  0.00  0.00    +0.000 C 
ATOM     18  O   UNL     1      48.529   6.098  14.013  0.00  0.00    +0.000 OA
ATOM     19  H   UNL     1      46.087   4.656  15.430  0.00  0.00    +0.000 HD
BRANCH  17  20
ATOM     20  C   UNL     1      46.347   5.861  13.170  0.00  0.00    +0.000 A 
ATOM     21  C   UNL     1      46.029   7.150  12.762  0.00  0.00    +0.000 A 
ATOM     22  S   UNL     1      44.813   7.216  11.571  0.00  0.00    +0.000 S 
ATOM     23  C   UNL     1      44.633   5.526  11.589  0.00  0.00    +0.000 A 
ATOM     24  N   UNL     1      43.704   4.917  10.803  0.00  0.00    +0.000 NA
ATOM     25  C   UNL     1      43.644   3.637  10.943  0.00  0.00    +0.000 A 
ATOM     26  N   UNL     1      44.437   2.904  11.786  0.00  0.00    +0.000 N 
ATOM     27  C   UNL     1      45.435   3.468  12.541  0.00  0.00    +0.000 A 
ATOM     28  O   UNL     1      46.217   2.769  13.183  0.00  0.00    +0.000 OA
ATOM     29  C   UNL     1      45.512   4.915  12.466  0.00  0.00    +0.000 A 
ATOM     30  H   UNL     1      44.359   1.898  11.826  0.00  0.00    +0.000 HD
ENDBRANCH  17  20
ENDBRANCH   2  16
TORSDOF 5
ENDMDL
MODEL 3
REMARK VINA RESULT:    -7.562      2.679      3.871
REMARK INTER + INTRA:         -10.861
REMARK INTER:                  -9.741
REMARK INTRA:                  -1.120
REMARK UNBOUND:                -1.089
REMARK  Name = 
REMARK  6 active torsions:
REMARK  status: ('A' for Active; 'I' for Inactive)
REMARK    1  A    between atoms: C_1  and  C_2
REMARK    2  A    between atoms: C_2  and  N_3
REMARK    3  A    between atoms: C_2  and  C_16
REMARK    4  A    between atoms: C_4  and  C_6
REMARK    5  A    between atoms: C_19  and  O_20
REMARK    6  A    between atoms: O_20  and  C_21
REMARK                            x       y       z     vdW  Elec       q    Type
REMARK                         _______ _______ _______ _____ _____    ______ ____
ROOT
ATOM      1  C   UNL     1      46.364   4.782  14.342  0.00  0.00    +0.000 C 
ATOM      2  C   UNL     1      46.069   5.868  13.304  0.00  0.00    +0.000 C 
ENDROOT
BRANCH   2   3
ATOM      3  C   UNL     1      45.665   5.216  11.990  0.00  0.00    +0.000 A 
ATOM      4  C   UNL     1      45.122   3.921  12.032  0.00  0.00    +0.000 A 
ATOM      5  C   UNL     1      44.808   3.234  10.858  0.00  0.00    +0.000 A 
ATOM      6  C   UNL     1      44.959   3.856   9.619  0.00  0.00    +0.000 A 
ATOM      7  C   UNL     1      45.521   5.129   9.561  0.00  0.00    +0.000 A 
ATOM      8  C   UNL     1      45.888   5.800  10.735  0.00  0.00    +0.000 A 
BRANCH   6   9
ATOM      9  O   UNL     1      44.656   3.271   8.410  0.00  0.00    +0.000 OA
BRANCH   9  10
ATOM     10  C   UNL     1      45.654   2.708   7.648  0.00  0.00    +0.000 A 
ATOM     11  C   UNL     1      46.222   3.314   6.523  0.00  0.00    +0.000 A 
ATOM     12  C   UNL     1      47.211   2.652   5.795  0.00  0.00    +0.000 A 
ATOM     13  C   UNL     1      47.680   1.412   6.225  0.00  0.00    +0.000 A 
ATOM     14  C   UNL     1      47.165   0.835   7.385  0.00  0.00    +0.000 A 
ATOM     15  C   UNL     1      46.151   1.482   8.095  0.00  0.00    +0.000 A 
ENDBRANCH   9  10
ENDBRANCH   6   9
ENDBRANCH   2   3
BRANCH   2  16
ATOM     16  N   UNL     1      47.183   6.788  13.175  0.00  0.00    +0.000 N 
ATOM     17  C   UNL     1      47.019   8.146  13.269  0.00  0.00    +0.000 C 
ATOM     18  O   UNL     1      45.911   8.660  13.409  0.00  0.00    +0.000 OA
ATOM     19  H   UNL     1      48.104   6.410  12.985  0.00  0.00    +0.000 HD
BRANCH  17  20
ATOM     20  C   UNL     1      48.237   8.966  13.252  0.00  0.00    +0.000 A 
ATOM     21  C   UNL     1      48.204  10.221  12.656  0.00  0.00    +0.000 A 
ATOM     22  S   UNL     1      49.686  11.058  12.730  0.00  0.00    +0.000 S 
ATOM     23  C   UNL     1      50.440   9.756  13.522  0.00  0.00    +0.000 A 
ATOM     24  N   UNL     1      51.760   9.812  13.850  0.00  0.00    +0.000 NA
ATOM     25  C   UNL     1      52.215   8.742  14.408  0.00  0.00    +0.000 A 
ATOM     26  N   UNL     1      51.471   7.627  14.684  0.00  0.00    +0.000 N 
ATOM     27  C   UNL     1      50.123   7.555  14.438  0.00  0.00    +0.000 A 
ATOM     28  O   UNL     1      49.458   6.594  14.819  0.00  0.00    +0.000 OA
ATOM     29  C   UNL     1      49.567   8.710  13.757  0.00  0.00    +0.000 A 
ATOM     30  H   UNL     1      51.883   6.832  15.151  0.00  0.00    +0.000 HD
ENDBRANCH  17  20
ENDBRANCH   2  16
TORSDOF 5
ENDMDL
MODEL 4
REMARK VINA RESULT:    -7.361      2.535      4.622
REMARK INTER + INTRA:         -10.601
REMARK INTER:                 -10.300
REMARK INTRA:                  -0.302
REMARK UNBOUND:                -1.089
REMARK  Name = 
REMARK  6 active torsions:
REMARK  status: ('A' for Active; 'I' for Inactive)
REMARK    1  A    between atoms: C_1  and  C_2
REMARK    2  A    between atoms: C_2  and  N_3
REMARK    3  A    between atoms: C_2  and  C_16
REMARK    4  A    between atoms: C_4  and  C_6
REMARK    5  A    between atoms: C_19  and  O_20
REMARK    6  A    between atoms: O_20  and  C_21
REMARK                            x       y       z     vdW  Elec       q    Type
REMARK                         _______ _______ _______ _____ _____    ______ ____
ROOT
ATOM      1  C   UNL     1      46.666   4.359  14.333  0.00  0.00    +0.000 C 
ATOM      2  C   UNL     1      45.829   5.406  13.594  0.00  0.00    +0.000 C 
ENDROOT
BRANCH   2   3
ATOM      3  C   UNL     1      45.508   4.901  12.195  0.00  0.00    +0.000 A 
ATOM      4  C   UNL     1      45.054   3.579  12.055  0.00  0.00    +0.000 A 
ATOM      5  C   UNL     1      44.821   3.028  10.794  0.00  0.00    +0.000 A 
ATOM      6  C   UNL     1      44.966   3.810   9.648  0.00  0.00    +0.000 A 
ATOM      7  C   UNL     1      45.443   5.114   9.769  0.00  0.00    +0.000 A 
ATOM      8  C   UNL     1      45.728   5.652  11.031  0.00  0.00    +0.000 A 
BRANCH   6   9
ATOM      9  O   UNL     1      44.738   3.365   8.365  0.00  0.00    +0.000 OA
BRANCH   9  10
ATOM     10  C   UNL     1      45.744   2.739   7.665  0.00  0.00    +0.000 A 
ATOM     11  C   UNL     1      46.302   1.507   8.020  0.00  0.00    +0.000 A 
ATOM     12  C   UNL     1      47.340   0.963   7.263  0.00  0.00    +0.000 A 
ATOM     13  C   UNL     1      47.780   1.617   6.113  0.00  0.00    +0.000 A 
ATOM     14  C   UNL     1      47.181   2.811   5.717  0.00  0.00    +0.000 A 
ATOM     15  C   UNL     1      46.164   3.373   6.493  0.00  0.00    +0.000 A 
ENDBRANCH   9  10
ENDBRANCH   6   9
ENDBRANCH   2   3
BRANCH   2  16
ATOM     16  N   UNL     1      46.479   6.703  13.606  0.00  0.00    +0.000 N 
ATOM     17  C   UNL     1      47.801   6.857  13.280  0.00  0.00    +0.000 C 
ATOM     18  O   UNL     1      48.523   5.898  13.018  0.00  0.00    +0.000 OA
ATOM     19  H   UNL     1      45.937   7.512  13.887  0.00  0.00    +0.000 HD
BRANCH  17  20
ATOM     20  C   UNL     1      48.312   8.232  13.201  0.00  0.00    +0.000 A 
ATOM     21  C   UNL     1      49.615   8.498  13.601  0.00  0.00    +0.000 A 
ATOM     22  S   UNL     1      50.067  10.133  13.434  0.00  0.00    +0.000 S 
ATOM     23  C   UNL     1      48.522  10.555  12.866  0.00  0.00    +0.000 A 
ATOM     24  N   UNL     1      48.221  11.847  12.563  0.00  0.00    +0.000 NA
ATOM     25  C   UNL     1      47.003  12.035  12.183  0.00  0.00    +0.000 A 
ATOM     26  N   UNL     1      46.061  11.050  12.062  0.00  0.00    +0.000 N 
ATOM     27  C   UNL     1      46.341   9.725  12.285  0.00  0.00    +0.000 A 
ATOM     28  O   UNL     1      45.512   8.851  12.037  0.00  0.00    +0.000 OA
ATOM     29  C   UNL     1      47.682   9.460  12.771  0.00  0.00    +0.000 A 
ATOM     30  H   UNL     1      45.131  11.261  11.729  0.00  0.00    +0.000 HD
ENDBRANCH  17  20
ENDBRANCH   2  16
TORSDOF 5
ENDMDL
MODEL 5
REMARK VINA RESULT:    -7.289      2.223      3.239
REMARK INTER + INTRA:         -10.509
REMARK INTER:                  -9.728
REMARK INTRA:                  -0.781
REMARK UNBOUND:                -1.089
REMARK  Name = 
REMARK  6 active torsions:
REMARK  status: ('A' for Active; 'I' for Inactive)
REMARK    1  A    between atoms: C_1  and  C_2
REMARK    2  A    between atoms: C_2  and  N_3
REMARK    3  A    between atoms: C_2  and  C_16
REMARK    4  A    between atoms: C_4  and  C_6
REMARK    5  A    between atoms: C_19  and  O_20
REMARK    6  A    between atoms: O_20  and  C_21
REMARK                            x       y       z     vdW  Elec       q    Type
REMARK                         _______ _______ _______ _____ _____    ______ ____
ROOT
ATOM      1  C   UNL     1      49.299   8.250  13.731  0.00  0.00    +0.000 C 
ATOM      2  C   UNL     1      48.760   6.932  14.292  0.00  0.00    +0.000 C 
ENDROOT
BRANCH   2   3
ATOM      3  C   UNL     1      47.634   6.425  13.402  0.00  0.00    +0.000 A 
ATOM      4  C   UNL     1      47.006   5.218  13.750  0.00  0.00    +0.000 A 
ATOM      5  C   UNL     1      46.024   4.656  12.932  0.00  0.00    +0.000 A 
ATOM      6  C   UNL     1      45.596   5.327  11.787  0.00  0.00    +0.000 A 
ATOM      7  C   UNL     1      46.229   6.511  11.415  0.00  0.00    +0.000 A 
ATOM      8  C   UNL     1      47.252   7.050  12.206  0.00  0.00    +0.000 A 
BRANCH   6   9
ATOM      9  O   UNL     1      44.620   4.866  10.931  0.00  0.00    +0.000 OA
BRANCH   9  10
ATOM     10  C   UNL     1      44.948   3.992   9.919  0.00  0.00    +0.000 A 
ATOM     11  C   UNL     1      44.667   2.623   9.940  0.00  0.00    +0.000 A 
ATOM     12  C   UNL     1      45.065   1.809   8.878  0.00  0.00    +0.000 A 
ATOM     13  C   UNL     1      45.686   2.372   7.765  0.00  0.00    +0.000 A 
ATOM     14  C   UNL     1      45.907   3.747   7.710  0.00  0.00    +0.000 A 
ATOM     15  C   UNL     1      45.540   4.557   8.787  0.00  0.00    +0.000 A 
ENDBRANCH   9  10
ENDBRANCH   6   9
ENDBRANCH   2   3
BRANCH   2  16
ATOM     16  N   UNL     1      48.378   7.069  15.685  0.00  0.00    +0.000 N 
ATOM     17  C   UNL     1      49.104   6.496  16.698  0.00  0.00    +0.000 C 
ATOM     18  O   UNL     1      50.082   5.786  16.476  0.00  0.00    +0.000 OA
ATOM     19  H   UNL     1      47.535   7.586  15.907  0.00  0.00    +0.000 HD
BRANCH  17  20
ATOM     20  C   UNL     1      48.694   6.814  18.072  0.00  0.00    +0.000 A 
ATOM     21  C   UNL     1      48.405   8.130  18.409  0.00  0.00    +0.000 A 
ATOM     22  S   UNL     1      47.928   8.337  20.031  0.00  0.00    +0.000 S 
ATOM     23  C   UNL     1      48.135   6.681  20.357  0.00  0.00    +0.000 A 
ATOM     24  N   UNL     1      47.920   6.186  21.606  0.00  0.00    +0.000 NA
ATOM     25  C   UNL     1      48.153   4.923  21.725  0.00  0.00    +0.000 A 
ATOM     26  N   UNL     1      48.565   4.104  20.708  0.00  0.00    +0.000 N 
ATOM     27  C   UNL     1      48.722   4.547  19.418  0.00  0.00    +0.000 A 
ATOM     28  O   UNL     1      48.961   3.761  18.502  0.00  0.00    +0.000 OA
ATOM     29  C   UNL     1      48.529   5.973  19.236  0.00  0.00    +0.000 A 
ATOM     30  H   UNL     1      48.701   3.116  20.862  0.00  0.00    +0.000 HD
ENDBRANCH  17  20
ENDBRANCH   2  16
TORSDOF 5
ENDMDL
MODEL 6
REMARK VINA RESULT:    -7.276      2.485      3.396
REMARK INTER + INTRA:         -10.492
REMARK INTER:                  -9.223
REMARK INTRA:                  -1.268
REMARK UNBOUND:                -1.089
REMARK  Name = 
REMARK  6 active torsions:
REMARK  status: ('A' for Active; 'I' for Inactive)
REMARK    1  A    between atoms: C_1  and  C_2
REMARK    2  A    between atoms: C_2  and  N_3
REMARK    3  A    between atoms: C_2  and  C_16
REMARK    4  A    between atoms: C_4  and  C_6
REMARK    5  A    between atoms: C_19  and  O_20
REMARK    6  A    between atoms: O_20  and  C_21
REMARK                            x       y       z     vdW  Elec       q    Type
REMARK                         _______ _______ _______ _____ _____    ______ ____
ROOT
ATOM      1  C   UNL     1      48.086   8.920  14.211  0.00  0.00    +0.000 C 
ATOM      2  C   UNL     1      48.252   7.404  14.338  0.00  0.00    +0.000 C 
ENDROOT
BRANCH   2   3
ATOM      3  C   UNL     1      47.310   6.707  13.368  0.00  0.00    +0.000 A 
ATOM      4  C   UNL     1      46.812   7.447  12.282  0.00  0.00    +0.000 A 
ATOM      5  C   UNL     1      45.880   6.894  11.402  0.00  0.00    +0.000 A 
ATOM      6  C   UNL     1      45.481   5.566  11.545  0.00  0.00    +0.000 A 
ATOM      7  C   UNL     1      45.945   4.829  12.633  0.00  0.00    +0.000 A 
ATOM      8  C   UNL     1      46.839   5.398  13.549  0.00  0.00    +0.000 A 
BRANCH   6   9
ATOM      9  O   UNL     1      44.587   4.925  10.717  0.00  0.00    +0.000 OA
BRANCH   9  10
ATOM     10  C   UNL     1      45.042   4.045   9.762  0.00  0.00    +0.000 A 
ATOM     11  C   UNL     1      44.847   2.661   9.810  0.00  0.00    +0.000 A 
ATOM     12  C   UNL     1      45.372   1.844   8.807  0.00  0.00    +0.000 A 
ATOM     13  C   UNL     1      46.036   2.413   7.722  0.00  0.00    +0.000 A 
ATOM     14  C   UNL     1      46.172   3.798   7.635  0.00  0.00    +0.000 A 
ATOM     15  C   UNL     1      45.677   4.613   8.655  0.00  0.00    +0.000 A 
ENDBRANCH   9  10
ENDBRANCH   6   9
ENDBRANCH   2   3
BRANCH   2  16
ATOM     16  N   UNL     1      48.090   6.970  15.713  0.00  0.00    +0.000 N 
ATOM     17  C   UNL     1      49.118   6.405  16.424  0.00  0.00    +0.000 C 
ATOM     18  O   UNL     1      50.215   6.182  15.915  0.00  0.00    +0.000 OA
ATOM     19  H   UNL     1      47.180   7.069  16.148  0.00  0.00    +0.000 HD
BRANCH  17  20
ATOM     20  C   UNL     1      48.872   6.127  17.845  0.00  0.00    +0.000 A 
ATOM     21  C   UNL     1      49.154   4.864  18.350  0.00  0.00    +0.000 A 
ATOM     22  S   UNL     1      48.832   4.701  20.015  0.00  0.00    +0.000 S 
ATOM     23  C   UNL     1      48.261   6.298  20.114  0.00  0.00    +0.000 A 
ATOM     24  N   UNL     1      47.786   6.796  21.288  0.00  0.00    +0.000 NA
ATOM     25  C   UNL     1      47.345   8.005  21.214  0.00  0.00    +0.000 A 
ATOM     26  N   UNL     1      47.349   8.771  20.079  0.00  0.00    +0.000 N 
ATOM     27  C   UNL     1      47.885   8.336  18.893  0.00  0.00    +0.000 A 
ATOM     28  O   UNL     1      47.996   9.094  17.931  0.00  0.00    +0.000 OA
ATOM     29  C   UNL     1      48.344   6.960  18.902  0.00  0.00    +0.000 A 
ATOM     30  H   UNL     1      47.015   9.724  20.097  0.00  0.00    +0.000 HD
ENDBRANCH  17  20
ENDBRANCH   2  16
TORSDOF 5
ENDMDL
MODEL 7
REMARK VINA RESULT:    -6.915      3.563      8.363
REMARK INTER + INTRA:         -10.026
REMARK INTER:                  -8.800
REMARK INTRA:                  -1.226
REMARK UNBOUND:                -1.089
REMARK  Name = 
REMARK  6 active torsions:
REMARK  status: ('A' for Active; 'I' for Inactive)
REMARK    1  A    between atoms: C_1  and  C_2
REMARK    2  A    between atoms: C_2  and  N_3
REMARK    3  A    between atoms: C_2  and  C_16
REMARK    4  A    between atoms: C_4  and  C_6
REMARK    5  A    between atoms: C_19  and  O_20
REMARK    6  A    between atoms: O_20  and  C_21
REMARK                            x       y       z     vdW  Elec       q    Type
REMARK                         _______ _______ _______ _____ _____    ______ ____
ROOT
ATOM      1  C   UNL     1      49.478   7.670  12.556  0.00  0.00    +0.000 C 
ATOM      2  C   UNL     1      48.304   7.190  13.412  0.00  0.00    +0.000 C 
ENDROOT
BRANCH   2   3
ATOM      3  C   UNL     1      48.830   6.640  14.730  0.00  0.00    +0.000 A 
ATOM      4  C   UNL     1      48.066   5.666  15.393  0.00  0.00    +0.000 A 
ATOM      5  C   UNL     1      48.450   5.181  16.645  0.00  0.00    +0.000 A 
ATOM      6  C   UNL     1      49.643   5.605  17.227  0.00  0.00    +0.000 A 
ATOM      7  C   UNL     1      50.397   6.591  16.594  0.00  0.00    +0.000 A 
ATOM      8  C   UNL     1      49.987   7.119  15.362  0.00  0.00    +0.000 A 
BRANCH   6   9
ATOM      9  O   UNL     1      50.117   5.169  18.444  0.00  0.00    +0.000 OA
BRANCH   9  10
ATOM     10  C   UNL     1      51.163   4.275  18.496  0.00  0.00    +0.000 A 
ATOM     11  C   UNL     1      52.292   4.432  19.305  0.00  0.00    +0.000 A 
ATOM     12  C   UNL     1      53.318   3.486  19.269  0.00  0.00    +0.000 A 
ATOM     13  C   UNL     1      53.188   2.349  18.472  0.00  0.00    +0.000 A 
ATOM     14  C   UNL     1      52.034   2.156  17.716  0.00  0.00    +0.000 A 
ATOM     15  C   UNL     1      51.022   3.119  17.726  0.00  0.00    +0.000 A 
ENDBRANCH   9  10
ENDBRANCH   6   9
ENDBRANCH   2   3
BRANCH   2  16
ATOM     16  N   UNL     1      47.471   6.251  12.685  0.00  0.00    +0.000 N 
ATOM     17  C   UNL     1      46.450   6.664  11.868  0.00  0.00    +0.000 C 
ATOM     18  O   UNL     1      46.148   7.850  11.755  0.00  0.00    +0.000 OA
ATOM     19  H   UNL     1      47.640   5.259  12.807  0.00  0.00    +0.000 HD
BRANCH  17  20
ATOM     20  C   UNL     1      45.763   5.629  11.085  0.00  0.00    +0.000 A 
ATOM     21  C   UNL     1      45.825   5.673   9.698  0.00  0.00    +0.000 A 
ATOM     22  S   UNL     1      44.996   4.397   8.931  0.00  0.00    +0.000 S 
ATOM     23  C   UNL     1      44.484   3.765  10.423  0.00  0.00    +0.000 A 
ATOM     24  N   UNL     1      43.687   2.663  10.476  0.00  0.00    +0.000 NA
ATOM     25  C   UNL     1      43.338   2.314  11.667  0.00  0.00    +0.000 A 
ATOM     26  N   UNL     1      43.724   2.954  12.814  0.00  0.00    +0.000 N 
ATOM     27  C   UNL     1      44.586   4.023  12.812  0.00  0.00    +0.000 A 
ATOM     28  O   UNL     1      45.020   4.490  13.864  0.00  0.00    +0.000 OA
ATOM     29  C   UNL     1      44.966   4.496  11.495  0.00  0.00    +0.000 A 
ATOM     30  H   UNL     1      43.439   2.610  13.720  0.00  0.00    +0.000 HD
ENDBRANCH  17  20
ENDBRANCH   2  16
TORSDOF 5
ENDMDL
MODEL 8
REMARK VINA RESULT:    -6.853      3.575      8.932
REMARK INTER + INTRA:          -9.945
REMARK INTER:                  -8.665
REMARK INTRA:                  -1.280
REMARK UNBOUND:                -1.089
REMARK  Name = 
REMARK  6 active torsions:
REMARK  status: ('A' for Active; 'I' for Inactive)
REMARK    1  A    between atoms: C_1  and  C_2
REMARK    2  A    between atoms: C_2  and  N_3
REMARK    3  A    between atoms: C_2  and  C_16
REMARK    4  A    between atoms: C_4  and  C_6
REMARK    5  A    between atoms: C_19  and  O_20
REMARK    6  A    between atoms: O_20  and  C_21
REMARK                            x       y       z     vdW  Elec       q    Type
REMARK                         _______ _______ _______ _____ _____    ______ ____
ROOT
ATOM      1  C   UNL     1      49.616   7.546  12.577  0.00  0.00    +0.000 C 
ATOM      2  C   UNL     1      48.358   7.213  13.383  0.00  0.00    +0.000 C 
ENDROOT
BRANCH   2   3
ATOM      3  C   UNL     1      48.757   6.737  14.772  0.00  0.00    +0.000 A 
ATOM      4  C   UNL     1      49.938   7.249  15.333  0.00  0.00    +0.000 A 
ATOM      5  C   UNL     1      50.405   6.793  16.567  0.00  0.00    +0.000 A 
ATOM      6  C   UNL     1      49.662   5.869  17.301  0.00  0.00    +0.000 A 
ATOM      7  C   UNL     1      48.503   5.331  16.744  0.00  0.00    +0.000 A 
ATOM      8  C   UNL     1      48.061   5.748  15.482  0.00  0.00    +0.000 A 
BRANCH   6   9
ATOM      9  O   UNL     1      50.026   5.377  18.534  0.00  0.00    +0.000 OA
BRANCH   9  10
ATOM     10  C   UNL     1      49.266   5.669  19.644  0.00  0.00    +0.000 A 
ATOM     11  C   UNL     1      48.805   4.715  20.556  0.00  0.00    +0.000 A 
ATOM     12  C   UNL     1      48.014   5.104  21.638  0.00  0.00    +0.000 A 
ATOM     13  C   UNL     1      47.736   6.453  21.847  0.00  0.00    +0.000 A 
ATOM     14  C   UNL     1      48.250   7.414  20.979  0.00  0.00    +0.000 A 
ATOM     15  C   UNL     1      49.014   7.023  19.877  0.00  0.00    +0.000 A 
ENDBRANCH   9  10
ENDBRANCH   6   9
ENDBRANCH   2   3
BRANCH   2  16
ATOM     16  N   UNL     1      47.511   6.274  12.671  0.00  0.00    +0.000 N 
ATOM     17  C   UNL     1      46.499   6.690  11.845  0.00  0.00    +0.000 C 
ATOM     18  O   UNL     1      46.216   7.878  11.709  0.00  0.00    +0.000 OA
ATOM     19  H   UNL     1      47.662   5.282  12.813  0.00  0.00    +0.000 HD
BRANCH  17  20
ATOM     20  C   UNL     1      45.796   5.652  11.079  0.00  0.00    +0.000 A 
ATOM     21  C   UNL     1      45.860   5.669   9.691  0.00  0.00    +0.000 A 
ATOM     22  S   UNL     1      45.010   4.394   8.947  0.00  0.00    +0.000 S 
ATOM     23  C   UNL     1      44.486   3.797  10.450  0.00  0.00    +0.000 A 
ATOM     24  N   UNL     1      43.671   2.710  10.521  0.00  0.00    +0.000 NA
ATOM     25  C   UNL     1      43.316   2.388  11.718  0.00  0.00    +0.000 A 
ATOM     26  N   UNL     1      43.711   3.043  12.854  0.00  0.00    +0.000 N 
ATOM     27  C   UNL     1      44.590   4.097  12.834  0.00  0.00    +0.000 A 
ATOM     28  O   UNL     1      45.030   4.576  13.877  0.00  0.00    +0.000 OA
ATOM     29  C   UNL     1      44.980   4.539  11.508  0.00  0.00    +0.000 A 
ATOM     30  H   UNL     1      43.420   2.720  13.765  0.00  0.00    +0.000 HD
ENDBRANCH  17  20
ENDBRANCH   2  16
TORSDOF 5
ENDMDL
MODEL 9
REMARK VINA RESULT:    -6.693      3.300      8.848
REMARK INTER + INTRA:          -9.739
REMARK INTER:                  -8.507
REMARK INTRA:                  -1.232
REMARK UNBOUND:                -1.089
REMARK  Name = 
REMARK  6 active torsions:
REMARK  status: ('A' for Active; 'I' for Inactive)
REMARK    1  A    between atoms: C_1  and  C_2
REMARK    2  A    between atoms: C_2  and  N_3
REMARK    3  A    between atoms: C_2  and  C_16
REMARK    4  A    between atoms: C_4  and  C_6
REMARK    5  A    between atoms: C_19  and  O_20
REMARK    6  A    between atoms: O_20  and  C_21
REMARK                            x       y       z     vdW  Elec       q    Type
REMARK                         _______ _______ _______ _____ _____    ______ ____
ROOT
ATOM      1  C   UNL     1      48.853   7.843  11.454  0.00  0.00    +0.000 C 
ATOM      2  C   UNL     1      47.674   7.677  12.416  0.00  0.00    +0.000 C 
ENDROOT
BRANCH   2   3
ATOM      3  C   UNL     1      48.168   7.811  13.849  0.00  0.00    +0.000 A 
ATOM      4  C   UNL     1      48.605   6.652  14.511  0.00  0.00    +0.000 A 
ATOM      5  C   UNL     1      48.992   6.692  15.852  0.00  0.00    +0.000 A 
ATOM      6  C   UNL     1      49.021   7.905  16.539  0.00  0.00    +0.000 A 
ATOM      7  C   UNL     1      48.564   9.058  15.904  0.00  0.00    +0.000 A 
ATOM      8  C   UNL     1      48.125   9.011  14.574  0.00  0.00    +0.000 A 
BRANCH   6   9
ATOM      9  O   UNL     1      49.408   8.049  17.852  0.00  0.00    +0.000 OA
BRANCH   9  10
ATOM     10  C   UNL     1      48.967   7.156  18.802  0.00  0.00    +0.000 A 
ATOM     11  C   UNL     1      47.654   7.099  19.279  0.00  0.00    +0.000 A 
ATOM     12  C   UNL     1      47.306   6.176  20.267  0.00  0.00    +0.000 A 
ATOM     13  C   UNL     1      48.253   5.266  20.733  0.00  0.00    +0.000 A 
ATOM     14  C   UNL     1      49.545   5.274  20.211  0.00  0.00    +0.000 A 
ATOM     15  C   UNL     1      49.903   6.220  19.247  0.00  0.00    +0.000 A 
ENDBRANCH   9  10
ENDBRANCH   6   9
ENDBRANCH   2   3
BRANCH   2  16
ATOM     16  N   UNL     1      46.960   6.439  12.165  0.00  0.00    +0.000 N 
ATOM     17  C   UNL     1      45.593   6.359  12.245  0.00  0.00    +0.000 C 
ATOM     18  O   UNL     1      44.905   7.316  12.593  0.00  0.00    +0.000 OA
ATOM     19  H   UNL     1      47.495   5.607  11.946  0.00  0.00    +0.000 HD
BRANCH  17  20
ATOM     20  C   UNL     1      44.976   5.089  11.842  0.00  0.00    +0.000 A 
ATOM     21  C   UNL     1      44.249   4.360  12.774  0.00  0.00    +0.000 A 
ATOM     22  S   UNL     1      43.580   2.921  12.153  0.00  0.00    +0.000 S 
ATOM     23  C   UNL     1      44.275   3.196  10.627  0.00  0.00    +0.000 A 
ATOM     24  N   UNL     1      44.115   2.298   9.617  0.00  0.00    +0.000 NA
ATOM     25  C   UNL     1      44.728   2.608   8.526  0.00  0.00    +0.000 A 
ATOM     26  N   UNL     1      45.476   3.740   8.344  0.00  0.00    +0.000 N 
ATOM     27  C   UNL     1      45.603   4.708   9.309  0.00  0.00    +0.000 A 
ATOM     28  O   UNL     1      46.167   5.774   9.069  0.00  0.00    +0.000 OA
ATOM     29  C   UNL     1      44.980   4.386  10.579  0.00  0.00    +0.000 A 
ATOM     30  H   UNL     1      45.906   3.938   7.452  0.00  0.00    +0.000 HD
ENDBRANCH  17  20
ENDBRANCH   2  16
TORSDOF 5
ENDMDL
