MODEL 1
REMARK VINA RESULT:    -7.810      0.000      0.000
REMARK INTER + INTRA:         -12.746
REMARK INTER:                 -11.462
REMARK INTRA:                  -1.283
REMARK UNBOUND:                -1.283
REMARK  Name = 
REMARK  8 active torsions:
REMARK  status: ('A' for Active; 'I' for Inactive)
REMARK    1  A    between atoms: C_2  and  C_3
REMARK    2  A    between atoms: C_8  and  C_9
REMARK    3  A    between atoms: C_9  and  N_10
REMARK    4  A    between atoms: N_10  and  C_11
REMARK    5  A    between atoms: C_11  and  C_12
REMARK    6  A    between atoms: C_15  and  C_16
REMARK    7  A    between atoms: C_16  and  N_17
REMARK    8  A    between atoms: C_18  and  C_20
REMARK                            x       y       z     vdW  Elec       q    Type
REMARK                         _______ _______ _______ _____ _____    ______ ____
ROOT
ATOM      1  C   UNL     1      44.749   4.137  11.162  0.00  0.00    +0.000 A 
ATOM      2  C   UNL     1      45.107   4.030  12.513  0.00  0.00    +0.000 A 
ATOM      3  C   UNL     1      45.877   5.021  13.129  0.00  0.00    +0.000 A 
ATOM      4  C   UNL     1      46.301   6.144  12.407  0.00  0.00    +0.000 A 
ATOM      5  C   UNL     1      45.977   6.233  11.048  0.00  0.00    +0.000 A 
ATOM      6  C   UNL     1      45.206   5.243  10.431  0.00  0.00    +0.000 A 
ENDROOT
BRANCH   1   7
ATOM      7  C   UNL     1      43.901   3.077  10.497  0.00  0.00    +0.000 C 
BRANCH   7   8
ATOM      8  N   UNL     1      44.280   2.793   9.110  0.00  0.00    +0.000 NA
ATOM      9  H   UNL     1      43.492   2.344   8.646  0.00  0.00    +0.000 HD
BRANCH   8  10
ATOM     10  C   UNL     1      45.442   1.902   9.006  0.00  0.00    +0.000 C 
BRANCH  10  16
ATOM     11  C   UNL     1      46.874   1.149   7.000  0.00  0.00    +0.000 A 
ATOM     12  C   UNL     1      47.537   1.463   5.798  0.00  0.00    +0.000 A 
ATOM     13  C   UNL     1      47.549   2.770   5.313  0.00  0.00    +0.000 A 
ATOM     14  C   UNL     1      46.902   3.775   6.022  0.00  0.00    +0.000 A 
ATOM     15  C   UNL     1      46.231   3.472   7.207  0.00  0.00    +0.000 A 
ATOM     16  C   UNL     1      46.193   2.155   7.708  0.00  0.00    +0.000 A 
BRANCH  11  18
ATOM     17  N   UNL     1      46.974  -1.306   7.838  0.00  0.00    +0.000 NA
ATOM     18  C   UNL     1      46.937  -0.208   7.462  0.00  0.00    +0.000 C 
ENDBRANCH  11  18
ENDBRANCH  10  16
ENDBRANCH   8  10
ENDBRANCH   7   8
ENDBRANCH   1   7
BRANCH   4  19
ATOM     19  C   UNL     1      47.108   7.229  13.071  0.00  0.00    +0.000 C 
BRANCH  19  20
ATOM     20  N   UNL     1      47.410   6.905  14.442  0.00  0.00    +0.000 N 
ATOM     21  C   UNL     1      48.710   6.794  14.867  0.00  0.00    +0.000 C 
ATOM     22  O   UNL     1      49.659   7.017  14.118  0.00  0.00    +0.000 OA
ATOM     23  H   UNL     1      46.662   6.504  15.000  0.00  0.00    +0.000 HD
BRANCH  21  24
ATOM     24  C   UNL     1      48.918   6.453  16.279  0.00  0.00    +0.000 A 
ATOM     25  C   UNL     1      49.442   7.406  17.144  0.00  0.00    +0.000 A 
ATOM     26  S   UNL     1      49.578   6.869  18.757  0.00  0.00    +0.000 S 
ATOM     27  C   UNL     1      48.988   5.326  18.348  0.00  0.00    +0.000 A 
ATOM     28  N   UNL     1      48.873   4.352  19.291  0.00  0.00    +0.000 NA
ATOM     29  C   UNL     1      48.442   3.222  18.837  0.00  0.00    +0.000 A 
ATOM     30  N   UNL     1      48.112   2.980  17.529  0.00  0.00    +0.000 N 
ATOM     31  C   UNL     1      48.186   3.940  16.549  0.00  0.00    +0.000 A 
ATOM     32  O   UNL     1      47.845   3.701  15.395  0.00  0.00    +0.000 OA
ATOM     33  C   UNL     1      48.676   5.228  17.004  0.00  0.00    +0.000 A 
ATOM     34  H   UNL     1      47.775   2.073  17.241  0.00  0.00    +0.000 HD
ENDBRANCH  21  24
ENDBRANCH  19  20
ENDBRANCH   4  19
TORSDOF 8
ENDMDL
MODEL 2
REMARK VINA RESULT:    -7.215      3.120      8.815
REMARK INTER + INTRA:         -11.873
REMARK INTER:                 -10.448
REMARK INTRA:                  -1.425
REMARK UNBOUND:                -1.283
REMARK  Name = 
REMARK  8 active torsions:
REMARK  status: ('A' for Active; 'I' for Inactive)
REMARK    1  A    between atoms: C_2  and  C_3
REMARK    2  A    between atoms: C_8  and  C_9
REMARK    3  A    between atoms: C_9  and  N_10
REMARK    4  A    between atoms: N_10  and  C_11
REMARK    5  A    between atoms: C_11  and  C_12
REMARK    6  A    between atoms: C_15  and  C_16
REMARK    7  A    between atoms: C_16  and  N_17
REMARK    8  A    between atoms: C_18  and  C_20
REMARK                            x       y       z     vdW  Elec       q    Type
REMARK                         _______ _______ _______ _____ _____    ______ ____
ROOT
ATOM      1  C   UNL     1      49.421   8.033  16.196  0.00  0.00    +0.000 A 
ATOM      2  C   UNL     1      48.283   8.776  15.857  0.00  0.00    +0.000 A 
ATOM      3  C   UNL     1      47.779   8.757  14.553  0.00  0.00    +0.000 A 
ATOM      4  C   UNL     1      48.401   7.987  13.561  0.00  0.00    +0.000 A 
ATOM      5  C   UNL     1      49.561   7.274  13.890  0.00  0.00    +0.000 A 
ATOM      6  C   UNL     1      50.065   7.293  15.194  0.00  0.00    +0.000 A 
ENDROOT
BRANCH   1   7
ATOM      7  C   UNL     1      49.959   8.037  17.610  0.00  0.00    +0.000 C 
BRANCH   7   8
ATOM      8  N   UNL     1      50.466   6.738  18.059  0.00  0.00    +0.000 NA
ATOM      9  H   UNL     1      51.153   6.409  17.382  0.00  0.00    +0.000 HD
BRANCH   8  10
ATOM     10  C   UNL     1      49.413   5.722  18.177  0.00  0.00    +0.000 C 
BRANCH  10  16
ATOM     11  C   UNL     1      49.162   3.285  17.376  0.00  0.00    +0.000 A 
ATOM     12  C   UNL     1      49.749   2.041  17.077  0.00  0.00    +0.000 A 
ATOM     13  C   UNL     1      51.116   1.837  17.262  0.00  0.00    +0.000 A 
ATOM     14  C   UNL     1      51.909   2.870  17.748  0.00  0.00    +0.000 A 
ATOM     15  C   UNL     1      51.338   4.110  18.036  0.00  0.00    +0.000 A 
ATOM     16  C   UNL     1      49.962   4.345  17.841  0.00  0.00    +0.000 A 
BRANCH  11  18
ATOM     17  N   UNL     1      46.594   3.502  17.063  0.00  0.00    +0.000 NA
ATOM     18  C   UNL     1      47.743   3.413  17.200  0.00  0.00    +0.000 C 
ENDBRANCH  11  18
ENDBRANCH  10  16
ENDBRANCH   8  10
ENDBRANCH   7   8
ENDBRANCH   1   7
BRANCH   4  19
ATOM     19  C   UNL     1      47.849   7.940  12.161  0.00  0.00    +0.000 C 
BRANCH  19  20
ATOM     20  N   UNL     1      47.119   6.723  11.917  0.00  0.00    +0.000 N 
ATOM     21  C   UNL     1      45.766   6.660  12.137  0.00  0.00    +0.000 C 
ATOM     22  O   UNL     1      45.120   7.642  12.494  0.00  0.00    +0.000 OA
ATOM     23  H   UNL     1      47.657   5.865  11.844  0.00  0.00    +0.000 HD
BRANCH  21  24
ATOM     24  C   UNL     1      45.110   5.374  11.867  0.00  0.00    +0.000 A 
ATOM     25  C   UNL     1      44.437   4.721  12.892  0.00  0.00    +0.000 A 
ATOM     26  S   UNL     1      43.691   3.267  12.406  0.00  0.00    +0.000 S 
ATOM     27  C   UNL     1      44.283   3.432  10.819  0.00  0.00    +0.000 A 
ATOM     28  N   UNL     1      44.020   2.489   9.875  0.00  0.00    +0.000 NA
ATOM     29  C   UNL     1      44.556   2.725   8.724  0.00  0.00    +0.000 A 
ATOM     30  N   UNL     1      45.326   3.820   8.430  0.00  0.00    +0.000 N 
ATOM     31  C   UNL     1      45.595   4.812   9.343  0.00  0.00    +0.000 A 
ATOM     32  O   UNL     1      46.255   5.799   9.037  0.00  0.00    +0.000 OA
ATOM     33  C   UNL     1      45.024   4.589  10.659  0.00  0.00    +0.000 A 
ATOM     34  H   UNL     1      45.711   3.948   7.506  0.00  0.00    +0.000 HD
ENDBRANCH  21  24
ENDBRANCH  19  20
ENDBRANCH   4  19
TORSDOF 8
ENDMDL
MODEL 3
REMARK VINA RESULT:    -7.092      3.665      8.783
REMARK INTER + INTRA:         -11.692
REMARK INTER:                  -9.831
REMARK INTRA:                  -1.861
REMARK UNBOUND:                -1.283
REMARK  Name = 
REMARK  8 active torsions:
REMARK  status: ('A' for Active; 'I' for Inactive)
REMARK    1  A    between atoms: C_2  and  C_3
REMARK    2  A    between atoms: C_8  and  C_9
REMARK    3  A    between atoms: C_9  and  N_10
REMARK    4  A    between atoms: N_10  and  C_11
REMARK    5  A    between atoms: C_11  and  C_12
REMARK    6  A    between atoms: C_15  and  C_16
REMARK    7  A    between atoms: C_16  and  N_17
REMARK    8  A    between atoms: C_18  and  C_20
REMARK                            x       y       z     vdW  Elec       q    Type
REMARK                         _______ _______ _______ _____ _____    ______ ____
ROOT
ATOM      1  C   UNL     1      48.662   7.738  16.411  0.00  0.00    +0.000 A 
ATOM      2  C   UNL     1      48.038   8.849  15.829  0.00  0.00    +0.000 A 
ATOM      3  C   UNL     1      47.956   8.976  14.438  0.00  0.00    +0.000 A 
ATOM      4  C   UNL     1      48.492   7.988  13.602  0.00  0.00    +0.000 A 
ATOM      5  C   UNL     1      49.151   6.897  14.182  0.00  0.00    +0.000 A 
ATOM      6  C   UNL     1      49.232   6.770  15.573  0.00  0.00    +0.000 A 
ENDROOT
BRANCH   1   7
ATOM      7  C   UNL     1      48.737   7.589  17.914  0.00  0.00    +0.000 C 
BRANCH   7   8
ATOM      8  N   UNL     1      47.474   7.184  18.537  0.00  0.00    +0.000 NA
ATOM      9  H   UNL     1      47.160   7.937  19.148  0.00  0.00    +0.000 HD
BRANCH   8  10
ATOM     10  C   UNL     1      47.599   5.963  19.341  0.00  0.00    +0.000 C 
BRANCH  10  16
ATOM     11  C   UNL     1      49.314   4.202  18.565  0.00  0.00    +0.000 A 
ATOM     12  C   UNL     1      49.644   3.117  17.731  0.00  0.00    +0.000 A 
ATOM     13  C   UNL     1      48.731   2.639  16.792  0.00  0.00    +0.000 A 
ATOM     14  C   UNL     1      47.482   3.238  16.675  0.00  0.00    +0.000 A 
ATOM     15  C   UNL     1      47.141   4.306  17.506  0.00  0.00    +0.000 A 
ATOM     16  C   UNL     1      48.042   4.796  18.473  0.00  0.00    +0.000 A 
BRANCH  11  18
ATOM     17  N   UNL     1      51.117   5.059  20.223  0.00  0.00    +0.000 NA
ATOM     18  C   UNL     1      50.316   4.669  19.480  0.00  0.00    +0.000 C 
ENDBRANCH  11  18
ENDBRANCH  10  16
ENDBRANCH   8  10
ENDBRANCH   7   8
ENDBRANCH   1   7
BRANCH   4  19
ATOM     19  C   UNL     1      48.384   8.105  12.103  0.00  0.00    +0.000 C 
BRANCH  19  20
ATOM     20  N   UNL     1      47.684   6.984  11.532  0.00  0.00    +0.000 N 
ATOM     21  C   UNL     1      46.317   6.996  11.415  0.00  0.00    +0.000 C 
ATOM     22  O   UNL     1      45.646   7.974  11.740  0.00  0.00    +0.000 OA
ATOM     23  H   UNL     1      48.186   6.103  11.472  0.00  0.00    +0.000 HD
BRANCH  21  24
ATOM     24  C   UNL     1      45.691   5.805  10.827  0.00  0.00    +0.000 A 
ATOM     25  C   UNL     1      45.825   5.563   9.465  0.00  0.00    +0.000 A 
ATOM     26  S   UNL     1      45.082   4.118   8.949  0.00  0.00    +0.000 S 
ATOM     27  C   UNL     1      44.511   3.789  10.517  0.00  0.00    +0.000 A 
ATOM     28  N   UNL     1      43.761   2.682  10.768  0.00  0.00    +0.000 NA
ATOM     29  C   UNL     1      43.369   2.572  11.994  0.00  0.00    +0.000 A 
ATOM     30  N   UNL     1      43.662   3.465  12.991  0.00  0.00    +0.000 N 
ATOM     31  C   UNL     1      44.439   4.582  12.791  0.00  0.00    +0.000 A 
ATOM     32  O   UNL     1      44.715   5.341  13.714  0.00  0.00    +0.000 OA
ATOM     33  C   UNL     1      44.897   4.759  11.426  0.00  0.00    +0.000 A 
ATOM     34  H   UNL     1      43.328   3.317  13.932  0.00  0.00    +0.000 HD
ENDBRANCH  21  24
ENDBRANCH  19  20
ENDBRANCH   4  19
TORSDOF 8
ENDMDL
MODEL 4
REMARK VINA RESULT:    -6.965      3.198      8.952
REMARK INTER + INTRA:         -11.506
REMARK INTER:                  -9.749
REMARK INTRA:                  -1.756
REMARK UNBOUND:                -1.283
REMARK  Name = 
REMARK  8 active torsions:
REMARK  status: ('A' for Active; 'I' for Inactive)
REMARK    1  A    between atoms: C_2  and  C_3
REMARK    2  A    between atoms: C_8  and  C_9
REMARK    3  A    between atoms: C_9  and  N_10
REMARK    4  A    between atoms: N_10  and  C_11
REMARK    5  A    between atoms: C_11  and  C_12
REMARK    6  A    between atoms: C_15  and  C_16
REMARK    7  A    between atoms: C_16  and  N_17
REMARK    8  A    between atoms: C_18  and  C_20
REMARK                            x       y       z     vdW  Elec       q    Type
REMARK                         _______ _______ _______ _____ _____    ______ ____
ROOT
ATOM      1  C   UNL     1      49.142   8.161  16.026  0.00  0.00    +0.000 A 
ATOM      2  C   UNL     1      49.607   7.149  15.175  0.00  0.00    +0.000 A 
ATOM      3  C   UNL     1      49.119   7.032  13.870  0.00  0.00    +0.000 A 
ATOM      4  C   UNL     1      48.157   7.930  13.388  0.00  0.00    +0.000 A 
ATOM      5  C   UNL     1      47.664   8.917  14.249  0.00  0.00    +0.000 A 
ATOM      6  C   UNL     1      48.153   9.035  15.554  0.00  0.00    +0.000 A 
ENDROOT
BRANCH   1   7
ATOM      7  C   UNL     1      49.681   8.302  17.432  0.00  0.00    +0.000 C 
BRANCH   7   8
ATOM      8  N   UNL     1      50.365   7.107  17.932  0.00  0.00    +0.000 NA
ATOM      9  H   UNL     1      50.639   6.535  17.134  0.00  0.00    +0.000 HD
BRANCH   8  10
ATOM     10  C   UNL     1      49.521   6.291  18.813  0.00  0.00    +0.000 C 
BRANCH  10  16
ATOM     11  C   UNL     1      49.912   3.918  17.886  0.00  0.00    +0.000 A 
ATOM     12  C   UNL     1      49.416   2.778  17.225  0.00  0.00    +0.000 A 
ATOM     13  C   UNL     1      48.105   2.744  16.754  0.00  0.00    +0.000 A 
ATOM     14  C   UNL     1      47.276   3.845  16.935  0.00  0.00    +0.000 A 
ATOM     15  C   UNL     1      47.755   4.975  17.600  0.00  0.00    +0.000 A 
ATOM     16  C   UNL     1      49.072   5.026  18.100  0.00  0.00    +0.000 A 
BRANCH  11  18
ATOM     17  N   UNL     1      52.389   3.881  18.662  0.00  0.00    +0.000 NA
ATOM     18  C   UNL     1      51.284   3.901  18.308  0.00  0.00    +0.000 C 
ENDBRANCH  11  18
ENDBRANCH  10  16
ENDBRANCH   8  10
ENDBRANCH   7   8
ENDBRANCH   1   7
BRANCH   4  19
ATOM     19  C   UNL     1      47.646   7.827  11.974  0.00  0.00    +0.000 C 
BRANCH  19  20
ATOM     20  N   UNL     1      46.969   6.577  11.743  0.00  0.00    +0.000 N 
ATOM     21  C   UNL     1      45.605   6.487  11.853  0.00  0.00    +0.000 C 
ATOM     22  O   UNL     1      44.907   7.469  12.097  0.00  0.00    +0.000 OA
ATOM     23  H   UNL     1      47.532   5.732  11.765  0.00  0.00    +0.000 HD
BRANCH  21  24
ATOM     24  C   UNL     1      45.005   5.170  11.606  0.00  0.00    +0.000 A 
ATOM     25  C   UNL     1      44.339   4.517  12.636  0.00  0.00    +0.000 A 
ATOM     26  S   UNL     1      43.660   3.023  12.176  0.00  0.00    +0.000 S 
ATOM     27  C   UNL     1      44.275   3.170  10.596  0.00  0.00    +0.000 A 
ATOM     28  N   UNL     1      44.067   2.193   9.673  0.00  0.00    +0.000 NA
ATOM     29  C   UNL     1      44.616   2.420   8.526  0.00  0.00    +0.000 A 
ATOM     30  N   UNL     1      45.348   3.536   8.217  0.00  0.00    +0.000 N 
ATOM     31  C   UNL     1      45.560   4.562   9.108  0.00  0.00    +0.000 A 
ATOM     32  O   UNL     1      46.187   5.566   8.787  0.00  0.00    +0.000 OA
ATOM     33  C   UNL     1      44.974   4.351  10.418  0.00  0.00    +0.000 A 
ATOM     34  H   UNL     1      45.746   3.655   7.297  0.00  0.00    +0.000 HD
ENDBRANCH  21  24
ENDBRANCH  19  20
ENDBRANCH   4  19
TORSDOF 8
ENDMDL
MODEL 5
REMARK VINA RESULT:    -6.955      4.102      8.414
REMARK INTER + INTRA:         -11.491
REMARK INTER:                  -9.199
REMARK INTRA:                  -2.292
REMARK UNBOUND:                -1.283
REMARK  Name = 
REMARK  8 active torsions:
REMARK  status: ('A' for Active; 'I' for Inactive)
REMARK    1  A    between atoms: C_2  and  C_3
REMARK    2  A    between atoms: C_8  and  C_9
REMARK    3  A    between atoms: C_9  and  N_10
REMARK    4  A    between atoms: N_10  and  C_11
REMARK    5  A    between atoms: C_11  and  C_12
REMARK    6  A    between atoms: C_15  and  C_16
REMARK    7  A    between atoms: C_16  and  N_17
REMARK    8  A    between atoms: C_18  and  C_20
REMARK                            x       y       z     vdW  Elec       q    Type
REMARK                         _______ _______ _______ _____ _____    ______ ____
ROOT
ATOM      1  C   UNL     1      51.107   7.085  17.332  0.00  0.00    +0.000 A 
ATOM      2  C   UNL     1      50.341   8.125  17.878  0.00  0.00    +0.000 A 
ATOM      3  C   UNL     1      49.395   8.800  17.101  0.00  0.00    +0.000 A 
ATOM      4  C   UNL     1      49.191   8.444  15.761  0.00  0.00    +0.000 A 
ATOM      5  C   UNL     1      49.982   7.432  15.204  0.00  0.00    +0.000 A 
ATOM      6  C   UNL     1      50.928   6.757  15.982  0.00  0.00    +0.000 A 
ENDROOT
BRANCH   1   7
ATOM      7  C   UNL     1      52.118   6.341  18.175  0.00  0.00    +0.000 C 
BRANCH   7   8
ATOM      8  N   UNL     1      51.957   4.885  18.153  0.00  0.00    +0.000 NA
ATOM      9  H   UNL     1      51.677   4.606  17.214  0.00  0.00    +0.000 HD
BRANCH   8  10
ATOM     10  C   UNL     1      50.938   4.408  19.096  0.00  0.00    +0.000 C 
BRANCH  10  16
ATOM     11  C   UNL     1      49.435   3.023  17.525  0.00  0.00    +0.000 A 
ATOM     12  C   UNL     1      48.189   2.830  16.899  0.00  0.00    +0.000 A 
ATOM     13  C   UNL     1      47.150   3.740  17.087  0.00  0.00    +0.000 A 
ATOM     14  C   UNL     1      47.344   4.851  17.899  0.00  0.00    +0.000 A 
ATOM     15  C   UNL     1      48.571   5.045  18.534  0.00  0.00    +0.000 A 
ATOM     16  C   UNL     1      49.630   4.130  18.372  0.00  0.00    +0.000 A 
BRANCH  11  18
ATOM     17  N   UNL     1      51.322   1.306  17.046  0.00  0.00    +0.000 NA
ATOM     18  C   UNL     1      50.473   2.069  17.255  0.00  0.00    +0.000 C 
ENDBRANCH  11  18
ENDBRANCH  10  16
ENDBRANCH   8  10
ENDBRANCH   7   8
ENDBRANCH   1   7
BRANCH   4  19
ATOM     19  C   UNL     1      48.154   9.149  14.925  0.00  0.00    +0.000 C 
BRANCH  19  20
ATOM     20  N   UNL     1      47.198   8.225  14.373  0.00  0.00    +0.000 N 
ATOM     21  C   UNL     1      47.036   8.111  13.015  0.00  0.00    +0.000 C 
ATOM     22  O   UNL     1      47.730   8.745  12.223  0.00  0.00    +0.000 OA
ATOM     23  H   UNL     1      46.478   7.873  14.997  0.00  0.00    +0.000 HD
BRANCH  21  24
ATOM     24  C   UNL     1      46.032   7.148  12.546  0.00  0.00    +0.000 A 
ATOM     25  C   UNL     1      44.928   7.602  11.834  0.00  0.00    +0.000 A 
ATOM     26  S   UNL     1      43.883   6.356  11.321  0.00  0.00    +0.000 S 
ATOM     27  C   UNL     1      44.842   5.170  12.076  0.00  0.00    +0.000 A 
ATOM     28  N   UNL     1      44.486   3.858  12.036  0.00  0.00    +0.000 NA
ATOM     29  C   UNL     1      45.285   3.070  12.675  0.00  0.00    +0.000 A 
ATOM     30  N   UNL     1      46.410   3.475  13.346  0.00  0.00    +0.000 N 
ATOM     31  C   UNL     1      46.824   4.786  13.390  0.00  0.00    +0.000 A 
ATOM     32  O   UNL     1      47.857   5.109  13.966  0.00  0.00    +0.000 OA
ATOM     33  C   UNL     1      45.952   5.715  12.695  0.00  0.00    +0.000 A 
ATOM     34  H   UNL     1      46.997   2.806  13.823  0.00  0.00    +0.000 HD
ENDBRANCH  21  24
ENDBRANCH  19  20
ENDBRANCH   4  19
TORSDOF 8
ENDMDL
MODEL 6
REMARK VINA RESULT:    -6.818      4.469      9.643
REMARK INTER + INTRA:         -11.290
REMARK INTER:                  -9.297
REMARK INTRA:                  -1.992
REMARK UNBOUND:                -1.283
REMARK  Name = 
REMARK  8 active torsions:
REMARK  status: ('A' for Active; 'I' for Inactive)
REMARK    1  A    between atoms: C_2  and  C_3
REMARK    2  A    between atoms: C_8  and  C_9
REMARK    3  A    between atoms: C_9  and  N_10
REMARK    4  A    between atoms: N_10  and  C_11
REMARK    5  A    between atoms: C_11  and  C_12
REMARK    6  A    between atoms: C_15  and  C_16
REMARK    7  A    between atoms: C_16  and  N_17
REMARK    8  A    between atoms: C_18  and  C_20
REMARK                            x       y       z     vdW  Elec       q    Type
REMARK                         _______ _______ _______ _____ _____    ______ ____
ROOT
ATOM      1  C   UNL     1      50.247   5.226  19.347  0.00  0.00    +0.000 A 
ATOM      2  C   UNL     1      50.641   4.299  18.372  0.00  0.00    +0.000 A 
ATOM      3  C   UNL     1      49.698   3.704  17.529  0.00  0.00    +0.000 A 
ATOM      4  C   UNL     1      48.339   4.028  17.641  0.00  0.00    +0.000 A 
ATOM      5  C   UNL     1      47.940   4.924  18.640  0.00  0.00    +0.000 A 
ATOM      6  C   UNL     1      48.883   5.520  19.482  0.00  0.00    +0.000 A 
ENDROOT
BRANCH   1   7
ATOM      7  C   UNL     1      51.266   5.886  20.248  0.00  0.00    +0.000 C 
BRANCH   7   8
ATOM      8  N   UNL     1      51.273   7.349  20.170  0.00  0.00    +0.000 NA
ATOM      9  H   UNL     1      50.406   7.697  20.576  0.00  0.00    +0.000 HD
BRANCH   8  10
ATOM     10  C   UNL     1      51.369   7.847  18.793  0.00  0.00    +0.000 C 
BRANCH  10  16
ATOM     11  C   UNL     1      49.361   8.410  17.278  0.00  0.00    +0.000 A 
ATOM     12  C   UNL     1      48.221   9.195  17.018  0.00  0.00    +0.000 A 
ATOM     13  C   UNL     1      47.859  10.229  17.879  0.00  0.00    +0.000 A 
ATOM     14  C   UNL     1      48.630  10.493  19.005  0.00  0.00    +0.000 A 
ATOM     15  C   UNL     1      49.755   9.713  19.277  0.00  0.00    +0.000 A 
ATOM     16  C   UNL     1      50.131   8.652  18.430  0.00  0.00    +0.000 A 
BRANCH  11  18
ATOM     17  N   UNL     1      49.971   6.573  15.549  0.00  0.00    +0.000 NA
ATOM     18  C   UNL     1      49.698   7.389  16.328  0.00  0.00    +0.000 C 
ENDBRANCH  11  18
ENDBRANCH  10  16
ENDBRANCH   8  10
ENDBRANCH   7   8
ENDBRANCH   1   7
BRANCH   4  19
ATOM     19  C   UNL     1      47.321   3.410  16.718  0.00  0.00    +0.000 C 
BRANCH  19  20
ATOM     20  N   UNL     1      46.758   4.383  15.818  0.00  0.00    +0.000 N 
ATOM     21  C   UNL     1      46.801   4.191  14.461  0.00  0.00    +0.000 C 
ATOM     22  O   UNL     1      47.266   3.167  13.965  0.00  0.00    +0.000 OA
ATOM     23  H   UNL     1      46.582   5.312  16.189  0.00  0.00    +0.000 HD
BRANCH  21  24
ATOM     24  C   UNL     1      46.209   5.241  13.623  0.00  0.00    +0.000 A 
ATOM     25  C   UNL     1      46.887   6.441  13.448  0.00  0.00    +0.000 A 
ATOM     26  S   UNL     1      46.090   7.535  12.412  0.00  0.00    +0.000 S 
ATOM     27  C   UNL     1      44.785   6.464  12.199  0.00  0.00    +0.000 A 
ATOM     28  N   UNL     1      43.721   6.808  11.423  0.00  0.00    +0.000 NA
ATOM     29  C   UNL     1      42.789   5.915  11.375  0.00  0.00    +0.000 A 
ATOM     30  N   UNL     1      42.826   4.710  12.026  0.00  0.00    +0.000 N 
ATOM     31  C   UNL     1      43.891   4.309  12.798  0.00  0.00    +0.000 A 
ATOM     32  O   UNL     1      43.910   3.207  13.336  0.00  0.00    +0.000 OA
ATOM     33  C   UNL     1      44.963   5.282  12.895  0.00  0.00    +0.000 A 
ATOM     34  H   UNL     1      42.065   4.052  11.942  0.00  0.00    +0.000 HD
ENDBRANCH  21  24
ENDBRANCH  19  20
ENDBRANCH   4  19
TORSDOF 8
ENDMDL
MODEL 7
REMARK VINA RESULT:    -6.748      4.087      8.721
REMARK INTER + INTRA:         -11.188
REMARK INTER:                  -8.669
REMARK INTRA:                  -2.519
REMARK UNBOUND:                -1.283
REMARK  Name = 
REMARK  8 active torsions:
REMARK  status: ('A' for Active; 'I' for Inactive)
REMARK    1  A    between atoms: C_2  and  C_3
REMARK    2  A    between atoms: C_8  and  C_9
REMARK    3  A    between atoms: C_9  and  N_10
REMARK    4  A    between atoms: N_10  and  C_11
REMARK    5  A    between atoms: C_11  and  C_12
REMARK    6  A    between atoms: C_15  and  C_16
REMARK    7  A    between atoms: C_16  and  N_17
REMARK    8  A    between atoms: C_18  and  C_20
REMARK                            x       y       z     vdW  Elec       q    Type
REMARK                         _______ _______ _______ _____ _____    ______ ____
ROOT
ATOM      1  C   UNL     1      51.102   7.123  17.549  0.00  0.00    +0.000 A 
ATOM      2  C   UNL     1      50.901   6.644  16.247  0.00  0.00    +0.000 A 
ATOM      3  C   UNL     1      49.989   7.266  15.389  0.00  0.00    +0.000 A 
ATOM      4  C   UNL     1      49.261   8.385  15.815  0.00  0.00    +0.000 A 
ATOM      5  C   UNL     1      49.432   8.841  17.128  0.00  0.00    +0.000 A 
ATOM      6  C   UNL     1      50.346   8.219  17.986  0.00  0.00    +0.000 A 
ENDROOT
BRANCH   1   7
ATOM      7  C   UNL     1      52.101   6.464  18.473  0.00  0.00    +0.000 C 
BRANCH   7   8
ATOM      8  N   UNL     1      51.827   5.050  18.737  0.00  0.00    +0.000 NA
ATOM      9  H   UNL     1      51.836   4.549  17.850  0.00  0.00    +0.000 HD
BRANCH   8  10
ATOM     10  C   UNL     1      50.525   4.829  19.377  0.00  0.00    +0.000 C 
BRANCH  10  16
ATOM     11  C   UNL     1      48.255   4.675  18.166  0.00  0.00    +0.000 A 
ATOM     12  C   UNL     1      47.419   4.029  17.236  0.00  0.00    +0.000 A 
ATOM     13  C   UNL     1      47.854   2.890  16.561  0.00  0.00    +0.000 A 
ATOM     14  C   UNL     1      49.125   2.384  16.807  0.00  0.00    +0.000 A 
ATOM     15  C   UNL     1      49.966   3.025  17.718  0.00  0.00    +0.000 A 
ATOM     16  C   UNL     1      49.553   4.187  18.400  0.00  0.00    +0.000 A 
BRANCH  11  18
ATOM     17  N   UNL     1      47.315   6.749  19.413  0.00  0.00    +0.000 NA
ATOM     18  C   UNL     1      47.728   5.818  18.856  0.00  0.00    +0.000 C 
ENDBRANCH  11  18
ENDBRANCH  10  16
ENDBRANCH   8  10
ENDBRANCH   7   8
ENDBRANCH   1   7
BRANCH   4  19
ATOM     19  C   UNL     1      48.296   9.076  14.888  0.00  0.00    +0.000 C 
BRANCH  19  20
ATOM     20  N   UNL     1      47.327   8.158  14.346  0.00  0.00    +0.000 N 
ATOM     21  C   UNL     1      47.069   8.124  13.000  0.00  0.00    +0.000 C 
ATOM     22  O   UNL     1      47.684   8.829  12.202  0.00  0.00    +0.000 OA
ATOM     23  H   UNL     1      46.666   7.744  14.996  0.00  0.00    +0.000 HD
BRANCH  21  24
ATOM     24  C   UNL     1      46.060   7.160  12.542  0.00  0.00    +0.000 A 
ATOM     25  C   UNL     1      44.933   7.616  11.868  0.00  0.00    +0.000 A 
ATOM     26  S   UNL     1      43.885   6.370  11.364  0.00  0.00    +0.000 S 
ATOM     27  C   UNL     1      44.873   5.180  12.072  0.00  0.00    +0.000 A 
ATOM     28  N   UNL     1      44.527   3.865  12.021  0.00  0.00    +0.000 NA
ATOM     29  C   UNL     1      45.351   3.075  12.625  0.00  0.00    +0.000 A 
ATOM     30  N   UNL     1      46.490   3.479  13.271  0.00  0.00    +0.000 N 
ATOM     31  C   UNL     1      46.894   4.791  13.325  0.00  0.00    +0.000 A 
ATOM     32  O   UNL     1      47.940   5.114  13.878  0.00  0.00    +0.000 OA
ATOM     33  C   UNL     1      45.996   5.724  12.670  0.00  0.00    +0.000 A 
ATOM     34  H   UNL     1      47.096   2.807  13.720  0.00  0.00    +0.000 HD
ENDBRANCH  21  24
ENDBRANCH  19  20
ENDBRANCH   4  19
TORSDOF 8
ENDMDL
MODEL 8
REMARK VINA RESULT:    -6.726      4.496     10.679
REMARK INTER + INTRA:         -11.155
REMARK INTER:                  -9.462
REMARK INTRA:                  -1.693
REMARK UNBOUND:                -1.283
REMARK  Name = 
REMARK  8 active torsions:
REMARK  status: ('A' for Active; 'I' for Inactive)
REMARK    1  A    between atoms: C_2  and  C_3
REMARK    2  A    between atoms: C_8  and  C_9
REMARK    3  A    between atoms: C_9  and  N_10
REMARK    4  A    between atoms: N_10  and  C_11
REMARK    5  A    between atoms: C_11  and  C_12
REMARK    6  A    between atoms: C_15  and  C_16
REMARK    7  A    between atoms: C_16  and  N_17
REMARK    8  A    between atoms: C_18  and  C_20
REMARK                            x       y       z     vdW  Elec       q    Type
REMARK                         _______ _______ _______ _____ _____    ______ ____
ROOT
ATOM      1  C   UNL     1      50.895   5.281  18.309  0.00  0.00    +0.000 A 
ATOM      2  C   UNL     1      50.831   3.898  18.096  0.00  0.00    +0.000 A 
ATOM      3  C   UNL     1      49.713   3.318  17.489  0.00  0.00    +0.000 A 
ATOM      4  C   UNL     1      48.636   4.114  17.076  0.00  0.00    +0.000 A 
ATOM      5  C   UNL     1      48.682   5.492  17.322  0.00  0.00    +0.000 A 
ATOM      6  C   UNL     1      49.801   6.071  17.929  0.00  0.00    +0.000 A 
ENDROOT
BRANCH   1   7
ATOM      7  C   UNL     1      52.110   5.914  18.949  0.00  0.00    +0.000 C 
BRANCH   7   8
ATOM      8  N   UNL     1      52.228   5.659  20.386  0.00  0.00    +0.000 NA
ATOM      9  H   UNL     1      51.748   4.786  20.600  0.00  0.00    +0.000 HD
BRANCH   8  10
ATOM     10  C   UNL     1      51.633   6.722  21.206  0.00  0.00    +0.000 C 
BRANCH  10  16
ATOM     11  C   UNL     1      49.196   7.559  21.158  0.00  0.00    +0.000 A 
ATOM     12  C   UNL     1      47.820   7.290  21.279  0.00  0.00    +0.000 A 
ATOM     13  C   UNL     1      47.371   6.008  21.593  0.00  0.00    +0.000 A 
ATOM     14  C   UNL     1      48.289   4.984  21.792  0.00  0.00    +0.000 A 
ATOM     15  C   UNL     1      49.655   5.238  21.662  0.00  0.00    +0.000 A 
ATOM     16  C   UNL     1      50.131   6.522  21.329  0.00  0.00    +0.000 A 
BRANCH  11  18
ATOM     17  N   UNL     1      49.921   9.997  20.638  0.00  0.00    +0.000 NA
ATOM     18  C   UNL     1      49.590   8.910  20.873  0.00  0.00    +0.000 C 
ENDBRANCH  11  18
ENDBRANCH  10  16
ENDBRANCH   8  10
ENDBRANCH   7   8
ENDBRANCH   1   7
BRANCH   4  19
ATOM     19  C   UNL     1      47.439   3.500  16.396  0.00  0.00    +0.000 C 
BRANCH  19  20
ATOM     20  N   UNL     1      46.773   4.444  15.536  0.00  0.00    +0.000 N 
ATOM     21  C   UNL     1      46.802   4.293  14.173  0.00  0.00    +0.000 C 
ATOM     22  O   UNL     1      47.344   3.328  13.638  0.00  0.00    +0.000 OA
ATOM     23  H   UNL     1      46.524   5.343  15.938  0.00  0.00    +0.000 HD
BRANCH  21  24
ATOM     24  C   UNL     1      46.101   5.309  13.378  0.00  0.00    +0.000 A 
ATOM     25  C   UNL     1      46.709   6.536  13.146  0.00  0.00    +0.000 A 
ATOM     26  S   UNL     1      45.787   7.586  12.168  0.00  0.00    +0.000 S 
ATOM     27  C   UNL     1      44.518   6.457  12.063  0.00  0.00    +0.000 A 
ATOM     28  N   UNL     1      43.384   6.746  11.370  0.00  0.00    +0.000 NA
ATOM     29  C   UNL     1      42.491   5.813  11.398  0.00  0.00    +0.000 A 
ATOM     30  N   UNL     1      42.632   4.616  12.051  0.00  0.00    +0.000 N 
ATOM     31  C   UNL     1      43.771   4.269  12.739  0.00  0.00    +0.000 A 
ATOM     32  O   UNL     1      43.879   3.174  13.280  0.00  0.00    +0.000 OA
ATOM     33  C   UNL     1      44.802   5.289  12.749  0.00  0.00    +0.000 A 
ATOM     34  H   UNL     1      41.896   3.925  12.029  0.00  0.00    +0.000 HD
ENDBRANCH  21  24
ENDBRANCH  19  20
ENDBRANCH   4  19
TORSDOF 8
ENDMDL
MODEL 9
REMARK VINA RESULT:    -6.656      4.307      9.008
REMARK INTER + INTRA:         -11.052
REMARK INTER:                  -8.711
REMARK INTRA:                  -2.341
REMARK UNBOUND:                -1.283
REMARK  Name = 
REMARK  8 active torsions:
REMARK  status: ('A' for Active; 'I' for Inactive)
REMARK    1  A    between atoms: C_2  and  C_3
REMARK    2  A    between atoms: C_8  and  C_9
REMARK    3  A    between atoms: C_9  and  N_10
REMARK    4  A    between atoms: N_10  and  C_11
REMARK    5  A    between atoms: C_11  and  C_12
REMARK    6  A    between atoms: C_15  and  C_16
REMARK    7  A    between atoms: C_16  and  N_17
REMARK    8  A    between atoms: C_18  and  C_20
REMARK                            x       y       z     vdW  Elec       q    Type
REMARK                         _______ _______ _______ _____ _____    ______ ____
ROOT
ATOM      1  C   UNL     1      50.671   7.339  17.978  0.00  0.00    +0.000 A 
ATOM      2  C   UNL     1      51.087   6.834  16.738  0.00  0.00    +0.000 A 
ATOM      3  C   UNL     1      50.426   7.197  15.561  0.00  0.00    +0.000 A 
ATOM      4  C   UNL     1      49.337   8.077  15.599  0.00  0.00    +0.000 A 
ATOM      5  C   UNL     1      48.896   8.551  16.841  0.00  0.00    +0.000 A 
ATOM      6  C   UNL     1      49.558   8.190  18.018  0.00  0.00    +0.000 A 
ENDROOT
BRANCH   1   7
ATOM      7  C   UNL     1      51.395   6.964  19.252  0.00  0.00    +0.000 C 
BRANCH   7   8
ATOM      8  N   UNL     1      50.529   6.385  20.282  0.00  0.00    +0.000 NA
ATOM      9  H   UNL     1      50.946   6.568  21.193  0.00  0.00    +0.000 HD
BRANCH   8  10
ATOM     10  C   UNL     1      50.360   4.934  20.137  0.00  0.00    +0.000 C 
BRANCH  10  16
ATOM     11  C   UNL     1      49.546   3.781  17.980  0.00  0.00    +0.000 A 
ATOM     12  C   UNL     1      48.517   3.535  17.051  0.00  0.00    +0.000 A 
ATOM     13  C   UNL     1      47.269   4.139  17.197  0.00  0.00    +0.000 A 
ATOM     14  C   UNL     1      47.036   4.994  18.268  0.00  0.00    +0.000 A 
ATOM     15  C   UNL     1      48.046   5.235  19.200  0.00  0.00    +0.000 A 
ATOM     16  C   UNL     1      49.310   4.623  19.082  0.00  0.00    +0.000 A 
BRANCH  11  18
ATOM     17  N   UNL     1      51.840   2.643  17.557  0.00  0.00    +0.000 NA
ATOM     18  C   UNL     1      50.818   3.159  17.746  0.00  0.00    +0.000 C 
ENDBRANCH  11  18
ENDBRANCH  10  16
ENDBRANCH   8  10
ENDBRANCH   7   8
ENDBRANCH   1   7
BRANCH   4  19
ATOM     19  C   UNL     1      48.636   8.493  14.331  0.00  0.00    +0.000 C 
BRANCH  19  20
ATOM     20  N   UNL     1      47.548   7.605  14.009  0.00  0.00    +0.000 N 
ATOM     21  C   UNL     1      47.743   6.531  13.178  0.00  0.00    +0.000 C 
ATOM     22  O   UNL     1      48.851   6.253  12.724  0.00  0.00    +0.000 OA
ATOM     23  H   UNL     1      46.606   7.941  14.185  0.00  0.00    +0.000 HD
BRANCH  21  24
ATOM     24  C   UNL     1      46.573   5.688  12.901  0.00  0.00    +0.000 A 
ATOM     25  C   UNL     1      46.617   4.334  13.211  0.00  0.00    +0.000 A 
ATOM     26  S   UNL     1      45.165   3.505  12.873  0.00  0.00    +0.000 S 
ATOM     27  C   UNL     1      44.443   4.916  12.253  0.00  0.00    +0.000 A 
ATOM     28  N   UNL     1      43.176   4.891  11.760  0.00  0.00    +0.000 NA
ATOM     29  C   UNL     1      42.764   6.023  11.294  0.00  0.00    +0.000 A 
ATOM     30  N   UNL     1      43.503   7.177  11.280  0.00  0.00    +0.000 N 
ATOM     31  C   UNL     1      44.776   7.257  11.792  0.00  0.00    +0.000 A 
ATOM     32  O   UNL     1      45.395   8.315  11.800  0.00  0.00    +0.000 OA
ATOM     33  C   UNL     1      45.291   6.007  12.319  0.00  0.00    +0.000 A 
ATOM     34  H   UNL     1      43.119   8.032  10.905  0.00  0.00    +0.000 HD
ENDBRANCH  21  24
ENDBRANCH  19  20
ENDBRANCH   4  19
TORSDOF 8
ENDMDL
