MODEL 1
REMARK VINA RESULT:    -7.879      0.000      0.000
REMARK INTER + INTRA:         -10.355
REMARK INTER:                  -9.721
REMARK INTRA:                  -0.634
REMARK UNBOUND:                -0.634
REMARK  Name = 
REMARK  4 active torsions:
REMARK  status: ('A' for Active; 'I' for Inactive)
REMARK    1  A    between atoms: C_2  and  C_3
REMARK    2  A    between atoms: C_6  and  C_7
REMARK    3  A    between atoms: C_7  and  N_8
REMARK    4  A    between atoms: C_9  and  C_11
REMARK                            x       y       z     vdW  Elec       q    Type
REMARK                         _______ _______ _______ _____ _____    ______ ____
ROOT
ATOM      1  N   UNL     1      45.331   4.655  10.963  0.00  0.00    +0.000 N 
ATOM      2  C   UNL     1      45.511   5.979  11.273  0.00  0.00    +0.000 C 
ATOM      3  O   UNL     1      44.806   6.878  10.816  0.00  0.00    +0.000 OA
ATOM      4  H   UNL     1      46.178   4.096  10.991  0.00  0.00    +0.000 HD
ENDROOT
BRANCH   2   5
ATOM      5  C   UNL     1      46.570   6.251  12.250  0.00  0.00    +0.000 A 
ATOM      6  C   UNL     1      47.493   7.259  12.017  0.00  0.00    +0.000 A 
ATOM      7  S   UNL     1      48.634   7.439  13.273  0.00  0.00    +0.000 S 
ATOM      8  C   UNL     1      47.949   6.157  14.158  0.00  0.00    +0.000 A 
ATOM      9  N   UNL     1      48.476   5.760  15.348  0.00  0.00    +0.000 NA
ATOM     10  C   UNL     1      47.871   4.758  15.895  0.00  0.00    +0.000 A 
ATOM     11  N   UNL     1      46.775   4.123  15.366  0.00  0.00    +0.000 N 
ATOM     12  C   UNL     1      46.196   4.510  14.186  0.00  0.00    +0.000 A 
ATOM     13  O   UNL     1      45.178   3.957  13.761  0.00  0.00    +0.000 OA
ATOM     14  C   UNL     1      46.851   5.615  13.516  0.00  0.00    +0.000 A 
ATOM     15  H   UNL     1      46.339   3.358  15.857  0.00  0.00    +0.000 HD
ENDBRANCH   2   5
BRANCH   1  16
ATOM     16  C   UNL     1      44.303   4.208  10.046  0.00  0.00    +0.000 C 
BRANCH  16  20
ATOM     17  C   UNL     1      47.090   2.264   7.246  0.00  0.00    +0.000 C 
ATOM     18  C   UNL     1      46.486   3.604   6.821  0.00  0.00    +0.000 C 
ATOM     19  C   UNL     1      45.861   4.329   8.012  0.00  0.00    +0.000 C 
ATOM     20  C   UNL     1      44.854   3.473   8.802  0.00  0.00    +0.000 C 
ATOM     21  C   UNL     1      45.452   2.106   9.165  0.00  0.00    +0.000 C 
ATOM     22  C   UNL     1      46.034   1.399   7.940  0.00  0.00    +0.000 C 
BRANCH  17  24
ATOM     23  N   UNL     1      48.114   1.009   5.176  0.00  0.00    +0.000 NA
ATOM     24  C   UNL     1      47.662   1.567   6.086  0.00  0.00    +0.000 C 
ENDBRANCH  17  24
ENDBRANCH  16  20
ENDBRANCH   1  16
TORSDOF 4
ENDMDL
MODEL 2
REMARK VINA RESULT:    -7.614      1.541      1.880
REMARK INTER + INTRA:         -10.028
REMARK INTER:                  -9.355
REMARK INTRA:                  -0.674
REMARK UNBOUND:                -0.634
REMARK  Name = 
REMARK  4 active torsions:
REMARK  status: ('A' for Active; 'I' for Inactive)
REMARK    1  A    between atoms: C_2  and  C_3
REMARK    2  A    between atoms: C_6  and  C_7
REMARK    3  A    between atoms: C_7  and  N_8
REMARK    4  A    between atoms: C_9  and  C_11
REMARK                            x       y       z     vdW  Elec       q    Type
REMARK                         _______ _______ _______ _____ _____    ______ ____
ROOT
ATOM      1  N   UNL     1      44.623   5.065  10.691  0.00  0.00    +0.000 N 
ATOM      2  C   UNL     1      43.983   6.121  11.291  0.00  0.00    +0.000 C 
ATOM      3  O   UNL     1      42.761   6.176  11.427  0.00  0.00    +0.000 OA
ATOM      4  H   UNL     1      45.492   5.308  10.228  0.00  0.00    +0.000 HD
ENDROOT
BRANCH   2   5
ATOM      5  C   UNL     1      44.867   7.163  11.825  0.00  0.00    +0.000 A 
ATOM      6  C   UNL     1      44.710   8.482  11.429  0.00  0.00    +0.000 A 
ATOM      7  S   UNL     1      45.815   9.550  12.171  0.00  0.00    +0.000 S 
ATOM      8  C   UNL     1      46.558   8.280  13.026  0.00  0.00    +0.000 A 
ATOM      9  N   UNL     1      47.620   8.507  13.846  0.00  0.00    +0.000 NA
ATOM     10  C   UNL     1      48.098   7.448  14.410  0.00  0.00    +0.000 A 
ATOM     11  N   UNL     1      47.603   6.179  14.237  0.00  0.00    +0.000 N 
ATOM     12  C   UNL     1      46.518   5.911  13.445  0.00  0.00    +0.000 A 
ATOM     13  O   UNL     1      46.059   4.769  13.352  0.00  0.00    +0.000 OA
ATOM     14  C   UNL     1      45.956   7.062  12.768  0.00  0.00    +0.000 A 
ATOM     15  H   UNL     1      48.014   5.398  14.724  0.00  0.00    +0.000 HD
ENDBRANCH   2   5
BRANCH   1  16
ATOM     16  C   UNL     1      43.903   3.934  10.146  0.00  0.00    +0.000 C 
BRANCH  16  20
ATOM     17  C   UNL     1      47.003   2.352   7.449  0.00  0.00    +0.000 C 
ATOM     18  C   UNL     1      46.302   3.648   7.032  0.00  0.00    +0.000 C 
ATOM     19  C   UNL     1      45.550   4.269   8.208  0.00  0.00    +0.000 C 
ATOM     20  C   UNL     1      44.585   3.297   8.912  0.00  0.00    +0.000 C 
ATOM     21  C   UNL     1      45.286   1.977   9.266  0.00  0.00    +0.000 C 
ATOM     22  C   UNL     1      45.995   1.371   8.054  0.00  0.00    +0.000 C 
BRANCH  17  24
ATOM     23  N   UNL     1      48.239   1.271   5.397  0.00  0.00    +0.000 NA
ATOM     24  C   UNL     1      47.697   1.752   6.301  0.00  0.00    +0.000 C 
ENDBRANCH  17  24
ENDBRANCH  16  20
ENDBRANCH   1  16
TORSDOF 4
ENDMDL
MODEL 3
REMARK VINA RESULT:    -7.313      1.707      2.779
REMARK INTER + INTRA:          -9.657
REMARK INTER:                  -8.980
REMARK INTRA:                  -0.677
REMARK UNBOUND:                -0.634
REMARK  Name = 
REMARK  4 active torsions:
REMARK  status: ('A' for Active; 'I' for Inactive)
REMARK    1  A    between atoms: C_2  and  C_3
REMARK    2  A    between atoms: C_6  and  C_7
REMARK    3  A    between atoms: C_7  and  N_8
REMARK    4  A    between atoms: C_9  and  C_11
REMARK                            x       y       z     vdW  Elec       q    Type
REMARK                         _______ _______ _______ _____ _____    ______ ____
ROOT
ATOM      1  N   UNL     1      44.950   4.872  10.857  0.00  0.00    +0.000 N 
ATOM      2  C   UNL     1      45.236   4.794  12.197  0.00  0.00    +0.000 C 
ATOM      3  O   UNL     1      44.781   3.918  12.931  0.00  0.00    +0.000 OA
ATOM      4  H   UNL     1      44.968   5.812  10.477  0.00  0.00    +0.000 HD
ENDROOT
BRANCH   2   5
ATOM      5  C   UNL     1      46.185   5.798  12.691  0.00  0.00    +0.000 A 
ATOM      6  C   UNL     1      47.290   5.409  13.432  0.00  0.00    +0.000 A 
ATOM      7  S   UNL     1      48.287   6.712  13.900  0.00  0.00    +0.000 S 
ATOM      8  C   UNL     1      47.260   7.843  13.151  0.00  0.00    +0.000 A 
ATOM      9  N   UNL     1      47.523   9.178  13.201  0.00  0.00    +0.000 NA
ATOM     10  C   UNL     1      46.645   9.920  12.612  0.00  0.00    +0.000 A 
ATOM     11  N   UNL     1      45.530   9.447  11.965  0.00  0.00    +0.000 N 
ATOM     12  C   UNL     1      45.243   8.111  11.866  0.00  0.00    +0.000 A 
ATOM     13  O   UNL     1      44.264   7.711  11.231  0.00  0.00    +0.000 OA
ATOM     14  C   UNL     1      46.184   7.234  12.532  0.00  0.00    +0.000 A 
ATOM     15  H   UNL     1      44.894  10.083  11.508  0.00  0.00    +0.000 HD
ENDBRANCH   2   5
BRANCH   1  16
ATOM     16  C   UNL     1      44.064   3.935  10.200  0.00  0.00    +0.000 C 
BRANCH  16  20
ATOM     17  C   UNL     1      47.003   2.284   7.368  0.00  0.00    +0.000 C 
ATOM     18  C   UNL     1      46.301   3.586   6.974  0.00  0.00    +0.000 C 
ATOM     19  C   UNL     1      45.618   4.228   8.180  0.00  0.00    +0.000 C 
ATOM     20  C   UNL     1      44.675   3.277   8.940  0.00  0.00    +0.000 C 
ATOM     21  C   UNL     1      45.373   1.950   9.271  0.00  0.00    +0.000 C 
ATOM     22  C   UNL     1      46.013   1.323   8.032  0.00  0.00    +0.000 C 
BRANCH  17  24
ATOM     23  N   UNL     1      48.120   1.179   5.261  0.00  0.00    +0.000 NA
ATOM     24  C   UNL     1      47.631   1.664   6.194  0.00  0.00    +0.000 C 
ENDBRANCH  17  24
ENDBRANCH  16  20
ENDBRANCH   1  16
TORSDOF 4
ENDMDL
MODEL 4
REMARK VINA RESULT:    -6.855      2.299      3.541
REMARK INTER + INTRA:          -9.091
REMARK INTER:                  -8.876
REMARK INTRA:                  -0.215
REMARK UNBOUND:                -0.634
REMARK  Name = 
REMARK  4 active torsions:
REMARK  status: ('A' for Active; 'I' for Inactive)
REMARK    1  A    between atoms: C_2  and  C_3
REMARK    2  A    between atoms: C_6  and  C_7
REMARK    3  A    between atoms: C_7  and  N_8
REMARK    4  A    between atoms: C_9  and  C_11
REMARK                            x       y       z     vdW  Elec       q    Type
REMARK                         _______ _______ _______ _____ _____    ______ ____
ROOT
ATOM      1  N   UNL     1      45.747   5.425  13.967  0.00  0.00    +0.000 N 
ATOM      2  C   UNL     1      46.696   4.563  14.457  0.00  0.00    +0.000 C 
ATOM      3  O   UNL     1      46.781   3.387  14.105  0.00  0.00    +0.000 OA
ATOM      4  H   UNL     1      45.470   6.157  14.613  0.00  0.00    +0.000 HD
ENDROOT
BRANCH   2   5
ATOM      5  C   UNL     1      47.658   5.160  15.389  0.00  0.00    +0.000 A 
ATOM      6  C   UNL     1      48.451   6.224  14.988  0.00  0.00    +0.000 A 
ATOM      7  S   UNL     1      49.492   6.795  16.214  0.00  0.00    +0.000 S 
ATOM      8  C   UNL     1      48.937   5.621  17.313  0.00  0.00    +0.000 A 
ATOM      9  N   UNL     1      49.449   5.533  18.571  0.00  0.00    +0.000 NA
ATOM     10  C   UNL     1      48.954   4.579  19.286  0.00  0.00    +0.000 A 
ATOM     11  N   UNL     1      47.980   3.709  18.863  0.00  0.00    +0.000 N 
ATOM     12  C   UNL     1      47.416   3.781  17.616  0.00  0.00    +0.000 A 
ATOM     13  O   UNL     1      46.504   3.021  17.280  0.00  0.00    +0.000 OA
ATOM     14  C   UNL     1      47.954   4.819  16.761  0.00  0.00    +0.000 A 
ATOM     15  H   UNL     1      47.624   2.997  19.482  0.00  0.00    +0.000 HD
ENDBRANCH   2   5
BRANCH   1  16
ATOM     16  C   UNL     1      44.746   5.009  13.007  0.00  0.00    +0.000 C 
BRANCH  16  20
ATOM     17  C   UNL     1      45.096   3.947   8.749  0.00  0.00    +0.000 C 
ATOM     18  C   UNL     1      45.130   2.802   9.764  0.00  0.00    +0.000 C 
ATOM     19  C   UNL     1      44.626   3.264  11.131  0.00  0.00    +0.000 C 
ATOM     20  C   UNL     1      45.336   4.522  11.663  0.00  0.00    +0.000 C 
ATOM     21  C   UNL     1      45.351   5.640  10.609  0.00  0.00    +0.000 C 
ATOM     22  C   UNL     1      45.895   5.145   9.268  0.00  0.00    +0.000 C 
BRANCH  17  24
ATOM     23  N   UNL     1      46.014   3.147   6.419  0.00  0.00    +0.000 NA
ATOM     24  C   UNL     1      45.610   3.495   7.449  0.00  0.00    +0.000 C 
ENDBRANCH  17  24
ENDBRANCH  16  20
ENDBRANCH   1  16
TORSDOF 4
ENDMDL
MODEL 5
REMARK VINA RESULT:    -6.620      3.546      7.635
REMARK INTER + INTRA:          -8.801
REMARK INTER:                  -8.162
REMARK INTRA:                  -0.639
REMARK UNBOUND:                -0.634
REMARK  Name = 
REMARK  4 active torsions:
REMARK  status: ('A' for Active; 'I' for Inactive)
REMARK    1  A    between atoms: C_2  and  C_3
REMARK    2  A    between atoms: C_6  and  C_7
REMARK    3  A    between atoms: C_7  and  N_8
REMARK    4  A    between atoms: C_9  and  C_11
REMARK                            x       y       z     vdW  Elec       q    Type
REMARK                         _______ _______ _______ _____ _____    ______ ____
ROOT
ATOM      1  N   UNL     1      47.743   5.668  15.907  0.00  0.00    +0.000 N 
ATOM      2  C   UNL     1      48.140   6.197  14.705  0.00  0.00    +0.000 C 
ATOM      3  O   UNL     1      49.281   6.607  14.495  0.00  0.00    +0.000 OA
ATOM      4  H   UNL     1      46.761   5.801  16.122  0.00  0.00    +0.000 HD
ENDROOT
BRANCH   2   5
ATOM      5  C   UNL     1      47.120   6.181  13.651  0.00  0.00    +0.000 A 
ATOM      6  C   UNL     1      46.708   7.367  13.061  0.00  0.00    +0.000 A 
ATOM      7  S   UNL     1      45.532   7.146  11.843  0.00  0.00    +0.000 S 
ATOM      8  C   UNL     1      45.516   5.461  12.084  0.00  0.00    +0.000 A 
ATOM      9  N   UNL     1      44.688   4.653  11.367  0.00  0.00    +0.000 NA
ATOM     10  C   UNL     1      44.763   3.401  11.672  0.00  0.00    +0.000 A 
ATOM     11  N   UNL     1      45.602   2.878  12.624  0.00  0.00    +0.000 N 
ATOM     12  C   UNL     1      46.472   3.650  13.348  0.00  0.00    +0.000 A 
ATOM     13  O   UNL     1      47.255   3.147  14.158  0.00  0.00    +0.000 OA
ATOM     14  C   UNL     1      46.411   5.069  13.062  0.00  0.00    +0.000 A 
ATOM     15  H   UNL     1      45.623   1.885  12.799  0.00  0.00    +0.000 HD
ENDBRANCH   2   5
BRANCH   1  16
ATOM     16  C   UNL     1      48.637   5.571  17.042  0.00  0.00    +0.000 C 
BRANCH  16  20
ATOM     17  C   UNL     1      51.508   2.364  17.972  0.00  0.00    +0.000 C 
ATOM     18  C   UNL     1      52.079   3.742  17.625  0.00  0.00    +0.000 C 
ATOM     19  C   UNL     1      51.000   4.820  17.702  0.00  0.00    +0.000 C 
ATOM     20  C   UNL     1      49.740   4.499  16.877  0.00  0.00    +0.000 C 
ATOM     21  C   UNL     1      49.216   3.089  17.188  0.00  0.00    +0.000 C 
ATOM     22  C   UNL     1      50.319   2.036  17.065  0.00  0.00    +0.000 C 
BRANCH  17  24
ATOM     23  N   UNL     1      53.366   0.516  17.780  0.00  0.00    +0.000 NA
ATOM     24  C   UNL     1      52.550   1.335  17.867  0.00  0.00    +0.000 C 
ENDBRANCH  17  24
ENDBRANCH  16  20
ENDBRANCH   1  16
TORSDOF 4
ENDMDL
MODEL 6
REMARK VINA RESULT:    -6.594      4.182      7.858
REMARK INTER + INTRA:          -8.769
REMARK INTER:                  -8.211
REMARK INTRA:                  -0.558
REMARK UNBOUND:                -0.634
REMARK  Name = 
REMARK  4 active torsions:
REMARK  status: ('A' for Active; 'I' for Inactive)
REMARK    1  A    between atoms: C_2  and  C_3
REMARK    2  A    between atoms: C_6  and  C_7
REMARK    3  A    between atoms: C_7  and  N_8
REMARK    4  A    between atoms: C_9  and  C_11
REMARK                            x       y       z     vdW  Elec       q    Type
REMARK                         _______ _______ _______ _____ _____    ______ ____
ROOT
ATOM      1  N   UNL     1      46.902   4.473  15.844  0.00  0.00    +0.000 N 
ATOM      2  C   UNL     1      46.943   4.187  14.503  0.00  0.00    +0.000 C 
ATOM      3  O   UNL     1      47.291   3.093  14.060  0.00  0.00    +0.000 OA
ATOM      4  H   UNL     1      47.063   5.449  16.072  0.00  0.00    +0.000 HD
ENDROOT
BRANCH   2   5
ATOM      5  C   UNL     1      46.476   5.262  13.622  0.00  0.00    +0.000 A 
ATOM      6  C   UNL     1      47.263   6.385  13.414  0.00  0.00    +0.000 A 
ATOM      7  S   UNL     1      46.562   7.516  12.344  0.00  0.00    +0.000 S 
ATOM      8  C   UNL     1      45.172   6.554  12.146  0.00  0.00    +0.000 A 
ATOM      9  N   UNL     1      44.138   6.962  11.360  0.00  0.00    +0.000 NA
ATOM     10  C   UNL     1      43.138   6.144  11.323  0.00  0.00    +0.000 A 
ATOM     11  N   UNL     1      43.083   4.947  11.992  0.00  0.00    +0.000 N 
ATOM     12  C   UNL     1      44.112   4.486  12.769  0.00  0.00    +0.000 A 
ATOM     13  O   UNL     1      44.059   3.380  13.314  0.00  0.00    +0.000 OA
ATOM     14  C   UNL     1      45.251   5.376  12.866  0.00  0.00    +0.000 A 
ATOM     15  H   UNL     1      42.277   4.347  11.903  0.00  0.00    +0.000 HD
ENDBRANCH   2   5
BRANCH   1  16
ATOM     16  C   UNL     1      47.290   3.510  16.853  0.00  0.00    +0.000 C 
BRANCH  16  20
ATOM     17  C   UNL     1      51.552   4.478  17.388  0.00  0.00    +0.000 C 
ATOM     18  C   UNL     1      51.092   3.076  17.797  0.00  0.00    +0.000 C 
ATOM     19  C   UNL     1      49.715   2.757  17.215  0.00  0.00    +0.000 C 
ATOM     20  C   UNL     1      48.648   3.823  17.525  0.00  0.00    +0.000 C 
ATOM     21  C   UNL     1      49.149   5.231  17.169  0.00  0.00    +0.000 C 
ATOM     22  C   UNL     1      50.511   5.523  17.800  0.00  0.00    +0.000 C 
BRANCH  17  24
ATOM     23  N   UNL     1      53.893   5.017  18.452  0.00  0.00    +0.000 NA
ATOM     24  C   UNL     1      52.863   4.781  17.978  0.00  0.00    +0.000 C 
ENDBRANCH  17  24
ENDBRANCH  16  20
ENDBRANCH   1  16
TORSDOF 4
ENDMDL
MODEL 7
REMARK VINA RESULT:    -6.341      3.717      8.916
REMARK INTER + INTRA:          -8.457
REMARK INTER:                  -7.787
REMARK INTRA:                  -0.670
REMARK UNBOUND:                -0.634
REMARK  Name = 
REMARK  4 active torsions:
REMARK  status: ('A' for Active; 'I' for Inactive)
REMARK    1  A    between atoms: C_2  and  C_3
REMARK    2  A    between atoms: C_6  and  C_7
REMARK    3  A    between atoms: C_7  and  N_8
REMARK    4  A    between atoms: C_9  and  C_11
REMARK                            x       y       z     vdW  Elec       q    Type
REMARK                         _______ _______ _______ _____ _____    ______ ____
ROOT
ATOM      1  N   UNL     1      47.970   5.904  15.631  0.00  0.00    +0.000 N 
ATOM      2  C   UNL     1      48.188   6.324  14.343  0.00  0.00    +0.000 C 
ATOM      3  O   UNL     1      49.290   6.687  13.932  0.00  0.00    +0.000 OA
ATOM      4  H   UNL     1      47.032   6.078  15.977  0.00  0.00    +0.000 HD
ENDROOT
BRANCH   2   5
ATOM      5  C   UNL     1      47.022   6.246  13.457  0.00  0.00    +0.000 A 
ATOM      6  C   UNL     1      46.480   7.401  12.914  0.00  0.00    +0.000 A 
ATOM      7  S   UNL     1      45.142   7.108  11.894  0.00  0.00    +0.000 S 
ATOM      8  C   UNL     1      45.227   5.431  12.167  0.00  0.00    +0.000 A 
ATOM      9  N   UNL     1      44.331   4.577  11.600  0.00  0.00    +0.000 NA
ATOM     10  C   UNL     1      44.499   3.336  11.915  0.00  0.00    +0.000 A 
ATOM     11  N   UNL     1      45.493   2.867  12.739  0.00  0.00    +0.000 N 
ATOM     12  C   UNL     1      46.432   3.687  13.306  0.00  0.00    +0.000 A 
ATOM     13  O   UNL     1      47.347   3.232  13.997  0.00  0.00    +0.000 OA
ATOM     14  C   UNL     1      46.275   5.095  13.004  0.00  0.00    +0.000 A 
ATOM     15  H   UNL     1      45.578   1.880  12.928  0.00  0.00    +0.000 HD
ENDBRANCH   2   5
BRANCH   1  16
ATOM     16  C   UNL     1      49.023   5.879  16.624  0.00  0.00    +0.000 C 
BRANCH  16  20
ATOM     17  C   UNL     1      47.180   8.865  19.283  0.00  0.00    +0.000 C 
ATOM     18  C   UNL     1      48.243   9.360  18.300  0.00  0.00    +0.000 C 
ATOM     19  C   UNL     1      48.509   8.323  17.209  0.00  0.00    +0.000 C 
ATOM     20  C   UNL     1      48.840   6.921  17.753  0.00  0.00    +0.000 C 
ATOM     21  C   UNL     1      47.800   6.465  18.787  0.00  0.00    +0.000 C 
ATOM     22  C   UNL     1      47.590   7.516  19.879  0.00  0.00    +0.000 C 
BRANCH  17  24
ATOM     23  N   UNL     1      46.789  10.648  21.174  0.00  0.00    +0.000 NA
ATOM     24  C   UNL     1      46.956   9.860  20.341  0.00  0.00    +0.000 C 
ENDBRANCH  17  24
ENDBRANCH  16  20
ENDBRANCH   1  16
TORSDOF 4
ENDMDL
MODEL 8
REMARK VINA RESULT:    -6.161      2.939      4.282
REMARK INTER + INTRA:          -8.236
REMARK INTER:                  -7.583
REMARK INTRA:                  -0.653
REMARK UNBOUND:                -0.634
REMARK  Name = 
REMARK  4 active torsions:
REMARK  status: ('A' for Active; 'I' for Inactive)
REMARK    1  A    between atoms: C_2  and  C_3
REMARK    2  A    between atoms: C_6  and  C_7
REMARK    3  A    between atoms: C_7  and  N_8
REMARK    4  A    between atoms: C_9  and  C_11
REMARK                            x       y       z     vdW  Elec       q    Type
REMARK                         _______ _______ _______ _____ _____    ______ ____
ROOT
ATOM      1  N   UNL     1      47.067   6.827  14.168  0.00  0.00    +0.000 N 
ATOM      2  C   UNL     1      48.409   6.627  14.368  0.00  0.00    +0.000 C 
ATOM      3  O   UNL     1      49.239   6.677  13.460  0.00  0.00    +0.000 OA
ATOM      4  H   UNL     1      46.466   6.329  14.816  0.00  0.00    +0.000 HD
ENDROOT
BRANCH   2   5
ATOM      5  C   UNL     1      48.806   6.414  15.764  0.00  0.00    +0.000 A 
ATOM      6  C   UNL     1      49.528   7.385  16.441  0.00  0.00    +0.000 A 
ATOM      7  S   UNL     1      49.879   6.966  18.057  0.00  0.00    +0.000 S 
ATOM      8  C   UNL     1      49.103   5.460  17.897  0.00  0.00    +0.000 A 
ATOM      9  N   UNL     1      49.063   4.573  18.929  0.00  0.00    +0.000 NA
ATOM     10  C   UNL     1      48.465   3.462  18.658  0.00  0.00    +0.000 A 
ATOM     11  N   UNL     1      47.890   3.159  17.448  0.00  0.00    +0.000 N 
ATOM     12  C   UNL     1      47.881   4.033  16.394  0.00  0.00    +0.000 A 
ATOM     13  O   UNL     1      47.309   3.757  15.337  0.00  0.00    +0.000 OA
ATOM     14  C   UNL     1      48.562   5.289  16.636  0.00  0.00    +0.000 A 
ATOM     15  H   UNL     1      47.421   2.277  17.311  0.00  0.00    +0.000 HD
ENDBRANCH   2   5
BRANCH   1  16
ATOM     16  C   UNL     1      46.511   7.091  12.857  0.00  0.00    +0.000 C 
BRANCH  16  20
ATOM     17  C   UNL     1      44.576   3.882  10.545  0.00  0.00    +0.000 C 
ATOM     18  C   UNL     1      45.219   3.498  11.880  0.00  0.00    +0.000 C 
ATOM     19  C   UNL     1      45.502   4.736  12.730  0.00  0.00    +0.000 C 
ATOM     20  C   UNL     1      46.313   5.821  11.997  0.00  0.00    +0.000 C 
ATOM     21  C   UNL     1      45.693   6.149  10.630  0.00  0.00    +0.000 C 
ATOM     22  C   UNL     1      45.458   4.887   9.798  0.00  0.00    +0.000 C 
BRANCH  17  24
ATOM     23  N   UNL     1      44.140   1.738   9.090  0.00  0.00    +0.000 NA
ATOM     24  C   UNL     1      44.336   2.685   9.728  0.00  0.00    +0.000 C 
ENDBRANCH  17  24
ENDBRANCH  16  20
ENDBRANCH   1  16
TORSDOF 4
ENDMDL
MODEL 9
REMARK VINA RESULT:    -6.098      3.466      8.820
REMARK INTER + INTRA:          -8.157
REMARK INTER:                  -7.512
REMARK INTRA:                  -0.645
REMARK UNBOUND:                -0.634
REMARK  Name = 
REMARK  4 active torsions:
REMARK  status: ('A' for Active; 'I' for Inactive)
REMARK    1  A    between atoms: C_2  and  C_3
REMARK    2  A    between atoms: C_6  and  C_7
REMARK    3  A    between atoms: C_7  and  N_8
REMARK    4  A    between atoms: C_9  and  C_11
REMARK                            x       y       z     vdW  Elec       q    Type
REMARK                         _______ _______ _______ _____ _____    ______ ____
ROOT
ATOM      1  N   UNL     1      47.014   4.948  15.197  0.00  0.00    +0.000 N 
ATOM      2  C   UNL     1      47.368   5.689  14.098  0.00  0.00    +0.000 C 
ATOM      3  O   UNL     1      48.509   6.108  13.909  0.00  0.00    +0.000 OA
ATOM      4  H   UNL     1      46.047   5.058  15.485  0.00  0.00    +0.000 HD
ENDROOT
BRANCH   2   5
ATOM      5  C   UNL     1      46.298   5.898  13.116  0.00  0.00    +0.000 A 
ATOM      6  C   UNL     1      45.944   7.182  12.731  0.00  0.00    +0.000 A 
ATOM      7  S   UNL     1      44.696   7.222  11.568  0.00  0.00    +0.000 S 
ATOM      8  C   UNL     1      44.568   5.525  11.561  0.00  0.00    +0.000 A 
ATOM      9  N   UNL     1      43.647   4.889  10.786  0.00  0.00    +0.000 NA
ATOM     10  C   UNL     1      43.646   3.603  10.901  0.00  0.00    +0.000 A 
ATOM     11  N   UNL     1      44.491   2.890  11.715  0.00  0.00    +0.000 N 
ATOM     12  C   UNL     1      45.451   3.488  12.489  0.00  0.00    +0.000 A 
ATOM     13  O   UNL     1      46.234   2.819  13.168  0.00  0.00    +0.000 OA
ATOM     14  C   UNL     1      45.480   4.934  12.416  0.00  0.00    +0.000 A 
ATOM     15  H   UNL     1      44.448   1.883  11.742  0.00  0.00    +0.000 HD
ENDBRANCH   2   5
BRANCH   1  16
ATOM     16  C   UNL     1      47.958   4.616  16.242  0.00  0.00    +0.000 C 
BRANCH  16  20
ATOM     17  C   UNL     1      48.960   6.799  19.933  0.00  0.00    +0.000 C 
ATOM     18  C   UNL     1      48.067   5.563  20.067  0.00  0.00    +0.000 C 
ATOM     19  C   UNL     1      48.117   4.708  18.801  0.00  0.00    +0.000 C 
ATOM     20  C   UNL     1      47.819   5.492  17.509  0.00  0.00    +0.000 C 
ATOM     21  C   UNL     1      48.677   6.763  17.421  0.00  0.00    +0.000 C 
ATOM     22  C   UNL     1      48.570   7.607  18.692  0.00  0.00    +0.000 C 
BRANCH  17  24
ATOM     23  N   UNL     1      48.813   8.283  22.096  0.00  0.00    +0.000 NA
ATOM     24  C   UNL     1      48.879   7.624  21.145  0.00  0.00    +0.000 C 
ENDBRANCH  17  24
ENDBRANCH  16  20
ENDBRANCH   1  16
TORSDOF 4
ENDMDL
