MODEL 1
REMARK VINA RESULT:    -7.251      0.000      0.000
REMARK INTER + INTRA:         -10.708
REMARK INTER:                  -9.795
REMARK INTRA:                  -0.914
REMARK UNBOUND:                -0.914
REMARK  Name = 
REMARK  8 active torsions:
REMARK  status: ('A' for Active; 'I' for Inactive)
REMARK    1  A    between atoms: C_1  and  O_2
REMARK    2  A    between atoms: O_2  and  C_3
REMARK    3  A    between atoms: C_7  and  C_8
REMARK    4  A    between atoms: C_8  and  C_9
REMARK    5  A    between atoms: C_12  and  C_13
REMARK    6  A    between atoms: C_13  and  N_14
REMARK    7  A    between atoms: N_14  and  C_15
REMARK    8  A    between atoms: C_16  and  C_18
REMARK                            x       y       z     vdW  Elec       q    Type
REMARK                         _______ _______ _______ _____ _____    ______ ____
ROOT
ATOM      1  C   UNL     1      49.063   6.134  17.842  0.00  0.00    +0.000 C 
ENDROOT
BRANCH   1   5
ATOM      2  C   UNL     1      46.965   4.505  14.498  0.00  0.00    +0.000 A 
ATOM      3  C   UNL     1      47.601   5.735  14.335  0.00  0.00    +0.000 A 
ATOM      4  C   UNL     1      48.263   6.305  15.427  0.00  0.00    +0.000 A 
ATOM      5  C   UNL     1      48.252   5.654  16.661  0.00  0.00    +0.000 A 
ATOM      6  C   UNL     1      47.489   4.492  16.752  0.00  0.00    +0.000 A 
ATOM      7  N   UNL     1      46.867   3.900  15.707  0.00  0.00    +0.000 NA
BRANCH   2   8
ATOM      8  C   UNL     1      46.473   3.724  13.305  0.00  0.00    +0.000 C 
BRANCH   8  13
ATOM      9  C   UNL     1      44.071   4.430  10.622  0.00  0.00    +0.000 A 
ATOM     10  C   UNL     1      42.979   5.000  11.249  0.00  0.00    +0.000 A 
ATOM     11  C   UNL     1      43.037   5.182  12.627  0.00  0.00    +0.000 A 
ATOM     12  C   UNL     1      44.187   4.804  13.319  0.00  0.00    +0.000 A 
ATOM     13  C   UNL     1      45.252   4.261  12.606  0.00  0.00    +0.000 A 
ATOM     14  N   UNL     1      45.205   4.073  11.263  0.00  0.00    +0.000 NA
BRANCH   9  16
ATOM     15  C   UNL     1      45.249   4.231   8.630  0.00  0.00    +0.000 C 
ATOM     16  O   UNL     1      43.971   4.218   9.262  0.00  0.00    +0.000 OA
ENDBRANCH   9  16
ENDBRANCH   8  13
ENDBRANCH   2   8
ENDBRANCH   1   5
BRANCH   1  17
ATOM     17  N   UNL     1      50.129   5.224  18.310  0.00  0.00    +0.000 N 
ATOM     18  C   UNL     1      50.039   4.666  19.655  0.00  0.00    +0.000 C 
ATOM     19  C   UNL     1      51.292   5.153  17.518  0.00  0.00    +0.000 C 
ATOM     20  O   UNL     1      51.389   5.811  16.482  0.00  0.00    +0.000 OA
BRANCH  19  21
ATOM     21  C   UNL     1      52.381   4.235  17.901  0.00  0.00    +0.000 A 
ATOM     22  C   UNL     1      53.575   4.644  18.482  0.00  0.00    +0.000 A 
ATOM     23  S   UNL     1      54.622   3.356  18.879  0.00  0.00    +0.000 S 
ATOM     24  C   UNL     1      53.466   2.202  18.411  0.00  0.00    +0.000 A 
ATOM     25  N   UNL     1      53.699   0.873  18.589  0.00  0.00    +0.000 NA
ATOM     26  C   UNL     1      52.718   0.115  18.232  0.00  0.00    +0.000 A 
ATOM     27  N   UNL     1      51.545   0.560  17.678  0.00  0.00    +0.000 N 
ATOM     28  C   UNL     1      51.316   1.884  17.362  0.00  0.00    +0.000 A 
ATOM     29  O   UNL     1      50.368   2.211  16.660  0.00  0.00    +0.000 OA
ATOM     30  C   UNL     1      52.340   2.790  17.862  0.00  0.00    +0.000 A 
ATOM     31  H   UNL     1      50.849  -0.096  17.353  0.00  0.00    +0.000 HD
ENDBRANCH  19  21
ENDBRANCH   1  17
TORSDOF 6
ENDMDL
MODEL 2
REMARK VINA RESULT:    -7.054      3.791      4.575
REMARK INTER + INTRA:         -10.441
REMARK INTER:                  -9.530
REMARK INTRA:                  -0.911
REMARK UNBOUND:                -0.914
REMARK  Name = 
REMARK  8 active torsions:
REMARK  status: ('A' for Active; 'I' for Inactive)
REMARK    1  A    between atoms: C_1  and  O_2
REMARK    2  A    between atoms: O_2  and  C_3
REMARK    3  A    between atoms: C_7  and  C_8
REMARK    4  A    between atoms: C_8  and  C_9
REMARK    5  A    between atoms: C_12  and  C_13
REMARK    6  A    between atoms: C_13  and  N_14
REMARK    7  A    between atoms: N_14  and  C_15
REMARK    8  A    between atoms: C_16  and  C_18
REMARK                            x       y       z     vdW  Elec       q    Type
REMARK                         _______ _______ _______ _____ _____    ______ ____
ROOT
ATOM      1  C   UNL     1      48.814   6.938  14.207  0.00  0.00    +0.000 C 
ENDROOT
BRANCH   1   5
ATOM      2  C   UNL     1      45.077   5.789  12.487  0.00  0.00    +0.000 A 
ATOM      3  C   UNL     1      45.441   7.133  12.425  0.00  0.00    +0.000 A 
ATOM      4  C   UNL     1      46.642   7.539  13.014  0.00  0.00    +0.000 A 
ATOM      5  C   UNL     1      47.439   6.604  13.676  0.00  0.00    +0.000 A 
ATOM      6  C   UNL     1      46.932   5.311  13.786  0.00  0.00    +0.000 A 
ATOM      7  N   UNL     1      45.792   4.883  13.199  0.00  0.00    +0.000 NA
BRANCH   2   8
ATOM      8  C   UNL     1      43.944   5.253  11.649  0.00  0.00    +0.000 C 
BRANCH   8  13
ATOM      9  C   UNL     1      45.550   4.023   8.588  0.00  0.00    +0.000 A 
ATOM     10  C   UNL     1      45.250   2.675   8.534  0.00  0.00    +0.000 A 
ATOM     11  C   UNL     1      44.460   2.139   9.545  0.00  0.00    +0.000 A 
ATOM     12  C   UNL     1      43.990   2.972  10.559  0.00  0.00    +0.000 A 
ATOM     13  C   UNL     1      44.319   4.325  10.525  0.00  0.00    +0.000 A 
ATOM     14  N   UNL     1      45.093   4.857   9.547  0.00  0.00    +0.000 NA
BRANCH   9  16
ATOM     15  C   UNL     1      46.675   3.534   6.615  0.00  0.00    +0.000 C 
ATOM     16  O   UNL     1      46.373   4.521   7.599  0.00  0.00    +0.000 OA
ENDBRANCH   9  16
ENDBRANCH   8  13
ENDBRANCH   2   8
ENDBRANCH   1   5
BRANCH   1  17
ATOM     17  N   UNL     1      48.871   7.414  15.604  0.00  0.00    +0.000 N 
ATOM     18  C   UNL     1      48.404   8.762  15.911  0.00  0.00    +0.000 C 
ATOM     19  C   UNL     1      49.608   6.625  16.511  0.00  0.00    +0.000 C 
ATOM     20  O   UNL     1      50.154   5.586  16.140  0.00  0.00    +0.000 OA
BRANCH  19  21
ATOM     21  C   UNL     1      49.676   7.016  17.931  0.00  0.00    +0.000 A 
ATOM     22  C   UNL     1      50.561   7.960  18.437  0.00  0.00    +0.000 A 
ATOM     23  S   UNL     1      50.367   8.257  20.106  0.00  0.00    +0.000 S 
ATOM     24  C   UNL     1      49.011   7.236  20.185  0.00  0.00    +0.000 A 
ATOM     25  N   UNL     1      48.297   7.117  21.337  0.00  0.00    +0.000 NA
ATOM     26  C   UNL     1      47.268   6.345  21.240  0.00  0.00    +0.000 A 
ATOM     27  N   UNL     1      46.912   5.652  20.111  0.00  0.00    +0.000 N 
ATOM     28  C   UNL     1      47.676   5.642  18.962  0.00  0.00    +0.000 A 
ATOM     29  O   UNL     1      47.458   4.835  18.066  0.00  0.00    +0.000 OA
ATOM     30  C   UNL     1      48.774   6.596  18.982  0.00  0.00    +0.000 A 
ATOM     31  H   UNL     1      46.135   5.006  20.129  0.00  0.00    +0.000 HD
ENDBRANCH  19  21
ENDBRANCH   1  17
TORSDOF 6
ENDMDL
MODEL 3
REMARK VINA RESULT:    -6.997      1.651      2.076
REMARK INTER + INTRA:         -10.364
REMARK INTER:                  -9.633
REMARK INTRA:                  -0.731
REMARK UNBOUND:                -0.914
REMARK  Name = 
REMARK  8 active torsions:
REMARK  status: ('A' for Active; 'I' for Inactive)
REMARK    1  A    between atoms: C_1  and  O_2
REMARK    2  A    between atoms: O_2  and  C_3
REMARK    3  A    between atoms: C_7  and  C_8
REMARK    4  A    between atoms: C_8  and  C_9
REMARK    5  A    between atoms: C_12  and  C_13
REMARK    6  A    between atoms: C_13  and  N_14
REMARK    7  A    between atoms: N_14  and  C_15
REMARK    8  A    between atoms: C_16  and  C_18
REMARK                            x       y       z     vdW  Elec       q    Type
REMARK                         _______ _______ _______ _____ _____    ______ ____
ROOT
ATOM      1  C   UNL     1      48.893   6.992  16.377  0.00  0.00    +0.000 C 
ENDROOT
BRANCH   1   5
ATOM      2  C   UNL     1      47.204   6.440  12.493  0.00  0.00    +0.000 A 
ATOM      3  C   UNL     1      47.123   5.383  13.399  0.00  0.00    +0.000 A 
ATOM      4  C   UNL     1      47.702   5.528  14.663  0.00  0.00    +0.000 A 
ATOM      5  C   UNL     1      48.372   6.708  14.988  0.00  0.00    +0.000 A 
ATOM      6  C   UNL     1      48.501   7.657  13.975  0.00  0.00    +0.000 A 
ATOM      7  N   UNL     1      47.924   7.558  12.756  0.00  0.00    +0.000 NA
BRANCH   2   8
ATOM      8  C   UNL     1      46.377   6.445  11.232  0.00  0.00    +0.000 C 
BRANCH   8  13
ATOM      9  C   UNL     1      43.939   3.740  10.781  0.00  0.00    +0.000 A 
ATOM     10  C   UNL     1      42.818   4.137  11.484  0.00  0.00    +0.000 A 
ATOM     11  C   UNL     1      42.851   5.369  12.128  0.00  0.00    +0.000 A 
ATOM     12  C   UNL     1      43.995   6.160  12.030  0.00  0.00    +0.000 A 
ATOM     13  C   UNL     1      45.072   5.696  11.280  0.00  0.00    +0.000 A 
ATOM     14  N   UNL     1      45.052   4.493  10.653  0.00  0.00    +0.000 NA
BRANCH   9  16
ATOM     15  C   UNL     1      44.725   2.432   9.029  0.00  0.00    +0.000 C 
ATOM     16  O   UNL     1      43.898   2.494  10.189  0.00  0.00    +0.000 OA
ENDBRANCH   9  16
ENDBRANCH   8  13
ENDBRANCH   2   8
ENDBRANCH   1   5
BRANCH   1  17
ATOM     17  N   UNL     1      50.168   6.340  16.738  0.00  0.00    +0.000 N 
ATOM     18  C   UNL     1      51.383   6.723  16.026  0.00  0.00    +0.000 C 
ATOM     19  C   UNL     1      50.084   5.207  17.572  0.00  0.00    +0.000 C 
ATOM     20  O   UNL     1      48.995   4.809  17.983  0.00  0.00    +0.000 OA
BRANCH  19  21
ATOM     21  C   UNL     1      51.319   4.528  18.007  0.00  0.00    +0.000 A 
ATOM     22  C   UNL     1      52.308   5.128  18.776  0.00  0.00    +0.000 A 
ATOM     23  S   UNL     1      53.591   4.081  19.185  0.00  0.00    +0.000 S 
ATOM     24  C   UNL     1      52.810   2.756  18.463  0.00  0.00    +0.000 A 
ATOM     25  N   UNL     1      53.342   1.506  18.545  0.00  0.00    +0.000 NA
ATOM     26  C   UNL     1      52.620   0.590  17.992  0.00  0.00    +0.000 A 
ATOM     27  N   UNL     1      51.439   0.815  17.333  0.00  0.00    +0.000 N 
ATOM     28  C   UNL     1      50.927   2.078  17.115  0.00  0.00    +0.000 A 
ATOM     29  O   UNL     1      50.006   2.259  16.328  0.00  0.00    +0.000 OA
ATOM     30  C   UNL     1      51.638   3.129  17.828  0.00  0.00    +0.000 A 
ATOM     31  H   UNL     1      50.964   0.060  16.859  0.00  0.00    +0.000 HD
ENDBRANCH  19  21
ENDBRANCH   1  17
TORSDOF 6
ENDMDL
MODEL 4
REMARK VINA RESULT:    -6.448      2.979      4.237
REMARK INTER + INTRA:          -9.623
REMARK INTER:                  -8.473
REMARK INTRA:                  -1.150
REMARK UNBOUND:                -0.914
REMARK  Name = 
REMARK  8 active torsions:
REMARK  status: ('A' for Active; 'I' for Inactive)
REMARK    1  A    between atoms: C_1  and  O_2
REMARK    2  A    between atoms: O_2  and  C_3
REMARK    3  A    between atoms: C_7  and  C_8
REMARK    4  A    between atoms: C_8  and  C_9
REMARK    5  A    between atoms: C_12  and  C_13
REMARK    6  A    between atoms: C_13  and  N_14
REMARK    7  A    between atoms: N_14  and  C_15
REMARK    8  A    between atoms: C_16  and  C_18
REMARK                            x       y       z     vdW  Elec       q    Type
REMARK                         _______ _______ _______ _____ _____    ______ ____
ROOT
ATOM      1  C   UNL     1      48.501   9.261  13.657  0.00  0.00    +0.000 C 
ENDROOT
BRANCH   1   5
ATOM      2  C   UNL     1      45.132   7.546  11.670  0.00  0.00    +0.000 A 
ATOM      3  C   UNL     1      46.247   6.737  11.885  0.00  0.00    +0.000 A 
ATOM      4  C   UNL     1      47.375   7.287  12.499  0.00  0.00    +0.000 A 
ATOM      5  C   UNL     1      47.379   8.636  12.860  0.00  0.00    +0.000 A 
ATOM      6  C   UNL     1      46.264   9.387  12.496  0.00  0.00    +0.000 A 
ATOM      7  N   UNL     1      45.147   8.876  11.932  0.00  0.00    +0.000 NA
BRANCH   2   8
ATOM      8  C   UNL     1      43.808   6.948  11.263  0.00  0.00    +0.000 C 
BRANCH   8  13
ATOM      9  C   UNL     1      43.946   3.390  10.381  0.00  0.00    +0.000 A 
ATOM     10  C   UNL     1      43.682   2.711  11.556  0.00  0.00    +0.000 A 
ATOM     11  C   UNL     1      43.425   3.459  12.700  0.00  0.00    +0.000 A 
ATOM     12  C   UNL     1      43.426   4.851  12.621  0.00  0.00    +0.000 A 
ATOM     13  C   UNL     1      43.676   5.455  11.392  0.00  0.00    +0.000 A 
ATOM     14  N   UNL     1      43.934   4.735  10.271  0.00  0.00    +0.000 NA
BRANCH   9  16
ATOM     15  C   UNL     1      44.749   3.422   8.202  0.00  0.00    +0.000 C 
ATOM     16  O   UNL     1      44.243   2.626   9.271  0.00  0.00    +0.000 OA
ENDBRANCH   9  16
ENDBRANCH   8  13
ENDBRANCH   2   8
ENDBRANCH   1   5
BRANCH   1  17
ATOM     17  N   UNL     1      48.780   8.651  14.973  0.00  0.00    +0.000 N 
ATOM     18  C   UNL     1      48.086   9.163  16.150  0.00  0.00    +0.000 C 
ATOM     19  C   UNL     1      49.888   7.782  15.044  0.00  0.00    +0.000 C 
ATOM     20  O   UNL     1      50.564   7.543  14.044  0.00  0.00    +0.000 OA
BRANCH  19  21
ATOM     21  C   UNL     1      50.203   7.104  16.315  0.00  0.00    +0.000 A 
ATOM     22  C   UNL     1      51.183   7.532  17.203  0.00  0.00    +0.000 A 
ATOM     23  S   UNL     1      51.281   6.592  18.623  0.00  0.00    +0.000 S 
ATOM     24  C   UNL     1      49.934   5.663  18.165  0.00  0.00    +0.000 A 
ATOM     25  N   UNL     1      49.421   4.722  19.003  0.00  0.00    +0.000 NA
ATOM     26  C   UNL     1      48.373   4.125  18.545  0.00  0.00    +0.000 A 
ATOM     27  N   UNL     1      47.815   4.357  17.314  0.00  0.00    +0.000 N 
ATOM     28  C   UNL     1      48.374   5.208  16.382  0.00  0.00    +0.000 A 
ATOM     29  O   UNL     1      47.989   5.211  15.220  0.00  0.00    +0.000 OA
ATOM     30  C   UNL     1      49.482   5.995  16.900  0.00  0.00    +0.000 A 
ATOM     31  H   UNL     1      47.037   3.799  16.990  0.00  0.00    +0.000 HD
ENDBRANCH  19  21
ENDBRANCH   1  17
TORSDOF 6
ENDMDL
MODEL 5
REMARK VINA RESULT:    -6.419      2.860      4.750
REMARK INTER + INTRA:          -9.584
REMARK INTER:                  -8.796
REMARK INTRA:                  -0.788
REMARK UNBOUND:                -0.914
REMARK  Name = 
REMARK  8 active torsions:
REMARK  status: ('A' for Active; 'I' for Inactive)
REMARK    1  A    between atoms: C_1  and  O_2
REMARK    2  A    between atoms: O_2  and  C_3
REMARK    3  A    between atoms: C_7  and  C_8
REMARK    4  A    between atoms: C_8  and  C_9
REMARK    5  A    between atoms: C_12  and  C_13
REMARK    6  A    between atoms: C_13  and  N_14
REMARK    7  A    between atoms: N_14  and  C_15
REMARK    8  A    between atoms: C_16  and  C_18
REMARK                            x       y       z     vdW  Elec       q    Type
REMARK                         _______ _______ _______ _____ _____    ______ ____
ROOT
ATOM      1  C   UNL     1      47.566   8.956  12.555  0.00  0.00    +0.000 C 
ENDROOT
BRANCH   1   5
ATOM      2  C   UNL     1      44.445   6.174  11.684  0.00  0.00    +0.000 A 
ATOM      3  C   UNL     1      44.230   7.517  11.377  0.00  0.00    +0.000 A 
ATOM      4  C   UNL     1      45.222   8.450  11.688  0.00  0.00    +0.000 A 
ATOM      5  C   UNL     1      46.393   8.033  12.322  0.00  0.00    +0.000 A 
ATOM      6  C   UNL     1      46.462   6.692  12.694  0.00  0.00    +0.000 A 
ATOM      7  N   UNL     1      45.534   5.761  12.378  0.00  0.00    +0.000 NA
BRANCH   2   8
ATOM      8  C   UNL     1      43.539   5.099  11.137  0.00  0.00    +0.000 C 
BRANCH   8  13
ATOM      9  C   UNL     1      45.538   3.906   8.301  0.00  0.00    +0.000 A 
ATOM     10  C   UNL     1      45.484   2.526   8.370  0.00  0.00    +0.000 A 
ATOM     11  C   UNL     1      44.735   1.951   9.390  0.00  0.00    +0.000 A 
ATOM     12  C   UNL     1      44.059   2.774  10.289  0.00  0.00    +0.000 A 
ATOM     13  C   UNL     1      44.146   4.155  10.133  0.00  0.00    +0.000 A 
ATOM     14  N   UNL     1      44.878   4.727   9.145  0.00  0.00    +0.000 NA
BRANCH   9  16
ATOM     15  C   UNL     1      47.009   3.447   6.562  0.00  0.00    +0.000 C 
ATOM     16  O   UNL     1      46.325   4.452   7.307  0.00  0.00    +0.000 OA
ENDBRANCH   9  16
ENDBRANCH   8  13
ENDBRANCH   2   8
ENDBRANCH   1   5
BRANCH   1  17
ATOM     17  N   UNL     1      48.779   8.333  13.123  0.00  0.00    +0.000 N 
ATOM     18  C   UNL     1      49.588   7.462  12.276  0.00  0.00    +0.000 C 
ATOM     19  C   UNL     1      48.939   8.420  14.520  0.00  0.00    +0.000 C 
ATOM     20  O   UNL     1      48.107   9.005  15.213  0.00  0.00    +0.000 OA
BRANCH  19  21
ATOM     21  C   UNL     1      50.146   7.857  15.154  0.00  0.00    +0.000 A 
ATOM     22  C   UNL     1      51.383   8.489  15.170  0.00  0.00    +0.000 A 
ATOM     23  S   UNL     1      52.580   7.633  16.033  0.00  0.00    +0.000 S 
ATOM     24  C   UNL     1      51.459   6.455  16.525  0.00  0.00    +0.000 A 
ATOM     25  N   UNL     1      51.824   5.464  17.383  0.00  0.00    +0.000 NA
ATOM     26  C   UNL     1      50.861   4.668  17.707  0.00  0.00    +0.000 A 
ATOM     27  N   UNL     1      49.581   4.749  17.221  0.00  0.00    +0.000 N 
ATOM     28  C   UNL     1      49.199   5.657  16.254  0.00  0.00    +0.000 A 
ATOM     29  O   UNL     1      48.124   5.548  15.677  0.00  0.00    +0.000 OA
ATOM     30  C   UNL     1      50.215   6.654  15.953  0.00  0.00    +0.000 A 
ATOM     31  H   UNL     1      48.896   4.046  17.460  0.00  0.00    +0.000 HD
ENDBRANCH  19  21
ENDBRANCH   1  17
TORSDOF 6
ENDMDL
MODEL 6
REMARK VINA RESULT:    -5.977      4.129      5.420
REMARK INTER + INTRA:          -8.987
REMARK INTER:                  -8.346
REMARK INTRA:                  -0.641
REMARK UNBOUND:                -0.914
REMARK  Name = 
REMARK  8 active torsions:
REMARK  status: ('A' for Active; 'I' for Inactive)
REMARK    1  A    between atoms: C_1  and  O_2
REMARK    2  A    between atoms: O_2  and  C_3
REMARK    3  A    between atoms: C_7  and  C_8
REMARK    4  A    between atoms: C_8  and  C_9
REMARK    5  A    between atoms: C_12  and  C_13
REMARK    6  A    between atoms: C_13  and  N_14
REMARK    7  A    between atoms: N_14  and  C_15
REMARK    8  A    between atoms: C_16  and  C_18
REMARK                            x       y       z     vdW  Elec       q    Type
REMARK                         _______ _______ _______ _____ _____    ______ ____
ROOT
ATOM      1  C   UNL     1      47.025   8.214  13.481  0.00  0.00    +0.000 C 
ENDROOT
BRANCH   1   5
ATOM      2  C   UNL     1      44.883   5.434  11.046  0.00  0.00    +0.000 A 
ATOM      3  C   UNL     1      44.403   5.686  12.331  0.00  0.00    +0.000 A 
ATOM      4  C   UNL     1      45.109   6.563  13.159  0.00  0.00    +0.000 A 
ATOM      5  C   UNL     1      46.291   7.148  12.701  0.00  0.00    +0.000 A 
ATOM      6  C   UNL     1      46.750   6.741  11.451  0.00  0.00    +0.000 A 
ATOM      7  N   UNL     1      46.073   5.921  10.616  0.00  0.00    +0.000 NA
BRANCH   2   8
ATOM      8  C   UNL     1      44.032   4.718  10.027  0.00  0.00    +0.000 C 
BRANCH   8  13
ATOM      9  C   UNL     1      45.986   3.386   7.222  0.00  0.00    +0.000 A 
ATOM     10  C   UNL     1      46.232   2.064   7.542  0.00  0.00    +0.000 A 
ATOM     11  C   UNL     1      45.713   1.573   8.735  0.00  0.00    +0.000 A 
ATOM     12  C   UNL     1      44.958   2.414   9.550  0.00  0.00    +0.000 A 
ATOM     13  C   UNL     1      44.737   3.726   9.141  0.00  0.00    +0.000 A 
ATOM     14  N   UNL     1      45.243   4.218   7.982  0.00  0.00    +0.000 NA
BRANCH   9  16
ATOM     15  C   UNL     1      47.243   2.838   5.347  0.00  0.00    +0.000 C 
ATOM     16  O   UNL     1      46.550   3.863   6.056  0.00  0.00    +0.000 OA
ENDBRANCH   9  16
ENDBRANCH   8  13
ENDBRANCH   2   8
ENDBRANCH   1   5
BRANCH   1  17
ATOM     17  N   UNL     1      48.144   7.745  14.324  0.00  0.00    +0.000 N 
ATOM     18  C   UNL     1      48.271   6.318  14.599  0.00  0.00    +0.000 C 
ATOM     19  C   UNL     1      48.872   8.734  15.015  0.00  0.00    +0.000 C 
ATOM     20  O   UNL     1      48.584   9.925  14.895  0.00  0.00    +0.000 OA
BRANCH  19  21
ATOM     21  C   UNL     1      50.028   8.345  15.844  0.00  0.00    +0.000 A 
ATOM     22  C   UNL     1      49.956   8.084  17.206  0.00  0.00    +0.000 A 
ATOM     23  S   UNL     1      51.438   7.591  17.891  0.00  0.00    +0.000 S 
ATOM     24  C   UNL     1      52.198   7.581  16.371  0.00  0.00    +0.000 A 
ATOM     25  N   UNL     1      53.481   7.150  16.237  0.00  0.00    +0.000 NA
ATOM     26  C   UNL     1      53.914   7.154  15.022  0.00  0.00    +0.000 A 
ATOM     27  N   UNL     1      53.196   7.586  13.936  0.00  0.00    +0.000 N 
ATOM     28  C   UNL     1      51.940   8.150  14.040  0.00  0.00    +0.000 A 
ATOM     29  O   UNL     1      51.431   8.735  13.093  0.00  0.00    +0.000 OA
ATOM     30  C   UNL     1      51.363   8.049  15.372  0.00  0.00    +0.000 A 
ATOM     31  H   UNL     1      53.624   7.631  13.022  0.00  0.00    +0.000 HD
ENDBRANCH  19  21
ENDBRANCH   1  17
TORSDOF 6
ENDMDL
MODEL 7
REMARK VINA RESULT:    -5.497      2.171      2.788
REMARK INTER + INTRA:          -8.339
REMARK INTER:                  -8.142
REMARK INTRA:                  -0.197
REMARK UNBOUND:                -0.914
REMARK  Name = 
REMARK  8 active torsions:
REMARK  status: ('A' for Active; 'I' for Inactive)
REMARK    1  A    between atoms: C_1  and  O_2
REMARK    2  A    between atoms: O_2  and  C_3
REMARK    3  A    between atoms: C_7  and  C_8
REMARK    4  A    between atoms: C_8  and  C_9
REMARK    5  A    between atoms: C_12  and  C_13
REMARK    6  A    between atoms: C_13  and  N_14
REMARK    7  A    between atoms: N_14  and  C_15
REMARK    8  A    between atoms: C_16  and  C_18
REMARK                            x       y       z     vdW  Elec       q    Type
REMARK                         _______ _______ _______ _____ _____    ______ ____
ROOT
ATOM      1  C   UNL     1      49.877   7.655  17.301  0.00  0.00    +0.000 C 
ENDROOT
BRANCH   1   5
ATOM      2  C   UNL     1      48.149   8.096  13.420  0.00  0.00    +0.000 A 
ATOM      3  C   UNL     1      49.253   7.256  13.554  0.00  0.00    +0.000 A 
ATOM      4  C   UNL     1      49.858   7.125  14.807  0.00  0.00    +0.000 A 
ATOM      5  C   UNL     1      49.370   7.855  15.892  0.00  0.00    +0.000 A 
ATOM      6  C   UNL     1      48.340   8.756  15.631  0.00  0.00    +0.000 A 
ATOM      7  N   UNL     1      47.714   8.879  14.438  0.00  0.00    +0.000 NA
BRANCH   2   8
ATOM      8  C   UNL     1      47.301   8.070  12.173  0.00  0.00    +0.000 C 
BRANCH   8  13
ATOM      9  C   UNL     1      45.439   4.992  12.894  0.00  0.00    +0.000 A 
ATOM     10  C   UNL     1      44.208   5.158  12.287  0.00  0.00    +0.000 A 
ATOM     11  C   UNL     1      43.979   6.336  11.585  0.00  0.00    +0.000 A 
ATOM     12  C   UNL     1      44.991   7.292  11.503  0.00  0.00    +0.000 A 
ATOM     13  C   UNL     1      46.211   7.034  12.122  0.00  0.00    +0.000 A 
ATOM     14  N   UNL     1      46.444   5.891  12.815  0.00  0.00    +0.000 NA
BRANCH   9  16
ATOM     15  C   UNL     1      46.992   3.656  13.989  0.00  0.00    +0.000 C 
ATOM     16  O   UNL     1      45.626   3.835  13.623  0.00  0.00    +0.000 OA
ENDBRANCH   9  16
ENDBRANCH   8  13
ENDBRANCH   2   8
ENDBRANCH   1   5
BRANCH   1  17
ATOM     17  N   UNL     1      51.016   6.727  17.455  0.00  0.00    +0.000 N 
ATOM     18  C   UNL     1      52.203   6.923  16.628  0.00  0.00    +0.000 C 
ATOM     19  C   UNL     1      50.784   5.561  18.212  0.00  0.00    +0.000 C 
ATOM     20  O   UNL     1      49.685   5.354  18.725  0.00  0.00    +0.000 OA
BRANCH  19  21
ATOM     21  C   UNL     1      51.886   4.609  18.443  0.00  0.00    +0.000 A 
ATOM     22  C   UNL     1      53.022   4.899  19.188  0.00  0.00    +0.000 A 
ATOM     23  S   UNL     1      54.097   3.584  19.341  0.00  0.00    +0.000 S 
ATOM     24  C   UNL     1      53.025   2.544  18.531  0.00  0.00    +0.000 A 
ATOM     25  N   UNL     1      53.305   1.219  18.405  0.00  0.00    +0.000 NA
ATOM     26  C   UNL     1      52.383   0.541  17.808  0.00  0.00    +0.000 A 
ATOM     27  N   UNL     1      51.228   1.074  17.294  0.00  0.00    +0.000 N 
ATOM     28  C   UNL     1      50.962   2.428  17.286  0.00  0.00    +0.000 A 
ATOM     29  O   UNL     1      50.046   2.887  16.615  0.00  0.00    +0.000 OA
ATOM     30  C   UNL     1      51.911   3.215  18.058  0.00  0.00    +0.000 A 
ATOM     31  H   UNL     1      50.584   0.495  16.773  0.00  0.00    +0.000 HD
ENDBRANCH  19  21
ENDBRANCH   1  17
TORSDOF 6
ENDMDL
MODEL 8
REMARK VINA RESULT:    -5.254      4.473      5.763
REMARK INTER + INTRA:          -8.011
REMARK INTER:                  -7.107
REMARK INTRA:                  -0.904
REMARK UNBOUND:                -0.914
REMARK  Name = 
REMARK  8 active torsions:
REMARK  status: ('A' for Active; 'I' for Inactive)
REMARK    1  A    between atoms: C_1  and  O_2
REMARK    2  A    between atoms: O_2  and  C_3
REMARK    3  A    between atoms: C_7  and  C_8
REMARK    4  A    between atoms: C_8  and  C_9
REMARK    5  A    between atoms: C_12  and  C_13
REMARK    6  A    between atoms: C_13  and  N_14
REMARK    7  A    between atoms: N_14  and  C_15
REMARK    8  A    between atoms: C_16  and  C_18
REMARK                            x       y       z     vdW  Elec       q    Type
REMARK                         _______ _______ _______ _____ _____    ______ ____
ROOT
ATOM      1  C   UNL     1      48.459   6.623  13.794  0.00  0.00    +0.000 C 
ENDROOT
BRANCH   1   5
ATOM      2  C   UNL     1      46.192   9.818  12.093  0.00  0.00    +0.000 A 
ATOM      3  C   UNL     1      45.499   8.793  12.736  0.00  0.00    +0.000 A 
ATOM      4  C   UNL     1      46.218   7.718  13.267  0.00  0.00    +0.000 A 
ATOM      5  C   UNL     1      47.605   7.673  13.123  0.00  0.00    +0.000 A 
ATOM      6  C   UNL     1      48.191   8.682  12.362  0.00  0.00    +0.000 A 
ATOM      7  N   UNL     1      47.527   9.750  11.864  0.00  0.00    +0.000 NA
BRANCH   2   8
ATOM      8  C   UNL     1      45.508  11.115  11.742  0.00  0.00    +0.000 C 
BRANCH   8  13
ATOM      9  C   UNL     1      41.879  11.117  11.200  0.00  0.00    +0.000 A 
ATOM     10  C   UNL     1      41.714  11.044   9.829  0.00  0.00    +0.000 A 
ATOM     11  C   UNL     1      42.854  10.969   9.036  0.00  0.00    +0.000 A 
ATOM     12  C   UNL     1      44.109  10.955   9.642  0.00  0.00    +0.000 A 
ATOM     13  C   UNL     1      44.185  11.008  11.032  0.00  0.00    +0.000 A 
ATOM     14  N   UNL     1      43.080  11.086  11.815  0.00  0.00    +0.000 NA
BRANCH   9  16
ATOM     15  C   UNL     1      39.714  10.341  11.527  0.00  0.00    +0.000 C 
ATOM     16  O   UNL     1      40.735  11.237  11.962  0.00  0.00    +0.000 OA
ENDBRANCH   9  16
ENDBRANCH   8  13
ENDBRANCH   2   8
ENDBRANCH   1   5
BRANCH   1  17
ATOM     17  N   UNL     1      48.635   6.766  15.254  0.00  0.00    +0.000 N 
ATOM     18  C   UNL     1      49.273   7.972  15.773  0.00  0.00    +0.000 C 
ATOM     19  C   UNL     1      48.404   5.616  16.034  0.00  0.00    +0.000 C 
ATOM     20  O   UNL     1      48.056   4.559  15.508  0.00  0.00    +0.000 OA
BRANCH  19  21
ATOM     21  C   UNL     1      48.520   5.694  17.502  0.00  0.00    +0.000 A 
ATOM     22  C   UNL     1      47.443   5.881  18.359  0.00  0.00    +0.000 A 
ATOM     23  S   UNL     1      47.869   5.864  20.011  0.00  0.00    +0.000 S 
ATOM     24  C   UNL     1      49.482   5.475  19.646  0.00  0.00    +0.000 A 
ATOM     25  N   UNL     1      50.378   5.221  20.638  0.00  0.00    +0.000 NA
ATOM     26  C   UNL     1      51.552   4.894  20.216  0.00  0.00    +0.000 A 
ATOM     27  N   UNL     1      51.922   4.838  18.897  0.00  0.00    +0.000 N 
ATOM     28  C   UNL     1      51.086   5.211  17.863  0.00  0.00    +0.000 A 
ATOM     29  O   UNL     1      51.519   5.374  16.730  0.00  0.00    +0.000 OA
ATOM     30  C   UNL     1      49.716   5.463  18.283  0.00  0.00    +0.000 A 
ATOM     31  H   UNL     1      52.881   4.647  18.640  0.00  0.00    +0.000 HD
ENDBRANCH  19  21
ENDBRANCH   1  17
TORSDOF 6
ENDMDL
MODEL 9
REMARK VINA RESULT:    -5.102      3.447      4.219
REMARK INTER + INTRA:          -7.805
REMARK INTER:                  -7.023
REMARK INTRA:                  -0.782
REMARK UNBOUND:                -0.914
REMARK  Name = 
REMARK  8 active torsions:
REMARK  status: ('A' for Active; 'I' for Inactive)
REMARK    1  A    between atoms: C_1  and  O_2
REMARK    2  A    between atoms: O_2  and  C_3
REMARK    3  A    between atoms: C_7  and  C_8
REMARK    4  A    between atoms: C_8  and  C_9
REMARK    5  A    between atoms: C_12  and  C_13
REMARK    6  A    between atoms: C_13  and  N_14
REMARK    7  A    between atoms: N_14  and  C_15
REMARK    8  A    between atoms: C_16  and  C_18
REMARK                            x       y       z     vdW  Elec       q    Type
REMARK                         _______ _______ _______ _____ _____    ______ ____
ROOT
ATOM      1  C   UNL     1      49.675   7.609  14.630  0.00  0.00    +0.000 C 
ENDROOT
BRANCH   1   5
ATOM      2  C   UNL     1      46.066   6.973  12.438  0.00  0.00    +0.000 A 
ATOM      3  C   UNL     1      46.237   8.201  13.075  0.00  0.00    +0.000 A 
ATOM      4  C   UNL     1      47.394   8.418  13.830  0.00  0.00    +0.000 A 
ATOM      5  C   UNL     1      48.340   7.399  13.956  0.00  0.00    +0.000 A 
ATOM      6  C   UNL     1      48.021   6.171  13.381  0.00  0.00    +0.000 A 
ATOM      7  N   UNL     1      46.928   5.942  12.619  0.00  0.00    +0.000 NA
BRANCH   2   8
ATOM      8  C   UNL     1      44.983   6.781  11.405  0.00  0.00    +0.000 C 
BRANCH   8  13
ATOM      9  C   UNL     1      44.345   3.428  10.058  0.00  0.00    +0.000 A 
ATOM     10  C   UNL     1      43.614   2.775  11.032  0.00  0.00    +0.000 A 
ATOM     11  C   UNL     1      43.293   3.476  12.189  0.00  0.00    +0.000 A 
ATOM     12  C   UNL     1      43.701   4.803  12.320  0.00  0.00    +0.000 A 
ATOM     13  C   UNL     1      44.413   5.393  11.279  0.00  0.00    +0.000 A 
ATOM     14  N   UNL     1      44.736   4.717  10.149  0.00  0.00    +0.000 NA
BRANCH   9  16
ATOM     15  C   UNL     1      45.313   3.510   7.948  0.00  0.00    +0.000 C 
ATOM     16  O   UNL     1      44.691   2.697   8.940  0.00  0.00    +0.000 OA
ENDBRANCH   9  16
ENDBRANCH   8  13
ENDBRANCH   2   8
ENDBRANCH   1   5
BRANCH   1  17
ATOM     17  N   UNL     1      49.711   7.372  16.088  0.00  0.00    +0.000 N 
ATOM     18  C   UNL     1      49.218   6.101  16.609  0.00  0.00    +0.000 C 
ATOM     19  C   UNL     1      49.985   8.488  16.903  0.00  0.00    +0.000 C 
ATOM     20  O   UNL     1      50.199   9.593  16.405  0.00  0.00    +0.000 OA
BRANCH  19  21
ATOM     21  C   UNL     1      50.077   8.320  18.365  0.00  0.00    +0.000 A 
ATOM     22  C   UNL     1      49.103   8.745  19.260  0.00  0.00    +0.000 A 
ATOM     23  S   UNL     1      49.447   8.357  20.885  0.00  0.00    +0.000 S 
ATOM     24  C   UNL     1      50.841   7.494  20.440  0.00  0.00    +0.000 A 
ATOM     25  N   UNL     1      51.565   6.815  21.370  0.00  0.00    +0.000 NA
ATOM     26  C   UNL     1      52.570   6.167  20.885  0.00  0.00    +0.000 A 
ATOM     27  N   UNL     1      52.939   6.169  19.564  0.00  0.00    +0.000 N 
ATOM     28  C   UNL     1      52.312   6.944  18.608  0.00  0.00    +0.000 A 
ATOM     29  O   UNL     1      52.808   7.103  17.500  0.00  0.00    +0.000 OA
ATOM     30  C   UNL     1      51.098   7.590  19.084  0.00  0.00    +0.000 A 
ATOM     31  H   UNL     1      53.782   5.700  19.265  0.00  0.00    +0.000 HD
ENDBRANCH  19  21
ENDBRANCH   1  17
TORSDOF 6
ENDMDL
