MODEL 1
REMARK VINA RESULT:    -7.926      0.000      0.000
REMARK INTER + INTRA:         -10.905
REMARK INTER:                 -10.243
REMARK INTRA:                  -0.661
REMARK UNBOUND:                -0.661
REMARK  Name = 
REMARK  5 active torsions:
REMARK  status: ('A' for Active; 'I' for Inactive)
REMARK    1  A    between atoms: C_2  and  C_3
REMARK    2  A    between atoms: C_6  and  C_7
REMARK    3  A    between atoms: C_7  and  O_8
REMARK    4  A    between atoms: O_8  and  C_9
REMARK    5  A    between atoms: C_13  and  C_14
REMARK                            x       y       z     vdW  Elec       q    Type
REMARK                         _______ _______ _______ _____ _____    ______ ____
ROOT
ATOM      1  C   UNL     1      45.134   4.649  12.091  0.00  0.00    +0.000 A 
ATOM      2  C   UNL     1      45.792   3.836  13.013  0.00  0.00    +0.000 A 
ATOM      3  C   UNL     1      46.943   4.289  13.654  0.00  0.00    +0.000 A 
ATOM      4  C   UNL     1      47.443   5.566  13.379  0.00  0.00    +0.000 A 
ATOM      5  C   UNL     1      46.795   6.427  12.475  0.00  0.00    +0.000 A 
ATOM      6  C   UNL     1      45.640   5.932  11.837  0.00  0.00    +0.000 A 
ATOM      7  F   UNL     1      44.991   6.738  10.980  0.00  0.00    +0.000 F 
ENDROOT
BRANCH   5   8
ATOM      8  C   UNL     1      47.269   7.814  12.248  0.00  0.00    +0.000 A 
ATOM      9  C   UNL     1      48.566   8.090  11.775  0.00  0.00    +0.000 A 
ATOM     10  C   UNL     1      48.973   9.390  11.464  0.00  0.00    +0.000 A 
ATOM     11  C   UNL     1      48.099  10.455  11.650  0.00  0.00    +0.000 A 
ATOM     12  C   UNL     1      46.824  10.219  12.152  0.00  0.00    +0.000 A 
ATOM     13  C   UNL     1      46.415   8.915  12.444  0.00  0.00    +0.000 A 
ENDBRANCH   5   8
BRANCH   1  14
ATOM     14  O   UNL     1      44.016   4.085  11.530  0.00  0.00    +0.000 OA
BRANCH  14  15
ATOM     15  C   UNL     1      43.785   4.373  10.149  0.00  0.00    +0.000 C 
BRANCH  15  19
ATOM     16  C   UNL     1      46.579   2.435   7.489  0.00  0.00    +0.000 A 
ATOM     17  C   UNL     1      45.831   1.667   8.389  0.00  0.00    +0.000 A 
ATOM     18  C   UNL     1      44.944   2.290   9.270  0.00  0.00    +0.000 A 
ATOM     19  C   UNL     1      44.801   3.684   9.268  0.00  0.00    +0.000 A 
ATOM     20  C   UNL     1      45.547   4.446   8.353  0.00  0.00    +0.000 A 
ATOM     21  C   UNL     1      46.434   3.825   7.473  0.00  0.00    +0.000 A 
BRANCH  16  23
ATOM     22  N   UNL     1      48.205   1.275   5.837  0.00  0.00    +0.000 NA
ATOM     23  C   UNL     1      47.478   1.795   6.574  0.00  0.00    +0.000 C 
ENDBRANCH  16  23
ENDBRANCH  15  19
ENDBRANCH  14  15
ENDBRANCH   1  14
TORSDOF 5
ENDMDL
MODEL 2
REMARK VINA RESULT:    -7.626      2.676      6.731
REMARK INTER + INTRA:         -10.517
REMARK INTER:                  -9.876
REMARK INTRA:                  -0.640
REMARK UNBOUND:                -0.661
REMARK  Name = 
REMARK  5 active torsions:
REMARK  status: ('A' for Active; 'I' for Inactive)
REMARK    1  A    between atoms: C_2  and  C_3
REMARK    2  A    between atoms: C_6  and  C_7
REMARK    3  A    between atoms: C_7  and  O_8
REMARK    4  A    between atoms: O_8  and  C_9
REMARK    5  A    between atoms: C_13  and  C_14
REMARK                            x       y       z     vdW  Elec       q    Type
REMARK                         _______ _______ _______ _____ _____    ______ ____
ROOT
ATOM      1  C   UNL     1      44.257   5.072  11.135  0.00  0.00    +0.000 A 
ATOM      2  C   UNL     1      43.466   4.175  11.850  0.00  0.00    +0.000 A 
ATOM      3  C   UNL     1      43.344   2.853  11.428  0.00  0.00    +0.000 A 
ATOM      4  C   UNL     1      44.021   2.417  10.285  0.00  0.00    +0.000 A 
ATOM      5  C   UNL     1      44.850   3.283   9.549  0.00  0.00    +0.000 A 
ATOM      6  C   UNL     1      44.941   4.615   9.998  0.00  0.00    +0.000 A 
ATOM      7  F   UNL     1      45.737   5.461   9.325  0.00  0.00    +0.000 F 
ENDROOT
BRANCH   5   8
ATOM      8  C   UNL     1      45.641   2.803   8.389  0.00  0.00    +0.000 A 
ATOM      9  C   UNL     1      45.936   3.636   7.293  0.00  0.00    +0.000 A 
ATOM     10  C   UNL     1      46.768   3.213   6.253  0.00  0.00    +0.000 A 
ATOM     11  C   UNL     1      47.299   1.929   6.266  0.00  0.00    +0.000 A 
ATOM     12  C   UNL     1      46.994   1.069   7.315  0.00  0.00    +0.000 A 
ATOM     13  C   UNL     1      46.178   1.502   8.364  0.00  0.00    +0.000 A 
ENDBRANCH   5   8
BRANCH   1  14
ATOM     14  O   UNL     1      44.291   6.342  11.653  0.00  0.00    +0.000 OA
BRANCH  14  15
ATOM     15  C   UNL     1      45.092   6.530  12.822  0.00  0.00    +0.000 C 
BRANCH  15  19
ATOM     16  C   UNL     1      48.456   9.046  11.822  0.00  0.00    +0.000 A 
ATOM     17  C   UNL     1      48.576   7.655  11.723  0.00  0.00    +0.000 A 
ATOM     18  C   UNL     1      47.500   6.834  12.069  0.00  0.00    +0.000 A 
ATOM     19  C   UNL     1      46.299   7.392  12.525  0.00  0.00    +0.000 A 
ATOM     20  C   UNL     1      46.182   8.789  12.611  0.00  0.00    +0.000 A 
ATOM     21  C   UNL     1      47.256   9.611  12.266  0.00  0.00    +0.000 A 
BRANCH  16  23
ATOM     22  N   UNL     1      50.443  10.569  11.151  0.00  0.00    +0.000 NA
ATOM     23  C   UNL     1      49.554   9.890  11.453  0.00  0.00    +0.000 C 
ENDBRANCH  16  23
ENDBRANCH  15  19
ENDBRANCH  14  15
ENDBRANCH   1  14
TORSDOF 5
ENDMDL
MODEL 3
REMARK VINA RESULT:    -7.483      1.528      2.330
REMARK INTER + INTRA:         -10.332
REMARK INTER:                  -9.401
REMARK INTRA:                  -0.931
REMARK UNBOUND:                -0.661
REMARK  Name = 
REMARK  5 active torsions:
REMARK  status: ('A' for Active; 'I' for Inactive)
REMARK    1  A    between atoms: C_2  and  C_3
REMARK    2  A    between atoms: C_6  and  C_7
REMARK    3  A    between atoms: C_7  and  O_8
REMARK    4  A    between atoms: O_8  and  C_9
REMARK    5  A    between atoms: C_13  and  C_14
REMARK                            x       y       z     vdW  Elec       q    Type
REMARK                         _______ _______ _______ _____ _____    ______ ____
ROOT
ATOM      1  C   UNL     1      45.019   5.684  11.784  0.00  0.00    +0.000 A 
ATOM      2  C   UNL     1      44.264   6.782  11.375  0.00  0.00    +0.000 A 
ATOM      3  C   UNL     1      44.753   8.076  11.549  0.00  0.00    +0.000 A 
ATOM      4  C   UNL     1      46.007   8.278  12.132  0.00  0.00    +0.000 A 
ATOM      5  C   UNL     1      46.811   7.197  12.536  0.00  0.00    +0.000 A 
ATOM      6  C   UNL     1      46.281   5.904  12.355  0.00  0.00    +0.000 A 
ATOM      7  F   UNL     1      47.033   4.851  12.716  0.00  0.00    +0.000 F 
ENDROOT
BRANCH   5   8
ATOM      8  C   UNL     1      48.180   7.403  13.071  0.00  0.00    +0.000 A 
ATOM      9  C   UNL     1      49.215   7.941  12.282  0.00  0.00    +0.000 A 
ATOM     10  C   UNL     1      50.472   8.230  12.818  0.00  0.00    +0.000 A 
ATOM     11  C   UNL     1      50.737   7.956  14.155  0.00  0.00    +0.000 A 
ATOM     12  C   UNL     1      49.747   7.389  14.951  0.00  0.00    +0.000 A 
ATOM     13  C   UNL     1      48.484   7.120  14.415  0.00  0.00    +0.000 A 
ENDBRANCH   5   8
BRANCH   1  14
ATOM     14  O   UNL     1      44.425   4.468  11.559  0.00  0.00    +0.000 OA
BRANCH  14  15
ATOM     15  C   UNL     1      43.869   4.263  10.258  0.00  0.00    +0.000 C 
BRANCH  15  19
ATOM     16  C   UNL     1      46.614   2.435   7.472  0.00  0.00    +0.000 A 
ATOM     17  C   UNL     1      45.919   1.636   8.387  0.00  0.00    +0.000 A 
ATOM     18  C   UNL     1      45.049   2.223   9.308  0.00  0.00    +0.000 A 
ATOM     19  C   UNL     1      44.870   3.612   9.331  0.00  0.00    +0.000 A 
ATOM     20  C   UNL     1      45.562   4.406   8.402  0.00  0.00    +0.000 A 
ATOM     21  C   UNL     1      46.433   3.821   7.481  0.00  0.00    +0.000 A 
BRANCH  16  23
ATOM     22  N   UNL     1      48.205   1.341   5.743  0.00  0.00    +0.000 NA
ATOM     23  C   UNL     1      47.496   1.831   6.516  0.00  0.00    +0.000 C 
ENDBRANCH  16  23
ENDBRANCH  15  19
ENDBRANCH  14  15
ENDBRANCH   1  14
TORSDOF 5
ENDMDL
MODEL 4
REMARK VINA RESULT:    -7.304      3.167      7.345
REMARK INTER + INTRA:         -10.101
REMARK INTER:                  -9.498
REMARK INTRA:                  -0.602
REMARK UNBOUND:                -0.661
REMARK  Name = 
REMARK  5 active torsions:
REMARK  status: ('A' for Active; 'I' for Inactive)
REMARK    1  A    between atoms: C_2  and  C_3
REMARK    2  A    between atoms: C_6  and  C_7
REMARK    3  A    between atoms: C_7  and  O_8
REMARK    4  A    between atoms: O_8  and  C_9
REMARK    5  A    between atoms: C_13  and  C_14
REMARK                            x       y       z     vdW  Elec       q    Type
REMARK                         _______ _______ _______ _____ _____    ______ ____
ROOT
ATOM      1  C   UNL     1      45.022   5.281  10.349  0.00  0.00    +0.000 A 
ATOM      2  C   UNL     1      44.100   4.562  11.108  0.00  0.00    +0.000 A 
ATOM      3  C   UNL     1      43.770   3.254  10.760  0.00  0.00    +0.000 A 
ATOM      4  C   UNL     1      44.367   2.653   9.647  0.00  0.00    +0.000 A 
ATOM      5  C   UNL     1      45.320   3.334   8.869  0.00  0.00    +0.000 A 
ATOM      6  C   UNL     1      45.622   4.659   9.243  0.00  0.00    +0.000 A 
ATOM      7  F   UNL     1      46.540   5.329   8.529  0.00  0.00    +0.000 F 
ENDROOT
BRANCH   5   8
ATOM      8  C   UNL     1      46.022   2.670   7.743  0.00  0.00    +0.000 A 
ATOM      9  C   UNL     1      46.202   3.306   6.500  0.00  0.00    +0.000 A 
ATOM     10  C   UNL     1      46.953   2.720   5.477  0.00  0.00    +0.000 A 
ATOM     11  C   UNL     1      47.517   1.463   5.663  0.00  0.00    +0.000 A 
ATOM     12  C   UNL     1      47.324   0.793   6.866  0.00  0.00    +0.000 A 
ATOM     13  C   UNL     1      46.589   1.391   7.893  0.00  0.00    +0.000 A 
ENDBRANCH   5   8
BRANCH   1  14
ATOM     14  O   UNL     1      45.258   6.557  10.795  0.00  0.00    +0.000 OA
BRANCH  14  15
ATOM     15  C   UNL     1      44.958   6.815  12.169  0.00  0.00    +0.000 C 
BRANCH  15  19
ATOM     16  C   UNL     1      48.449   7.725  14.540  0.00  0.00    +0.000 A 
ATOM     17  C   UNL     1      47.618   8.762  14.103  0.00  0.00    +0.000 A 
ATOM     18  C   UNL     1      46.501   8.477  13.314  0.00  0.00    +0.000 A 
ATOM     19  C   UNL     1      46.208   7.158  12.947  0.00  0.00    +0.000 A 
ATOM     20  C   UNL     1      47.041   6.121  13.399  0.00  0.00    +0.000 A 
ATOM     21  C   UNL     1      48.158   6.404  14.187  0.00  0.00    +0.000 A 
BRANCH  16  23
ATOM     22  N   UNL     1      50.508   8.251  16.024  0.00  0.00    +0.000 NA
ATOM     23  C   UNL     1      49.587   8.014  15.362  0.00  0.00    +0.000 C 
ENDBRANCH  16  23
ENDBRANCH  15  19
ENDBRANCH  14  15
ENDBRANCH   1  14
TORSDOF 5
ENDMDL
MODEL 5
REMARK VINA RESULT:    -6.579      3.431      7.173
REMARK INTER + INTRA:          -9.164
REMARK INTER:                  -8.887
REMARK INTRA:                  -0.277
REMARK UNBOUND:                -0.661
REMARK  Name = 
REMARK  5 active torsions:
REMARK  status: ('A' for Active; 'I' for Inactive)
REMARK    1  A    between atoms: C_2  and  C_3
REMARK    2  A    between atoms: C_6  and  C_7
REMARK    3  A    between atoms: C_7  and  O_8
REMARK    4  A    between atoms: O_8  and  C_9
REMARK    5  A    between atoms: C_13  and  C_14
REMARK                            x       y       z     vdW  Elec       q    Type
REMARK                         _______ _______ _______ _____ _____    ______ ____
ROOT
ATOM      1  C   UNL     1      44.759   4.839  11.806  0.00  0.00    +0.000 A 
ATOM      2  C   UNL     1      43.789   4.017  12.377  0.00  0.00    +0.000 A 
ATOM      3  C   UNL     1      43.365   2.865  11.718  0.00  0.00    +0.000 A 
ATOM      4  C   UNL     1      43.917   2.523  10.479  0.00  0.00    +0.000 A 
ATOM      5  C   UNL     1      44.917   3.311   9.880  0.00  0.00    +0.000 A 
ATOM      6  C   UNL     1      45.313   4.474  10.569  0.00  0.00    +0.000 A 
ATOM      7  F   UNL     1      46.277   5.237  10.029  0.00  0.00    +0.000 F 
ENDROOT
BRANCH   5   8
ATOM      8  C   UNL     1      45.569   2.905   8.611  0.00  0.00    +0.000 A 
ATOM      9  C   UNL     1      45.754   3.808   7.546  0.00  0.00    +0.000 A 
ATOM     10  C   UNL     1      46.460   3.451   6.395  0.00  0.00    +0.000 A 
ATOM     11  C   UNL     1      46.973   2.166   6.265  0.00  0.00    +0.000 A 
ATOM     12  C   UNL     1      46.773   1.239   7.282  0.00  0.00    +0.000 A 
ATOM     13  C   UNL     1      46.083   1.606   8.441  0.00  0.00    +0.000 A 
ENDBRANCH   5   8
BRANCH   1  14
ATOM     14  O   UNL     1      45.086   5.942  12.554  0.00  0.00    +0.000 OA
BRANCH  14  15
ATOM     15  C   UNL     1      46.474   6.274  12.623  0.00  0.00    +0.000 C 
BRANCH  15  19
ATOM     16  C   UNL     1      48.322   5.106  16.346  0.00  0.00    +0.000 A 
ATOM     17  C   UNL     1      47.330   4.297  15.779  0.00  0.00    +0.000 A 
ATOM     18  C   UNL     1      46.710   4.681  14.588  0.00  0.00    +0.000 A 
ATOM     19  C   UNL     1      47.066   5.880  13.956  0.00  0.00    +0.000 A 
ATOM     20  C   UNL     1      48.070   6.681  14.525  0.00  0.00    +0.000 A 
ATOM     21  C   UNL     1      48.690   6.298  15.716  0.00  0.00    +0.000 A 
BRANCH  16  23
ATOM     22  N   UNL     1      49.496   4.379  18.539  0.00  0.00    +0.000 NA
ATOM     23  C   UNL     1      48.969   4.704  17.560  0.00  0.00    +0.000 C 
ENDBRANCH  16  23
ENDBRANCH  15  19
ENDBRANCH  14  15
ENDBRANCH   1  14
TORSDOF 5
ENDMDL
MODEL 6
REMARK VINA RESULT:    -6.476      4.437      6.885
REMARK INTER + INTRA:          -9.031
REMARK INTER:                  -8.328
REMARK INTRA:                  -0.703
REMARK UNBOUND:                -0.661
REMARK  Name = 
REMARK  5 active torsions:
REMARK  status: ('A' for Active; 'I' for Inactive)
REMARK    1  A    between atoms: C_2  and  C_3
REMARK    2  A    between atoms: C_6  and  C_7
REMARK    3  A    between atoms: C_7  and  O_8
REMARK    4  A    between atoms: O_8  and  C_9
REMARK    5  A    between atoms: C_13  and  C_14
REMARK                            x       y       z     vdW  Elec       q    Type
REMARK                         _______ _______ _______ _____ _____    ______ ____
ROOT
ATOM      1  C   UNL     1      46.857   4.069  13.681  0.00  0.00    +0.000 A 
ATOM      2  C   UNL     1      45.854   3.516  12.885  0.00  0.00    +0.000 A 
ATOM      3  C   UNL     1      45.252   4.275  11.884  0.00  0.00    +0.000 A 
ATOM      4  C   UNL     1      45.655   5.597  11.668  0.00  0.00    +0.000 A 
ATOM      5  C   UNL     1      46.680   6.184  12.432  0.00  0.00    +0.000 A 
ATOM      6  C   UNL     1      47.259   5.392  13.443  0.00  0.00    +0.000 A 
ATOM      7  F   UNL     1      48.251   5.921  14.178  0.00  0.00    +0.000 F 
ENDROOT
BRANCH   5   8
ATOM      8  C   UNL     1      47.173   7.555  12.147  0.00  0.00    +0.000 A 
ATOM      9  C   UNL     1      46.360   8.691  12.326  0.00  0.00    +0.000 A 
ATOM     10  C   UNL     1      46.859   9.985  12.157  0.00  0.00    +0.000 A 
ATOM     11  C   UNL     1      48.181  10.174  11.770  0.00  0.00    +0.000 A 
ATOM     12  C   UNL     1      48.998   9.071  11.548  0.00  0.00    +0.000 A 
ATOM     13  C   UNL     1      48.500   7.779  11.737  0.00  0.00    +0.000 A 
ENDBRANCH   5   8
BRANCH   1  14
ATOM     14  O   UNL     1      47.365   3.219  14.631  0.00  0.00    +0.000 OA
BRANCH  14  15
ATOM     15  C   UNL     1      47.351   3.693  15.980  0.00  0.00    +0.000 C 
BRANCH  15  19
ATOM     16  C   UNL     1      51.234   3.109  17.774  0.00  0.00    +0.000 A 
ATOM     17  C   UNL     1      50.557   2.019  17.216  0.00  0.00    +0.000 A 
ATOM     18  C   UNL     1      49.289   2.196  16.656  0.00  0.00    +0.000 A 
ATOM     19  C   UNL     1      48.682   3.458  16.657  0.00  0.00    +0.000 A 
ATOM     20  C   UNL     1      49.373   4.549  17.209  0.00  0.00    +0.000 A 
ATOM     21  C   UNL     1      50.639   4.375  17.768  0.00  0.00    +0.000 A 
BRANCH  16  23
ATOM     22  N   UNL     1      53.597   2.784  18.789  0.00  0.00    +0.000 NA
ATOM     23  C   UNL     1      52.541   2.932  18.334  0.00  0.00    +0.000 C 
ENDBRANCH  16  23
ENDBRANCH  15  19
ENDBRANCH  14  15
ENDBRANCH   1  14
TORSDOF 5
ENDMDL
MODEL 7
REMARK VINA RESULT:    -6.384      3.866      6.862
REMARK INTER + INTRA:          -8.912
REMARK INTER:                  -7.792
REMARK INTRA:                  -1.120
REMARK UNBOUND:                -0.661
REMARK  Name = 
REMARK  5 active torsions:
REMARK  status: ('A' for Active; 'I' for Inactive)
REMARK    1  A    between atoms: C_2  and  C_3
REMARK    2  A    between atoms: C_6  and  C_7
REMARK    3  A    between atoms: C_7  and  O_8
REMARK    4  A    between atoms: O_8  and  C_9
REMARK    5  A    between atoms: C_13  and  C_14
REMARK                            x       y       z     vdW  Elec       q    Type
REMARK                         _______ _______ _______ _____ _____    ______ ____
ROOT
ATOM      1  C   UNL     1      45.383   8.894  12.159  0.00  0.00    +0.000 A 
ATOM      2  C   UNL     1      46.704   8.986  12.595  0.00  0.00    +0.000 A 
ATOM      3  C   UNL     1      47.575   7.911  12.433  0.00  0.00    +0.000 A 
ATOM      4  C   UNL     1      47.129   6.733  11.825  0.00  0.00    +0.000 A 
ATOM      5  C   UNL     1      45.812   6.608  11.349  0.00  0.00    +0.000 A 
ATOM      6  C   UNL     1      44.955   7.711  11.540  0.00  0.00    +0.000 A 
ATOM      7  F   UNL     1      43.696   7.626  11.080  0.00  0.00    +0.000 F 
ENDROOT
BRANCH   5   8
ATOM      8  C   UNL     1      45.360   5.395  10.623  0.00  0.00    +0.000 A 
ATOM      9  C   UNL     1      45.667   5.182   9.265  0.00  0.00    +0.000 A 
ATOM     10  C   UNL     1      45.329   3.993   8.614  0.00  0.00    +0.000 A 
ATOM     11  C   UNL     1      44.643   2.996   9.299  0.00  0.00    +0.000 A 
ATOM     12  C   UNL     1      44.292   3.193  10.630  0.00  0.00    +0.000 A 
ATOM     13  C   UNL     1      44.648   4.376  11.283  0.00  0.00    +0.000 A 
ENDBRANCH   5   8
BRANCH   1  14
ATOM     14  O   UNL     1      44.629  10.019  12.380  0.00  0.00    +0.000 OA
BRANCH  14  15
ATOM     15  C   UNL     1      45.109  11.231  11.792  0.00  0.00    +0.000 C 
BRANCH  15  19
ATOM     16  C   UNL     1      44.000  11.331   7.621  0.00  0.00    +0.000 A 
ATOM     17  C   UNL     1      45.210  11.901   8.031  0.00  0.00    +0.000 A 
ATOM     18  C   UNL     1      45.563  11.895   9.382  0.00  0.00    +0.000 A 
ATOM     19  C   UNL     1      44.710  11.329  10.338  0.00  0.00    +0.000 A 
ATOM     20  C   UNL     1      43.502  10.749   9.917  0.00  0.00    +0.000 A 
ATOM     21  C   UNL     1      43.147  10.754   8.567  0.00  0.00    +0.000 A 
BRANCH  16  23
ATOM     22  N   UNL     1      43.354  11.321   5.111  0.00  0.00    +0.000 NA
ATOM     23  C   UNL     1      43.643  11.323   6.233  0.00  0.00    +0.000 C 
ENDBRANCH  16  23
ENDBRANCH  15  19
ENDBRANCH  14  15
ENDBRANCH   1  14
TORSDOF 5
ENDMDL
MODEL 8
REMARK VINA RESULT:    -6.328      4.598      7.729
REMARK INTER + INTRA:          -8.839
REMARK INTER:                  -8.079
REMARK INTRA:                  -0.759
REMARK UNBOUND:                -0.661
REMARK  Name = 
REMARK  5 active torsions:
REMARK  status: ('A' for Active; 'I' for Inactive)
REMARK    1  A    between atoms: C_2  and  C_3
REMARK    2  A    between atoms: C_6  and  C_7
REMARK    3  A    between atoms: C_7  and  O_8
REMARK    4  A    between atoms: O_8  and  C_9
REMARK    5  A    between atoms: C_13  and  C_14
REMARK                            x       y       z     vdW  Elec       q    Type
REMARK                         _______ _______ _______ _____ _____    ______ ____
ROOT
ATOM      1  C   UNL     1      48.085   6.566  14.474  0.00  0.00    +0.000 A 
ATOM      2  C   UNL     1      47.961   7.935  14.243  0.00  0.00    +0.000 A 
ATOM      3  C   UNL     1      47.008   8.413  13.345  0.00  0.00    +0.000 A 
ATOM      4  C   UNL     1      46.166   7.521  12.674  0.00  0.00    +0.000 A 
ATOM      5  C   UNL     1      46.242   6.135  12.898  0.00  0.00    +0.000 A 
ATOM      6  C   UNL     1      47.224   5.685  13.803  0.00  0.00    +0.000 A 
ATOM      7  F   UNL     1      47.308   4.367  14.048  0.00  0.00    +0.000 F 
ENDROOT
BRANCH   5   8
ATOM      8  C   UNL     1      45.291   5.192  12.257  0.00  0.00    +0.000 A 
ATOM      9  C   UNL     1      45.270   4.987  10.864  0.00  0.00    +0.000 A 
ATOM     10  C   UNL     1      44.447   4.024  10.276  0.00  0.00    +0.000 A 
ATOM     11  C   UNL     1      43.596   3.260  11.067  0.00  0.00    +0.000 A 
ATOM     12  C   UNL     1      43.565   3.466  12.442  0.00  0.00    +0.000 A 
ATOM     13  C   UNL     1      44.405   4.418  13.028  0.00  0.00    +0.000 A 
ENDBRANCH   5   8
BRANCH   1  14
ATOM     14  O   UNL     1      49.061   6.226  15.376  0.00  0.00    +0.000 OA
BRANCH  14  15
ATOM     15  C   UNL     1      48.616   5.644  16.604  0.00  0.00    +0.000 C 
BRANCH  15  19
ATOM     16  C   UNL     1      51.177   2.305  17.571  0.00  0.00    +0.000 A 
ATOM     17  C   UNL     1      49.872   2.072  17.122  0.00  0.00    +0.000 A 
ATOM     18  C   UNL     1      49.030   3.147  16.831  0.00  0.00    +0.000 A 
ATOM     19  C   UNL     1      49.477   4.465  16.995  0.00  0.00    +0.000 A 
ATOM     20  C   UNL     1      50.791   4.691  17.436  0.00  0.00    +0.000 A 
ATOM     21  C   UNL     1      51.634   3.617  17.727  0.00  0.00    +0.000 A 
BRANCH  16  23
ATOM     22  N   UNL     1      52.753   0.313  18.083  0.00  0.00    +0.000 NA
ATOM     23  C   UNL     1      52.046   1.202  17.855  0.00  0.00    +0.000 C 
ENDBRANCH  16  23
ENDBRANCH  15  19
ENDBRANCH  14  15
ENDBRANCH   1  14
TORSDOF 5
ENDMDL
MODEL 9
REMARK VINA RESULT:    -6.124      4.988      7.829
REMARK INTER + INTRA:          -8.575
REMARK INTER:                  -7.655
REMARK INTRA:                  -0.920
REMARK UNBOUND:                -0.661
REMARK  Name = 
REMARK  5 active torsions:
REMARK  status: ('A' for Active; 'I' for Inactive)
REMARK    1  A    between atoms: C_2  and  C_3
REMARK    2  A    between atoms: C_6  and  C_7
REMARK    3  A    between atoms: C_7  and  O_8
REMARK    4  A    between atoms: O_8  and  C_9
REMARK    5  A    between atoms: C_13  and  C_14
REMARK                            x       y       z     vdW  Elec       q    Type
REMARK                         _______ _______ _______ _____ _____    ______ ____
ROOT
ATOM      1  C   UNL     1      45.155   8.919  12.073  0.00  0.00    +0.000 A 
ATOM      2  C   UNL     1      46.486   9.086  12.454  0.00  0.00    +0.000 A 
ATOM      3  C   UNL     1      47.401   8.049  12.287  0.00  0.00    +0.000 A 
ATOM      4  C   UNL     1      46.989   6.834  11.731  0.00  0.00    +0.000 A 
ATOM      5  C   UNL     1      45.662   6.633  11.311  0.00  0.00    +0.000 A 
ATOM      6  C   UNL     1      44.761   7.699  11.505  0.00  0.00    +0.000 A 
ATOM      7  F   UNL     1      43.491   7.542  11.098  0.00  0.00    +0.000 F 
ENDROOT
BRANCH   5   8
ATOM      8  C   UNL     1      45.241   5.379  10.638  0.00  0.00    +0.000 A 
ATOM      9  C   UNL     1      45.555   5.115   9.291  0.00  0.00    +0.000 A 
ATOM     10  C   UNL     1      45.248   3.891   8.692  0.00  0.00    +0.000 A 
ATOM     11  C   UNL     1      44.586   2.908   9.419  0.00  0.00    +0.000 A 
ATOM     12  C   UNL     1      44.228   3.153  10.740  0.00  0.00    +0.000 A 
ATOM     13  C   UNL     1      44.554   4.372  11.341  0.00  0.00    +0.000 A 
ENDBRANCH   5   8
BRANCH   1  14
ATOM     14  O   UNL     1      44.358  10.014  12.292  0.00  0.00    +0.000 OA
BRANCH  14  15
ATOM     15  C   UNL     1      44.283  10.968  11.231  0.00  0.00    +0.000 C 
BRANCH  15  19
ATOM     16  C   UNL     1      40.205  11.606   9.964  0.00  0.00    +0.000 A 
ATOM     17  C   UNL     1      41.169  12.590   9.720  0.00  0.00    +0.000 A 
ATOM     18  C   UNL     1      42.485  12.402  10.150  0.00  0.00    +0.000 A 
ATOM     19  C   UNL     1      42.849  11.235  10.834  0.00  0.00    +0.000 A 
ATOM     20  C   UNL     1      41.878  10.247  11.065  0.00  0.00    +0.000 A 
ATOM     21  C   UNL     1      40.563  10.433  10.637  0.00  0.00    +0.000 A 
BRANCH  16  23
ATOM     22  N   UNL     1      37.771  11.946   9.142  0.00  0.00    +0.000 NA
ATOM     23  C   UNL     1      38.858  11.792   9.511  0.00  0.00    +0.000 C 
ENDBRANCH  16  23
ENDBRANCH  15  19
ENDBRANCH  14  15
ENDBRANCH   1  14
TORSDOF 5
ENDMDL
