MODEL 1
REMARK VINA RESULT:    -7.384      0.000      0.000
REMARK INTER + INTRA:         -11.149
REMARK INTER:                 -10.190
REMARK INTRA:                  -0.959
REMARK UNBOUND:                -0.959
REMARK  Name = 
REMARK  7 active torsions:
REMARK  status: ('A' for Active; 'I' for Inactive)
REMARK    1  A    between atoms: N_1  and  C_2
REMARK    2  A    between atoms: C_2  and  C_3
REMARK    3  A    between atoms: C_7  and  C_8
REMARK    4  A    between atoms: C_8  and  C_9
REMARK    5  A    between atoms: C_9  and  O_10
REMARK    6  A    between atoms: O_10  and  C_11
REMARK    7  A    between atoms: C_16  and  C_17
REMARK                            x       y       z     vdW  Elec       q    Type
REMARK                         _______ _______ _______ _____ _____    ______ ____
ROOT
ATOM      1  O   UNL     1      43.521   4.569  12.009  0.00  0.00    +0.000 OA
ENDROOT
BRANCH   1   2
ATOM      2  C   UNL     1      44.762   5.065  12.332  0.00  0.00    +0.000 A 
ATOM      3  C   UNL     1      45.361   6.167  11.721  0.00  0.00    +0.000 A 
ATOM      4  C   UNL     1      46.611   6.605  12.145  0.00  0.00    +0.000 A 
ATOM      5  C   UNL     1      47.266   5.979  13.208  0.00  0.00    +0.000 A 
ATOM      6 CL   UNL     1      48.822   6.621  13.610  0.00  0.00    +0.000 Cl
ATOM      7  C   UNL     1      46.671   4.891  13.863  0.00  0.00    +0.000 A 
ATOM      8  C   UNL     1      45.430   4.414  13.382  0.00  0.00    +0.000 A 
BRANCH   7   9
ATOM      9  C   UNL     1      47.282   4.241  15.060  0.00  0.00    +0.000 C 
ATOM     10  N   UNL     1      47.338   4.937  16.234  0.00  0.00    +0.000 N 
ATOM     11  O   UNL     1      47.693   3.077  15.030  0.00  0.00    +0.000 OA
ATOM     12  H   UNL     1      47.099   5.917  16.329  0.00  0.00    +0.000 HD
ATOM     13  H   UNL     1      47.840   4.501  17.000  0.00  0.00    +0.000 HD
ENDBRANCH   7   9
ENDBRANCH   1   2
BRANCH   1  14
ATOM     14  C   UNL     1      43.337   4.211  10.630  0.00  0.00    +0.000 C 
BRANCH  14  15
ATOM     15  C   UNL     1      44.032   2.881  10.328  0.00  0.00    +0.000 C 
BRANCH  15  20
ATOM     16  C   UNL     1      46.617   1.898   7.691  0.00  0.00    +0.000 A 
ATOM     17  C   UNL     1      46.880   3.131   7.082  0.00  0.00    +0.000 A 
ATOM     18  C   UNL     1      46.266   4.290   7.553  0.00  0.00    +0.000 A 
ATOM     19  C   UNL     1      45.368   4.225   8.620  0.00  0.00    +0.000 A 
ATOM     20  C   UNL     1      45.074   2.999   9.235  0.00  0.00    +0.000 A 
ATOM     21  C   UNL     1      45.724   1.843   8.773  0.00  0.00    +0.000 A 
BRANCH  16  22
ATOM     22  C   UNL     1      47.200   0.636   7.112  0.00  0.00    +0.000 C 
BRANCH  22  23
ATOM     23  N   UNL     1      46.650  -0.529   7.795  0.00  0.00    +0.000 NA
ATOM     24  H   UNL     1      45.638  -0.523   7.707  0.00  0.00    +0.000 HD
ATOM     25  H   UNL     1      46.855  -0.453   8.791  0.00  0.00    +0.000 HD
ENDBRANCH  22  23
ENDBRANCH  16  22
ENDBRANCH  15  20
ENDBRANCH  14  15
ENDBRANCH   1  14
TORSDOF 7
ENDMDL
MODEL 2
REMARK VINA RESULT:    -7.153      2.994      6.559
REMARK INTER + INTRA:         -10.830
REMARK INTER:                 -10.084
REMARK INTRA:                  -0.747
REMARK UNBOUND:                -0.959
REMARK  Name = 
REMARK  7 active torsions:
REMARK  status: ('A' for Active; 'I' for Inactive)
REMARK    1  A    between atoms: N_1  and  C_2
REMARK    2  A    between atoms: C_2  and  C_3
REMARK    3  A    between atoms: C_7  and  C_8
REMARK    4  A    between atoms: C_8  and  C_9
REMARK    5  A    between atoms: C_9  and  O_10
REMARK    6  A    between atoms: O_10  and  C_11
REMARK    7  A    between atoms: C_16  and  C_17
REMARK                            x       y       z     vdW  Elec       q    Type
REMARK                         _______ _______ _______ _____ _____    ______ ____
ROOT
ATOM      1  O   UNL     1      44.227   4.935   9.382  0.00  0.00    +0.000 OA
ENDROOT
BRANCH   1   2
ATOM      2  C   UNL     1      44.822   3.759   8.993  0.00  0.00    +0.000 A 
ATOM      3  C   UNL     1      44.512   2.502   9.513  0.00  0.00    +0.000 A 
ATOM      4  C   UNL     1      45.156   1.368   9.026  0.00  0.00    +0.000 A 
ATOM      5  C   UNL     1      46.086   1.464   7.990  0.00  0.00    +0.000 A 
ATOM      6 CL   UNL     1      46.819  -0.027   7.503  0.00  0.00    +0.000 Cl
ATOM      7  C   UNL     1      46.390   2.710   7.424  0.00  0.00    +0.000 A 
ATOM      8  C   UNL     1      45.779   3.862   7.970  0.00  0.00    +0.000 A 
BRANCH   7   9
ATOM      9  C   UNL     1      47.307   2.862   6.256  0.00  0.00    +0.000 C 
ATOM     10  N   UNL     1      48.654   2.760   6.455  0.00  0.00    +0.000 N 
ATOM     11  O   UNL     1      46.878   3.030   5.110  0.00  0.00    +0.000 OA
ATOM     12  H   UNL     1      49.095   2.702   7.366  0.00  0.00    +0.000 HD
ATOM     13  H   UNL     1      49.250   2.958   5.658  0.00  0.00    +0.000 HD
ENDBRANCH   7   9
ENDBRANCH   1   2
BRANCH   1  14
ATOM     14  C   UNL     1      43.485   4.877  10.610  0.00  0.00    +0.000 C 
BRANCH  14  15
ATOM     15  C   UNL     1      43.746   6.128  11.451  0.00  0.00    +0.000 C 
BRANCH  15  20
ATOM     16  C   UNL     1      46.695   5.341  13.750  0.00  0.00    +0.000 A 
ATOM     17  C   UNL     1      47.741   6.010  13.104  0.00  0.00    +0.000 A 
ATOM     18  C   UNL     1      47.491   6.760  11.956  0.00  0.00    +0.000 A 
ATOM     19  C   UNL     1      46.198   6.829  11.431  0.00  0.00    +0.000 A 
ATOM     20  C   UNL     1      45.137   6.153  12.050  0.00  0.00    +0.000 A 
ATOM     21  C   UNL     1      45.397   5.428  13.224  0.00  0.00    +0.000 A 
BRANCH  16  22
ATOM     22  C   UNL     1      46.989   4.448  14.926  0.00  0.00    +0.000 C 
BRANCH  22  23
ATOM     23  N   UNL     1      47.506   3.165  14.464  0.00  0.00    +0.000 NA
ATOM     24  H   UNL     1      47.008   2.886  13.623  0.00  0.00    +0.000 HD
ATOM     25  H   UNL     1      47.307   2.457  15.169  0.00  0.00    +0.000 HD
ENDBRANCH  22  23
ENDBRANCH  16  22
ENDBRANCH  15  20
ENDBRANCH  14  15
ENDBRANCH   1  14
TORSDOF 7
ENDMDL
MODEL 3
REMARK VINA RESULT:    -6.702      3.024      6.582
REMARK INTER + INTRA:         -10.208
REMARK INTER:                  -9.889
REMARK INTRA:                  -0.319
REMARK UNBOUND:                -0.959
REMARK  Name = 
REMARK  7 active torsions:
REMARK  status: ('A' for Active; 'I' for Inactive)
REMARK    1  A    between atoms: N_1  and  C_2
REMARK    2  A    between atoms: C_2  and  C_3
REMARK    3  A    between atoms: C_7  and  C_8
REMARK    4  A    between atoms: C_8  and  C_9
REMARK    5  A    between atoms: C_9  and  O_10
REMARK    6  A    between atoms: O_10  and  C_11
REMARK    7  A    between atoms: C_16  and  C_17
REMARK                            x       y       z     vdW  Elec       q    Type
REMARK                         _______ _______ _______ _____ _____    ______ ____
ROOT
ATOM      1  O   UNL     1      43.552   2.699  10.795  0.00  0.00    +0.000 OA
ENDROOT
BRANCH   1   2
ATOM      2  C   UNL     1      44.351   2.973   9.711  0.00  0.00    +0.000 A 
ATOM      3  C   UNL     1      44.531   4.241   9.158  0.00  0.00    +0.000 A 
ATOM      4  C   UNL     1      45.388   4.414   8.076  0.00  0.00    +0.000 A 
ATOM      5  C   UNL     1      46.108   3.338   7.554  0.00  0.00    +0.000 A 
ATOM      6 CL   UNL     1      47.119   3.702   6.196  0.00  0.00    +0.000 Cl
ATOM      7  C   UNL     1      45.974   2.060   8.113  0.00  0.00    +0.000 A 
ATOM      8  C   UNL     1      45.052   1.882   9.171  0.00  0.00    +0.000 A 
BRANCH   7   9
ATOM      9  C   UNL     1      46.784   0.892   7.657  0.00  0.00    +0.000 C 
ATOM     10  N   UNL     1      47.912   1.117   6.921  0.00  0.00    +0.000 N 
ATOM     11  O   UNL     1      46.487  -0.267   7.966  0.00  0.00    +0.000 OA
ATOM     12  H   UNL     1      48.186   2.022   6.557  0.00  0.00    +0.000 HD
ATOM     13  H   UNL     1      48.387   0.299   6.551  0.00  0.00    +0.000 HD
ENDBRANCH   7   9
ENDBRANCH   1   2
BRANCH   1  14
ATOM     14  C   UNL     1      44.191   2.797  12.077  0.00  0.00    +0.000 C 
BRANCH  14  15
ATOM     15  C   UNL     1      43.706   4.044  12.820  0.00  0.00    +0.000 C 
BRANCH  15  20
ATOM     16  C   UNL     1      45.148   7.513  12.122  0.00  0.00    +0.000 A 
ATOM     17  C   UNL     1      46.406   7.422  12.732  0.00  0.00    +0.000 A 
ATOM     18  C   UNL     1      46.813   6.228  13.322  0.00  0.00    +0.000 A 
ATOM     19  C   UNL     1      45.961   5.121  13.330  0.00  0.00    +0.000 A 
ATOM     20  C   UNL     1      44.689   5.193  12.743  0.00  0.00    +0.000 A 
ATOM     21  C   UNL     1      44.304   6.392  12.121  0.00  0.00    +0.000 A 
BRANCH  16  22
ATOM     22  C   UNL     1      44.672   8.835  11.579  0.00  0.00    +0.000 C 
BRANCH  22  23
ATOM     23  N   UNL     1      44.711   9.849  12.627  0.00  0.00    +0.000 NA
ATOM     24  H   UNL     1      44.249   9.491  13.458  0.00  0.00    +0.000 HD
ATOM     25  H   UNL     1      44.172  10.658  12.320  0.00  0.00    +0.000 HD
ENDBRANCH  22  23
ENDBRANCH  16  22
ENDBRANCH  15  20
ENDBRANCH  14  15
ENDBRANCH   1  14
TORSDOF 7
ENDMDL
MODEL 4
REMARK VINA RESULT:    -6.306      3.559      7.182
REMARK INTER + INTRA:          -9.661
REMARK INTER:                  -9.161
REMARK INTRA:                  -0.500
REMARK UNBOUND:                -0.959
REMARK  Name = 
REMARK  7 active torsions:
REMARK  status: ('A' for Active; 'I' for Inactive)
REMARK    1  A    between atoms: N_1  and  C_2
REMARK    2  A    between atoms: C_2  and  C_3
REMARK    3  A    between atoms: C_7  and  C_8
REMARK    4  A    between atoms: C_8  and  C_9
REMARK    5  A    between atoms: C_9  and  O_10
REMARK    6  A    between atoms: O_10  and  C_11
REMARK    7  A    between atoms: C_16  and  C_17
REMARK                            x       y       z     vdW  Elec       q    Type
REMARK                         _______ _______ _______ _____ _____    ______ ____
ROOT
ATOM      1  O   UNL     1      44.150   4.824   9.294  0.00  0.00    +0.000 OA
ENDROOT
BRANCH   1   2
ATOM      2  C   UNL     1      44.776   3.660   8.917  0.00  0.00    +0.000 A 
ATOM      3  C   UNL     1      44.476   2.396   9.426  0.00  0.00    +0.000 A 
ATOM      4  C   UNL     1      45.152   1.276   8.954  0.00  0.00    +0.000 A 
ATOM      5  C   UNL     1      46.107   1.390   7.941  0.00  0.00    +0.000 A 
ATOM      6 CL   UNL     1      46.878  -0.086   7.470  0.00  0.00    +0.000 Cl
ATOM      7  C   UNL     1      46.403   2.643   7.387  0.00  0.00    +0.000 A 
ATOM      8  C   UNL     1      45.757   3.783   7.919  0.00  0.00    +0.000 A 
BRANCH   7   9
ATOM      9  C   UNL     1      47.346   2.815   6.243  0.00  0.00    +0.000 C 
ATOM     10  N   UNL     1      48.688   2.708   6.470  0.00  0.00    +0.000 N 
ATOM     11  O   UNL     1      46.944   3.004   5.090  0.00  0.00    +0.000 OA
ATOM     12  H   UNL     1      49.108   2.633   7.390  0.00  0.00    +0.000 HD
ATOM     13  H   UNL     1      49.302   2.920   5.691  0.00  0.00    +0.000 HD
ENDBRANCH   7   9
ENDBRANCH   1   2
BRANCH   1  14
ATOM     14  C   UNL     1      43.618   4.837  10.627  0.00  0.00    +0.000 C 
BRANCH  14  15
ATOM     15  C   UNL     1      44.753   4.848  11.654  0.00  0.00    +0.000 C 
BRANCH  15  20
ATOM     16  C   UNL     1      45.249   8.636  11.718  0.00  0.00    +0.000 A 
ATOM     17  C   UNL     1      46.580   8.738  12.141  0.00  0.00    +0.000 A 
ATOM     18  C   UNL     1      47.337   7.588  12.355  0.00  0.00    +0.000 A 
ATOM     19  C   UNL     1      46.765   6.327  12.172  0.00  0.00    +0.000 A 
ATOM     20  C   UNL     1      45.429   6.198  11.767  0.00  0.00    +0.000 A 
ATOM     21  C   UNL     1      44.686   7.365  11.522  0.00  0.00    +0.000 A 
BRANCH  16  22
ATOM     22  C   UNL     1      44.405   9.877  11.591  0.00  0.00    +0.000 C 
BRANCH  22  23
ATOM     23  N   UNL     1      45.103  11.019  12.172  0.00  0.00    +0.000 NA
ATOM     24  H   UNL     1      46.035  10.732  12.458  0.00  0.00    +0.000 HD
ATOM     25  H   UNL     1      44.614  11.306  13.019  0.00  0.00    +0.000 HD
ENDBRANCH  22  23
ENDBRANCH  16  22
ENDBRANCH  15  20
ENDBRANCH  14  15
ENDBRANCH   1  14
TORSDOF 7
ENDMDL
MODEL 5
REMARK VINA RESULT:    -6.184      3.920      7.840
REMARK INTER + INTRA:          -9.493
REMARK INTER:                  -9.071
REMARK INTRA:                  -0.423
REMARK UNBOUND:                -0.959
REMARK  Name = 
REMARK  7 active torsions:
REMARK  status: ('A' for Active; 'I' for Inactive)
REMARK    1  A    between atoms: N_1  and  C_2
REMARK    2  A    between atoms: C_2  and  C_3
REMARK    3  A    between atoms: C_7  and  C_8
REMARK    4  A    between atoms: C_8  and  C_9
REMARK    5  A    between atoms: C_9  and  O_10
REMARK    6  A    between atoms: O_10  and  C_11
REMARK    7  A    between atoms: C_16  and  C_17
REMARK                            x       y       z     vdW  Elec       q    Type
REMARK                         _______ _______ _______ _____ _____    ______ ____
ROOT
ATOM      1  O   UNL     1      47.544   3.177  14.463  0.00  0.00    +0.000 OA
ENDROOT
BRANCH   1   2
ATOM      2  C   UNL     1      46.686   3.961  13.728  0.00  0.00    +0.000 A 
ATOM      3  C   UNL     1      46.677   5.356  13.741  0.00  0.00    +0.000 A 
ATOM      4  C   UNL     1      45.784   6.054  12.935  0.00  0.00    +0.000 A 
ATOM      5  C   UNL     1      44.916   5.378  12.075  0.00  0.00    +0.000 A 
ATOM      6 CL   UNL     1      43.850   6.379  11.149  0.00  0.00    +0.000 Cl
ATOM      7  C   UNL     1      44.929   3.977  12.016  0.00  0.00    +0.000 A 
ATOM      8  C   UNL     1      45.795   3.275  12.886  0.00  0.00    +0.000 A 
BRANCH   7   9
ATOM      9  C   UNL     1      44.089   3.205  11.053  0.00  0.00    +0.000 C 
ATOM     10  N   UNL     1      44.492   3.111   9.752  0.00  0.00    +0.000 N 
ATOM     11  O   UNL     1      43.068   2.611  11.412  0.00  0.00    +0.000 OA
ATOM     12  H   UNL     1      45.269   3.627   9.355  0.00  0.00    +0.000 HD
ATOM     13  H   UNL     1      43.853   2.657   9.107  0.00  0.00    +0.000 HD
ENDBRANCH   7   9
ENDBRANCH   1   2
BRANCH   1  14
ATOM     14  C   UNL     1      47.699   3.553  15.840  0.00  0.00    +0.000 C 
BRANCH  14  15
ATOM     15  C   UNL     1      48.348   2.415  16.633  0.00  0.00    +0.000 C 
BRANCH  15  20
ATOM     16  C   UNL     1      52.005   2.092  17.693  0.00  0.00    +0.000 A 
ATOM     17  C   UNL     1      52.335   3.424  17.971  0.00  0.00    +0.000 A 
ATOM     18  C   UNL     1      51.367   4.422  17.871  0.00  0.00    +0.000 A 
ATOM     19  C   UNL     1      50.069   4.102  17.468  0.00  0.00    +0.000 A 
ATOM     20  C   UNL     1      49.718   2.779  17.165  0.00  0.00    +0.000 A 
ATOM     21  C   UNL     1      50.694   1.777  17.303  0.00  0.00    +0.000 A 
BRANCH  16  22
ATOM     22  C   UNL     1      53.078   1.035  17.700  0.00  0.00    +0.000 C 
BRANCH  22  23
ATOM     23  N   UNL     1      52.559  -0.202  18.271  0.00  0.00    +0.000 NA
ATOM     24  H   UNL     1      52.154  -0.007  19.182  0.00  0.00    +0.000 HD
ATOM     25  H   UNL     1      53.337  -0.842  18.430  0.00  0.00    +0.000 HD
ENDBRANCH  22  23
ENDBRANCH  16  22
ENDBRANCH  15  20
ENDBRANCH  14  15
ENDBRANCH   1  14
TORSDOF 7
ENDMDL
MODEL 6
REMARK VINA RESULT:    -6.069      3.867      7.266
REMARK INTER + INTRA:          -9.335
REMARK INTER:                  -8.467
REMARK INTRA:                  -0.867
REMARK UNBOUND:                -0.959
REMARK  Name = 
REMARK  7 active torsions:
REMARK  status: ('A' for Active; 'I' for Inactive)
REMARK    1  A    between atoms: N_1  and  C_2
REMARK    2  A    between atoms: C_2  and  C_3
REMARK    3  A    between atoms: C_7  and  C_8
REMARK    4  A    between atoms: C_8  and  C_9
REMARK    5  A    between atoms: C_9  and  O_10
REMARK    6  A    between atoms: O_10  and  C_11
REMARK    7  A    between atoms: C_16  and  C_17
REMARK                            x       y       z     vdW  Elec       q    Type
REMARK                         _______ _______ _______ _____ _____    ______ ____
ROOT
ATOM      1  O   UNL     1      48.849   6.291  13.384  0.00  0.00    +0.000 OA
ENDROOT
BRANCH   1   2
ATOM      2  C   UNL     1      47.556   6.356  12.921  0.00  0.00    +0.000 A 
ATOM      3  C   UNL     1      47.024   7.425  12.199  0.00  0.00    +0.000 A 
ATOM      4  C   UNL     1      45.708   7.377  11.751  0.00  0.00    +0.000 A 
ATOM      5  C   UNL     1      44.915   6.251  11.980  0.00  0.00    +0.000 A 
ATOM      6 CL   UNL     1      43.293   6.344  11.382  0.00  0.00    +0.000 Cl
ATOM      7  C   UNL     1      45.435   5.148  12.672  0.00  0.00    +0.000 A 
ATOM      8  C   UNL     1      46.753   5.233  13.178  0.00  0.00    +0.000 A 
BRANCH   7   9
ATOM      9  C   UNL     1      44.666   3.884  12.867  0.00  0.00    +0.000 C 
ATOM     10  N   UNL     1      45.207   2.707  12.436  0.00  0.00    +0.000 N 
ATOM     11  O   UNL     1      43.576   3.869  13.448  0.00  0.00    +0.000 OA
ATOM     12  H   UNL     1      46.054   2.636  11.883  0.00  0.00    +0.000 HD
ATOM     13  H   UNL     1      44.620   1.882  12.502  0.00  0.00    +0.000 HD
ENDBRANCH   7   9
ENDBRANCH   1   2
BRANCH   1  14
ATOM     14  C   UNL     1      49.288   7.420  14.154  0.00  0.00    +0.000 C 
BRANCH  14  15
ATOM     15  C   UNL     1      48.716   7.352  15.572  0.00  0.00    +0.000 C 
BRANCH  15  20
ATOM     16  C   UNL     1      48.886   3.994  17.388  0.00  0.00    +0.000 A 
ATOM     17  C   UNL     1      50.251   3.906  17.687  0.00  0.00    +0.000 A 
ATOM     18  C   UNL     1      51.111   4.950  17.353  0.00  0.00    +0.000 A 
ATOM     19  C   UNL     1      50.620   6.081  16.697  0.00  0.00    +0.000 A 
ATOM     20  C   UNL     1      49.260   6.185  16.369  0.00  0.00    +0.000 A 
ATOM     21  C   UNL     1      48.398   5.140  16.741  0.00  0.00    +0.000 A 
BRANCH  16  22
ATOM     22  C   UNL     1      47.981   2.820  17.654  0.00  0.00    +0.000 C 
BRANCH  22  23
ATOM     23  N   UNL     1      46.589   3.204  17.451  0.00  0.00    +0.000 NA
ATOM     24  H   UNL     1      46.003   2.375  17.492  0.00  0.00    +0.000 HD
ATOM     25  H   UNL     1      46.488   3.585  16.511  0.00  0.00    +0.000 HD
ENDBRANCH  22  23
ENDBRANCH  16  22
ENDBRANCH  15  20
ENDBRANCH  14  15
ENDBRANCH   1  14
TORSDOF 7
ENDMDL
MODEL 7
REMARK VINA RESULT:    -5.763      1.909      2.939
REMARK INTER + INTRA:          -8.912
REMARK INTER:                  -8.554
REMARK INTRA:                  -0.358
REMARK UNBOUND:                -0.959
REMARK  Name = 
REMARK  7 active torsions:
REMARK  status: ('A' for Active; 'I' for Inactive)
REMARK    1  A    between atoms: N_1  and  C_2
REMARK    2  A    between atoms: C_2  and  C_3
REMARK    3  A    between atoms: C_7  and  C_8
REMARK    4  A    between atoms: C_8  and  C_9
REMARK    5  A    between atoms: C_9  and  O_10
REMARK    6  A    between atoms: O_10  and  C_11
REMARK    7  A    between atoms: C_16  and  C_17
REMARK                            x       y       z     vdW  Elec       q    Type
REMARK                         _______ _______ _______ _____ _____    ______ ____
ROOT
ATOM      1  O   UNL     1      46.508   5.172  12.583  0.00  0.00    +0.000 OA
ENDROOT
BRANCH   1   2
ATOM      2  C   UNL     1      47.239   5.467  13.710  0.00  0.00    +0.000 A 
ATOM      3  C   UNL     1      48.143   6.524  13.816  0.00  0.00    +0.000 A 
ATOM      4  C   UNL     1      48.812   6.751  15.014  0.00  0.00    +0.000 A 
ATOM      5  C   UNL     1      48.561   5.957  16.135  0.00  0.00    +0.000 A 
ATOM      6 CL   UNL     1      49.482   6.347  17.548  0.00  0.00    +0.000 Cl
ATOM      7  C   UNL     1      47.631   4.911  16.067  0.00  0.00    +0.000 A 
ATOM      8  C   UNL     1      47.005   4.647  14.826  0.00  0.00    +0.000 A 
BRANCH   7   9
ATOM      9  C   UNL     1      47.257   4.088  17.255  0.00  0.00    +0.000 C 
ATOM     10  N   UNL     1      46.879   4.720  18.405  0.00  0.00    +0.000 N 
ATOM     11  O   UNL     1      47.235   2.854  17.211  0.00  0.00    +0.000 OA
ATOM     12  H   UNL     1      46.943   5.720  18.555  0.00  0.00    +0.000 HD
ATOM     13  H   UNL     1      46.720   4.134  19.218  0.00  0.00    +0.000 HD
ENDBRANCH   7   9
ENDBRANCH   1   2
BRANCH   1  14
ATOM     14  C   UNL     1      46.140   6.299  11.772  0.00  0.00    +0.000 C 
BRANCH  14  15
ATOM     15  C   UNL     1      44.807   6.036  11.068  0.00  0.00    +0.000 C 
BRANCH  15  20
ATOM     16  C   UNL     1      45.798   3.731   8.186  0.00  0.00    +0.000 A 
ATOM     17  C   UNL     1      45.123   2.552   8.525  0.00  0.00    +0.000 A 
ATOM     18  C   UNL     1      44.305   2.512   9.652  0.00  0.00    +0.000 A 
ATOM     19  C   UNL     1      44.172   3.641  10.464  0.00  0.00    +0.000 A 
ATOM     20  C   UNL     1      44.853   4.828  10.157  0.00  0.00    +0.000 A 
ATOM     21  C   UNL     1      45.648   4.865   8.999  0.00  0.00    +0.000 A 
BRANCH  16  22
ATOM     22  C   UNL     1      46.763   3.737   7.029  0.00  0.00    +0.000 C 
BRANCH  22  23
ATOM     23  N   UNL     1      46.501   2.601   6.154  0.00  0.00    +0.000 NA
ATOM     24  H   UNL     1      45.502   2.533   5.982  0.00  0.00    +0.000 HD
ATOM     25  H   UNL     1      46.773   1.745   6.637  0.00  0.00    +0.000 HD
ENDBRANCH  22  23
ENDBRANCH  16  22
ENDBRANCH  15  20
ENDBRANCH  14  15
ENDBRANCH   1  14
TORSDOF 7
ENDMDL
MODEL 8
REMARK VINA RESULT:    -5.730      3.825      7.575
REMARK INTER + INTRA:          -8.866
REMARK INTER:                  -8.186
REMARK INTRA:                  -0.681
REMARK UNBOUND:                -0.959
REMARK  Name = 
REMARK  7 active torsions:
REMARK  status: ('A' for Active; 'I' for Inactive)
REMARK    1  A    between atoms: N_1  and  C_2
REMARK    2  A    between atoms: C_2  and  C_3
REMARK    3  A    between atoms: C_7  and  C_8
REMARK    4  A    between atoms: C_8  and  C_9
REMARK    5  A    between atoms: C_9  and  O_10
REMARK    6  A    between atoms: O_10  and  C_11
REMARK    7  A    between atoms: C_16  and  C_17
REMARK                            x       y       z     vdW  Elec       q    Type
REMARK                         _______ _______ _______ _____ _____    ______ ____
ROOT
ATOM      1  O   UNL     1      48.967   5.986  15.160  0.00  0.00    +0.000 OA
ENDROOT
BRANCH   1   2
ATOM      2  C   UNL     1      48.106   6.062  14.091  0.00  0.00    +0.000 A 
ATOM      3  C   UNL     1      48.236   6.957  13.029  0.00  0.00    +0.000 A 
ATOM      4  C   UNL     1      47.323   6.931  11.979  0.00  0.00    +0.000 A 
ATOM      5  C   UNL     1      46.293   5.989  11.951  0.00  0.00    +0.000 A 
ATOM      6 CL   UNL     1      45.224   6.091  10.593  0.00  0.00    +0.000 Cl
ATOM      7  C   UNL     1      46.160   5.055  12.987  0.00  0.00    +0.000 A 
ATOM      8  C   UNL     1      47.054   5.132  14.080  0.00  0.00    +0.000 A 
BRANCH   7   9
ATOM      9  C   UNL     1      45.135   3.969  12.966  0.00  0.00    +0.000 C 
ATOM     10  N   UNL     1      45.487   2.737  12.496  0.00  0.00    +0.000 N 
ATOM     11  O   UNL     1      43.994   4.144  13.404  0.00  0.00    +0.000 OA
ATOM     12  H   UNL     1      46.371   2.527  12.046  0.00  0.00    +0.000 HD
ATOM     13  H   UNL     1      44.744   2.051  12.410  0.00  0.00    +0.000 HD
ENDBRANCH   7   9
ENDBRANCH   1   2
BRANCH   1  14
ATOM     14  C   UNL     1      48.536   6.663  16.351  0.00  0.00    +0.000 C 
BRANCH  14  15
ATOM     15  C   UNL     1      48.303   5.658  17.481  0.00  0.00    +0.000 C 
BRANCH  15  20
ATOM     16  C   UNL     1      51.146   3.107  17.606  0.00  0.00    +0.000 A 
ATOM     17  C   UNL     1      50.510   1.955  17.128  0.00  0.00    +0.000 A 
ATOM     18  C   UNL     1      49.181   2.008  16.714  0.00  0.00    +0.000 A 
ATOM     19  C   UNL     1      48.468   3.207  16.796  0.00  0.00    +0.000 A 
ATOM     20  C   UNL     1      49.076   4.370  17.289  0.00  0.00    +0.000 A 
ATOM     21  C   UNL     1      50.427   4.311  17.671  0.00  0.00    +0.000 A 
BRANCH  16  22
ATOM     22  C   UNL     1      52.548   3.020  18.150  0.00  0.00    +0.000 C 
BRANCH  22  23
ATOM     23  N   UNL     1      52.851   1.646  18.533  0.00  0.00    +0.000 NA
ATOM     24  H   UNL     1      53.197   1.140  17.722  0.00  0.00    +0.000 HD
ATOM     25  H   UNL     1      51.986   1.186  18.816  0.00  0.00    +0.000 HD
ENDBRANCH  22  23
ENDBRANCH  16  22
ENDBRANCH  15  20
ENDBRANCH  14  15
ENDBRANCH   1  14
TORSDOF 7
ENDMDL
MODEL 9
REMARK VINA RESULT:    -5.539      3.211      5.084
REMARK INTER + INTRA:          -8.603
REMARK INTER:                  -7.895
REMARK INTRA:                  -0.709
REMARK UNBOUND:                -0.959
REMARK  Name = 
REMARK  7 active torsions:
REMARK  status: ('A' for Active; 'I' for Inactive)
REMARK    1  A    between atoms: N_1  and  C_2
REMARK    2  A    between atoms: C_2  and  C_3
REMARK    3  A    between atoms: C_7  and  C_8
REMARK    4  A    between atoms: C_8  and  C_9
REMARK    5  A    between atoms: C_9  and  O_10
REMARK    6  A    between atoms: O_10  and  C_11
REMARK    7  A    between atoms: C_16  and  C_17
REMARK                            x       y       z     vdW  Elec       q    Type
REMARK                         _______ _______ _______ _____ _____    ______ ____
ROOT
ATOM      1  O   UNL     1      48.846   7.704  14.192  0.00  0.00    +0.000 OA
ENDROOT
BRANCH   1   2
ATOM      2  C   UNL     1      49.228   6.921  15.255  0.00  0.00    +0.000 A 
ATOM      3  C   UNL     1      50.528   6.843  15.757  0.00  0.00    +0.000 A 
ATOM      4  C   UNL     1      50.802   6.039  16.859  0.00  0.00    +0.000 A 
ATOM      5  C   UNL     1      49.783   5.333  17.501  0.00  0.00    +0.000 A 
ATOM      6 CL   UNL     1      50.279   4.361  18.845  0.00  0.00    +0.000 Cl
ATOM      7  C   UNL     1      48.462   5.422  17.041  0.00  0.00    +0.000 A 
ATOM      8  C   UNL     1      48.205   6.190  15.881  0.00  0.00    +0.000 A 
BRANCH   7   9
ATOM      9  C   UNL     1      47.320   4.763  17.740  0.00  0.00    +0.000 C 
ATOM     10  N   UNL     1      46.636   5.463  18.693  0.00  0.00    +0.000 N 
ATOM     11  O   UNL     1      46.948   3.622  17.448  0.00  0.00    +0.000 OA
ATOM     12  H   UNL     1      46.918   6.369  19.050  0.00  0.00    +0.000 HD
ATOM     13  H   UNL     1      45.926   4.956  19.211  0.00  0.00    +0.000 HD
ENDBRANCH   7   9
ENDBRANCH   1   2
BRANCH   1  14
ATOM     14  C   UNL     1      48.722   7.023  12.934  0.00  0.00    +0.000 C 
BRANCH  14  15
ATOM     15  C   UNL     1      47.343   7.279  12.322  0.00  0.00    +0.000 C 
BRANCH  15  20
ATOM     16  C   UNL     1      45.007   4.640  10.845  0.00  0.00    +0.000 A 
ATOM     17  C   UNL     1      45.105   3.616  11.795  0.00  0.00    +0.000 A 
ATOM     18  C   UNL     1      45.880   3.793  12.939  0.00  0.00    +0.000 A 
ATOM     19  C   UNL     1      46.583   4.984  13.134  0.00  0.00    +0.000 A 
ATOM     20  C   UNL     1      46.517   6.017  12.188  0.00  0.00    +0.000 A 
ATOM     21  C   UNL     1      45.705   5.839  11.056  0.00  0.00    +0.000 A 
BRANCH  16  22
ATOM     22  C   UNL     1      44.255   4.404   9.562  0.00  0.00    +0.000 C 
BRANCH  22  23
ATOM     23  N   UNL     1      45.141   4.598   8.420  0.00  0.00    +0.000 NA
ATOM     24  H   UNL     1      44.594   4.573   7.564  0.00  0.00    +0.000 HD
ATOM     25  H   UNL     1      45.791   3.814   8.373  0.00  0.00    +0.000 HD
ENDBRANCH  22  23
ENDBRANCH  16  22
ENDBRANCH  15  20
ENDBRANCH  14  15
ENDBRANCH   1  14
TORSDOF 7
ENDMDL
