MODEL 1
REMARK VINA RESULT:    -7.859      0.000      0.000
REMARK INTER + INTRA:         -12.416
REMARK INTER:                 -11.305
REMARK INTRA:                  -1.111
REMARK UNBOUND:                -1.111
REMARK  Name = 
REMARK  9 active torsions:
REMARK  status: ('A' for Active; 'I' for Inactive)
REMARK    1  A    between atoms: C_1  and  C_2
REMARK    2  A    between atoms: C_6  and  C_7
REMARK    3  A    between atoms: C_7  and  O_8
REMARK    4  A    between atoms: O_8  and  C_9
REMARK    5  A    between atoms: C_9  and  C_10
REMARK    6  A    between atoms: C_13  and  C_14
REMARK    7  A    between atoms: C_14  and  N_15
REMARK    8  A    between atoms: C_16  and  C_18
REMARK    9  A    between atoms: C_25  and  O_26
REMARK                            x       y       z     vdW  Elec       q    Type
REMARK                         _______ _______ _______ _____ _____    ______ ____
ROOT
ATOM      1  C   UNL     1      44.711   5.383  11.676  0.00  0.00    +0.000 A 
ATOM      2  C   UNL     1      44.930   4.886  12.968  0.00  0.00    +0.000 A 
ATOM      3  C   UNL     1      46.074   5.245  13.693  0.00  0.00    +0.000 A 
ATOM      4  C   UNL     1      47.021   6.119  13.144  0.00  0.00    +0.000 A 
ATOM      5  C   UNL     1      46.814   6.597  11.842  0.00  0.00    +0.000 A 
ATOM      6  C   UNL     1      45.671   6.238  11.120  0.00  0.00    +0.000 A 
ENDROOT
BRANCH   1   7
ATOM      7  C   UNL     1      43.466   5.009  10.907  0.00  0.00    +0.000 C 
BRANCH   7   8
ATOM      8  O   UNL     1      43.861   4.456   9.655  0.00  0.00    +0.000 OA
BRANCH   8   9
ATOM      9  C   UNL     1      44.273   3.093   9.767  0.00  0.00    +0.000 C 
BRANCH   9  15
ATOM     10  C   UNL     1      46.973  -0.323   7.561  0.00  0.00    +0.000 C 
ATOM     11  C   UNL     1      46.597   1.125   7.660  0.00  0.00    +0.000 A 
ATOM     12  C   UNL     1      47.175   2.068   6.819  0.00  0.00    +0.000 A 
ATOM     13  C   UNL     1      46.802   3.401   6.951  0.00  0.00    +0.000 A 
ATOM     14  C   UNL     1      45.860   3.751   7.910  0.00  0.00    +0.000 A 
ATOM     15  C   UNL     1      45.300   2.754   8.707  0.00  0.00    +0.000 A 
ATOM     16  N   UNL     1      45.675   1.451   8.601  0.00  0.00    +0.000 NA
ENDBRANCH   9  15
ENDBRANCH   8   9
ENDBRANCH   7   8
ENDBRANCH   1   7
BRANCH   4  17
ATOM     17  C   UNL     1      48.241   6.548  13.924  0.00  0.00    +0.000 C 
BRANCH  17  18
ATOM     18  N   UNL     1      48.097   6.304  15.335  0.00  0.00    +0.000 N 
ATOM     19  C   UNL     1      49.186   6.208  16.163  0.00  0.00    +0.000 C 
ATOM     20  O   UNL     1      50.334   6.369  15.755  0.00  0.00    +0.000 OA
ATOM     21  H   UNL     1      47.220   5.911  15.663  0.00  0.00    +0.000 HD
BRANCH  19  22
ATOM     22  C   UNL     1      48.898   5.974  17.582  0.00  0.00    +0.000 A 
ATOM     23  C   UNL     1      49.176   4.736  18.140  0.00  0.00    +0.000 A 
ATOM     24  S   UNL     1      48.849   4.653  19.810  0.00  0.00    +0.000 S 
ATOM     25  C   UNL     1      48.267   6.249  19.826  0.00  0.00    +0.000 A 
ATOM     26  N   UNL     1      47.799   6.780  20.974  0.00  0.00    +0.000 NA
ATOM     27  C   UNL     1      47.348   8.040  20.866  0.00  0.00    +0.000 A 
ATOM     28  C   UNL     1      47.337   8.788  19.707  0.00  0.00    +0.000 A 
ATOM     29  C   UNL     1      47.837   8.198  18.549  0.00  0.00    +0.000 A 
ATOM     30  C   UNL     1      48.335   6.872  18.577  0.00  0.00    +0.000 A 
BRANCH  29  31
ATOM     31  O   UNL     1      47.836   8.918  17.381  0.00  0.00    +0.000 OA
ATOM     32  H   UNL     1      48.749   9.163  17.150  0.00  0.00    +0.000 HD
ENDBRANCH  29  31
ENDBRANCH  19  22
ENDBRANCH  17  18
ENDBRANCH   4  17
TORSDOF 8
ENDMDL
MODEL 2
REMARK VINA RESULT:    -7.773      1.563      2.079
REMARK INTER + INTRA:         -12.292
REMARK INTER:                 -10.976
REMARK INTRA:                  -1.316
REMARK UNBOUND:                -1.111
REMARK  Name = 
REMARK  9 active torsions:
REMARK  status: ('A' for Active; 'I' for Inactive)
REMARK    1  A    between atoms: C_1  and  C_2
REMARK    2  A    between atoms: C_6  and  C_7
REMARK    3  A    between atoms: C_7  and  O_8
REMARK    4  A    between atoms: O_8  and  C_9
REMARK    5  A    between atoms: C_9  and  C_10
REMARK    6  A    between atoms: C_13  and  C_14
REMARK    7  A    between atoms: C_14  and  N_15
REMARK    8  A    between atoms: C_16  and  C_18
REMARK    9  A    between atoms: C_25  and  O_26
REMARK                            x       y       z     vdW  Elec       q    Type
REMARK                         _______ _______ _______ _____ _____    ______ ____
ROOT
ATOM      1  C   UNL     1      44.519   5.116  12.106  0.00  0.00    +0.000 A 
ATOM      2  C   UNL     1      45.173   4.647  13.254  0.00  0.00    +0.000 A 
ATOM      3  C   UNL     1      46.382   5.215  13.676  0.00  0.00    +0.000 A 
ATOM      4  C   UNL     1      46.959   6.274  12.963  0.00  0.00    +0.000 A 
ATOM      5  C   UNL     1      46.317   6.726  11.802  0.00  0.00    +0.000 A 
ATOM      6  C   UNL     1      45.110   6.159  11.382  0.00  0.00    +0.000 A 
ENDROOT
BRANCH   1   7
ATOM      7  C   UNL     1      43.206   4.512  11.667  0.00  0.00    +0.000 C 
BRANCH   7   8
ATOM      8  O   UNL     1      43.356   4.028  10.336  0.00  0.00    +0.000 OA
BRANCH   8   9
ATOM      9  C   UNL     1      44.056   2.784  10.286  0.00  0.00    +0.000 C 
BRANCH   9  15
ATOM     10  C   UNL     1      47.049   0.202   7.421  0.00  0.00    +0.000 C 
ATOM     11  C   UNL     1      46.489   1.545   7.784  0.00  0.00    +0.000 A 
ATOM     12  C   UNL     1      46.883   2.687   7.097  0.00  0.00    +0.000 A 
ATOM     13  C   UNL     1      46.344   3.913   7.472  0.00  0.00    +0.000 A 
ATOM     14  C   UNL     1      45.423   3.961   8.512  0.00  0.00    +0.000 A 
ATOM     15  C   UNL     1      45.052   2.776   9.145  0.00  0.00    +0.000 A 
ATOM     16  N   UNL     1      45.591   1.576   8.800  0.00  0.00    +0.000 NA
ENDBRANCH   9  15
ENDBRANCH   8   9
ENDBRANCH   7   8
ENDBRANCH   1   7
BRANCH   4  17
ATOM     17  C   UNL     1      48.242   6.925  13.423  0.00  0.00    +0.000 C 
BRANCH  17  18
ATOM     18  N   UNL     1      48.399   6.867  14.852  0.00  0.00    +0.000 N 
ATOM     19  C   UNL     1      49.604   7.121  15.455  0.00  0.00    +0.000 C 
ATOM     20  O   UNL     1      50.598   7.455  14.813  0.00  0.00    +0.000 OA
ATOM     21  H   UNL     1      47.704   6.353  15.386  0.00  0.00    +0.000 HD
BRANCH  19  22
ATOM     22  C   UNL     1      49.622   7.043  16.919  0.00  0.00    +0.000 A 
ATOM     23  C   UNL     1      50.038   8.140  17.657  0.00  0.00    +0.000 A 
ATOM     24  S   UNL     1      49.933   7.907  19.341  0.00  0.00    +0.000 S 
ATOM     25  C   UNL     1      49.389   6.311  19.137  0.00  0.00    +0.000 A 
ATOM     26  N   UNL     1      49.139   5.545  20.218  0.00  0.00    +0.000 NA
ATOM     27  C   UNL     1      48.731   4.296  19.939  0.00  0.00    +0.000 A 
ATOM     28  C   UNL     1      48.560   3.776  18.672  0.00  0.00    +0.000 A 
ATOM     29  C   UNL     1      48.825   4.609  17.588  0.00  0.00    +0.000 A 
ATOM     30  C   UNL     1      49.256   5.942  17.795  0.00  0.00    +0.000 A 
BRANCH  29  31
ATOM     31  O   UNL     1      48.664   4.118  16.316  0.00  0.00    +0.000 OA
ATOM     32  H   UNL     1      47.716   4.018  16.124  0.00  0.00    +0.000 HD
ENDBRANCH  29  31
ENDBRANCH  19  22
ENDBRANCH  17  18
ENDBRANCH   4  17
TORSDOF 8
ENDMDL
MODEL 3
REMARK VINA RESULT:    -7.751      4.788      6.858
REMARK INTER + INTRA:         -12.260
REMARK INTER:                 -11.309
REMARK INTRA:                  -0.951
REMARK UNBOUND:                -1.111
REMARK  Name = 
REMARK  9 active torsions:
REMARK  status: ('A' for Active; 'I' for Inactive)
REMARK    1  A    between atoms: C_1  and  C_2
REMARK    2  A    between atoms: C_6  and  C_7
REMARK    3  A    between atoms: C_7  and  O_8
REMARK    4  A    between atoms: O_8  and  C_9
REMARK    5  A    between atoms: C_9  and  C_10
REMARK    6  A    between atoms: C_13  and  C_14
REMARK    7  A    between atoms: C_14  and  N_15
REMARK    8  A    between atoms: C_16  and  C_18
REMARK    9  A    between atoms: C_25  and  O_26
REMARK                            x       y       z     vdW  Elec       q    Type
REMARK                         _______ _______ _______ _____ _____    ______ ____
ROOT
ATOM      1  C   UNL     1      46.170   2.324   7.748  0.00  0.00    +0.000 A 
ATOM      2  C   UNL     1      46.157   3.724   7.661  0.00  0.00    +0.000 A 
ATOM      3  C   UNL     1      45.410   4.494   8.562  0.00  0.00    +0.000 A 
ATOM      4  C   UNL     1      44.665   3.881   9.577  0.00  0.00    +0.000 A 
ATOM      5  C   UNL     1      44.658   2.481   9.648  0.00  0.00    +0.000 A 
ATOM      6  C   UNL     1      45.405   1.712   8.749  0.00  0.00    +0.000 A 
ENDROOT
BRANCH   1   7
ATOM      7  C   UNL     1      46.992   1.500   6.786  0.00  0.00    +0.000 C 
BRANCH   7   8
ATOM      8  O   UNL     1      46.824   2.035   5.477  0.00  0.00    +0.000 OA
BRANCH   8   9
ATOM      9  C   UNL     1      47.665   1.395   4.515  0.00  0.00    +0.000 C 
BRANCH   9  15
ATOM     10  C   UNL     1      46.943  -3.147   2.879  0.00  0.00    +0.000 C 
ATOM     11  C   UNL     1      46.521  -1.708   2.849  0.00  0.00    +0.000 A 
ATOM     12  C   UNL     1      45.458  -1.297   2.056  0.00  0.00    +0.000 A 
ATOM     13  C   UNL     1      45.106   0.049   2.053  0.00  0.00    +0.000 A 
ATOM     14  C   UNL     1      45.818   0.939   2.848  0.00  0.00    +0.000 A 
ATOM     15  C   UNL     1      46.860   0.458   3.639  0.00  0.00    +0.000 A 
ATOM     16  N   UNL     1      47.226  -0.852   3.630  0.00  0.00    +0.000 NA
ENDBRANCH   9  15
ENDBRANCH   8   9
ENDBRANCH   7   8
ENDBRANCH   1   7
BRANCH   4  17
ATOM     17  C   UNL     1      43.884   4.695  10.581  0.00  0.00    +0.000 C 
BRANCH  17  18
ATOM     18  N   UNL     1      44.503   5.966  10.849  0.00  0.00    +0.000 N 
ATOM     19  C   UNL     1      44.828   6.354  12.123  0.00  0.00    +0.000 C 
ATOM     20  O   UNL     1      44.650   5.622  13.095  0.00  0.00    +0.000 OA
ATOM     21  H   UNL     1      44.428   6.691  10.140  0.00  0.00    +0.000 HD
BRANCH  19  22
ATOM     22  C   UNL     1      45.469   7.667  12.254  0.00  0.00    +0.000 A 
ATOM     23  C   UNL     1      46.684   7.771  12.911  0.00  0.00    +0.000 A 
ATOM     24  S   UNL     1      47.323   9.351  12.914  0.00  0.00    +0.000 S 
ATOM     25  C   UNL     1      45.965   9.955  12.093  0.00  0.00    +0.000 A 
ATOM     26  N   UNL     1      45.883  11.272  11.811  0.00  0.00    +0.000 NA
ATOM     27  C   UNL     1      44.759  11.641  11.176  0.00  0.00    +0.000 A 
ATOM     28  C   UNL     1      43.733  10.793  10.811  0.00  0.00    +0.000 A 
ATOM     29  C   UNL     1      43.867   9.443  11.118  0.00  0.00    +0.000 A 
ATOM     30  C   UNL     1      45.024   8.969  11.784  0.00  0.00    +0.000 A 
BRANCH  29  31
ATOM     31  O   UNL     1      42.861   8.577  10.768  0.00  0.00    +0.000 OA
ATOM     32  H   UNL     1      42.267   9.010  10.130  0.00  0.00    +0.000 HD
ENDBRANCH  29  31
ENDBRANCH  19  22
ENDBRANCH  17  18
ENDBRANCH   4  17
TORSDOF 8
ENDMDL
MODEL 4
REMARK VINA RESULT:    -7.625      3.006      4.583
REMARK INTER + INTRA:         -12.078
REMARK INTER:                 -11.200
REMARK INTRA:                  -0.879
REMARK UNBOUND:                -1.111
REMARK  Name = 
REMARK  9 active torsions:
REMARK  status: ('A' for Active; 'I' for Inactive)
REMARK    1  A    between atoms: C_1  and  C_2
REMARK    2  A    between atoms: C_6  and  C_7
REMARK    3  A    between atoms: C_7  and  O_8
REMARK    4  A    between atoms: O_8  and  C_9
REMARK    5  A    between atoms: C_9  and  C_10
REMARK    6  A    between atoms: C_13  and  C_14
REMARK    7  A    between atoms: C_14  and  N_15
REMARK    8  A    between atoms: C_16  and  C_18
REMARK    9  A    between atoms: C_25  and  O_26
REMARK                            x       y       z     vdW  Elec       q    Type
REMARK                         _______ _______ _______ _____ _____    ______ ____
ROOT
ATOM      1  C   UNL     1      45.579   3.464   8.218  0.00  0.00    +0.000 A 
ATOM      2  C   UNL     1      45.775   4.733   8.782  0.00  0.00    +0.000 A 
ATOM      3  C   UNL     1      45.359   5.011  10.090  0.00  0.00    +0.000 A 
ATOM      4  C   UNL     1      44.744   4.022  10.868  0.00  0.00    +0.000 A 
ATOM      5  C   UNL     1      44.525   2.762  10.295  0.00  0.00    +0.000 A 
ATOM      6  C   UNL     1      44.942   2.484   8.989  0.00  0.00    +0.000 A 
ENDROOT
BRANCH   1   7
ATOM      7  C   UNL     1      46.048   3.164   6.814  0.00  0.00    +0.000 C 
BRANCH   7   8
ATOM      8  O   UNL     1      46.714   1.905   6.821  0.00  0.00    +0.000 OA
BRANCH   8   9
ATOM      9  C   UNL     1      47.619   1.762   5.725  0.00  0.00    +0.000 C 
BRANCH   9  15
ATOM     10  C   UNL     1      46.941  -2.612   3.666  0.00  0.00    +0.000 C 
ATOM     11  C   UNL     1      46.673  -1.137   3.624  0.00  0.00    +0.000 A 
ATOM     12  C   UNL     1      45.894  -0.586   2.614  0.00  0.00    +0.000 A 
ATOM     13  C   UNL     1      45.678   0.788   2.609  0.00  0.00    +0.000 A 
ATOM     14  C   UNL     1      46.237   1.567   3.615  0.00  0.00    +0.000 A 
ATOM     15  C   UNL     1      46.989   0.950   4.613  0.00  0.00    +0.000 A 
ATOM     16  N   UNL     1      47.224  -0.390   4.613  0.00  0.00    +0.000 NA
ENDBRANCH   9  15
ENDBRANCH   8   9
ENDBRANCH   7   8
ENDBRANCH   1   7
BRANCH   4  17
ATOM     17  C   UNL     1      44.322   4.291  12.293  0.00  0.00    +0.000 C 
BRANCH  17  18
ATOM     18  N   UNL     1      45.324   5.017  13.028  0.00  0.00    +0.000 N 
ATOM     19  C   UNL     1      46.347   4.373  13.675  0.00  0.00    +0.000 C 
ATOM     20  O   UNL     1      46.488   3.153  13.625  0.00  0.00    +0.000 OA
ATOM     21  H   UNL     1      45.109   5.967  13.314  0.00  0.00    +0.000 HD
BRANCH  19  22
ATOM     22  C   UNL     1      47.310   5.232  14.374  0.00  0.00    +0.000 A 
ATOM     23  C   UNL     1      47.951   6.245  13.680  0.00  0.00    +0.000 A 
ATOM     24  S   UNL     1      48.981   7.190  14.653  0.00  0.00    +0.000 S 
ATOM     25  C   UNL     1      48.650   6.236  16.018  0.00  0.00    +0.000 A 
ATOM     26  N   UNL     1      49.254   6.512  17.192  0.00  0.00    +0.000 NA
ATOM     27  C   UNL     1      48.932   5.683  18.198  0.00  0.00    +0.000 A 
ATOM     28  C   UNL     1      48.060   4.618  18.106  0.00  0.00    +0.000 A 
ATOM     29  C   UNL     1      47.457   4.377  16.876  0.00  0.00    +0.000 A 
ATOM     30  C   UNL     1      47.739   5.207  15.763  0.00  0.00    +0.000 A 
BRANCH  29  31
ATOM     31  O   UNL     1      46.586   3.323  16.755  0.00  0.00    +0.000 OA
ATOM     32  H   UNL     1      46.922   2.698  16.090  0.00  0.00    +0.000 HD
ENDBRANCH  29  31
ENDBRANCH  19  22
ENDBRANCH  17  18
ENDBRANCH   4  17
TORSDOF 8
ENDMDL
MODEL 5
REMARK VINA RESULT:    -7.166      4.093      6.187
REMARK INTER + INTRA:         -11.418
REMARK INTER:                 -10.111
REMARK INTRA:                  -1.307
REMARK UNBOUND:                -1.111
REMARK  Name = 
REMARK  9 active torsions:
REMARK  status: ('A' for Active; 'I' for Inactive)
REMARK    1  A    between atoms: C_1  and  C_2
REMARK    2  A    between atoms: C_6  and  C_7
REMARK    3  A    between atoms: C_7  and  O_8
REMARK    4  A    between atoms: O_8  and  C_9
REMARK    5  A    between atoms: C_9  and  C_10
REMARK    6  A    between atoms: C_13  and  C_14
REMARK    7  A    between atoms: C_14  and  N_15
REMARK    8  A    between atoms: C_16  and  C_18
REMARK    9  A    between atoms: C_25  and  O_26
REMARK                            x       y       z     vdW  Elec       q    Type
REMARK                         _______ _______ _______ _____ _____    ______ ____
ROOT
ATOM      1  C   UNL     1      44.601   5.141  12.086  0.00  0.00    +0.000 A 
ATOM      2  C   UNL     1      45.267   6.156  11.384  0.00  0.00    +0.000 A 
ATOM      3  C   UNL     1      46.513   6.630  11.814  0.00  0.00    +0.000 A 
ATOM      4  C   UNL     1      47.126   6.092  12.953  0.00  0.00    +0.000 A 
ATOM      5  C   UNL     1      46.450   5.095  13.669  0.00  0.00    +0.000 A 
ATOM      6  C   UNL     1      45.206   4.621  13.238  0.00  0.00    +0.000 A 
ENDROOT
BRANCH   1   7
ATOM      7  C   UNL     1      43.267   4.619  11.607  0.00  0.00    +0.000 C 
BRANCH   7   8
ATOM      8  O   UNL     1      43.428   4.121  10.283  0.00  0.00    +0.000 OA
BRANCH   8   9
ATOM      9  C   UNL     1      44.090   2.855  10.254  0.00  0.00    +0.000 C 
BRANCH   9  15
ATOM     10  C   UNL     1      47.013   0.136   7.446  0.00  0.00    +0.000 C 
ATOM     11  C   UNL     1      46.493   1.501   7.783  0.00  0.00    +0.000 A 
ATOM     12  C   UNL     1      46.922   2.619   7.078  0.00  0.00    +0.000 A 
ATOM     13  C   UNL     1      46.419   3.866   7.430  0.00  0.00    +0.000 A 
ATOM     14  C   UNL     1      45.497   3.960   8.466  0.00  0.00    +0.000 A 
ATOM     15  C   UNL     1      45.089   2.798   9.118  0.00  0.00    +0.000 A 
ATOM     16  N   UNL     1      45.593   1.576   8.796  0.00  0.00    +0.000 NA
ENDBRANCH   9  15
ENDBRANCH   8   9
ENDBRANCH   7   8
ENDBRANCH   1   7
BRANCH   4  17
ATOM     17  C   UNL     1      48.486   6.564  13.411  0.00  0.00    +0.000 C 
BRANCH  17  18
ATOM     18  N   UNL     1      49.041   7.558  12.530  0.00  0.00    +0.000 N 
ATOM     19  C   UNL     1      49.796   8.598  13.005  0.00  0.00    +0.000 C 
ATOM     20  O   UNL     1      50.076   8.713  14.197  0.00  0.00    +0.000 OA
ATOM     21  H   UNL     1      48.631   7.657  11.606  0.00  0.00    +0.000 HD
BRANCH  19  22
ATOM     22  C   UNL     1      50.315   9.532  11.999  0.00  0.00    +0.000 A 
ATOM     23  C   UNL     1      49.893  10.852  12.011  0.00  0.00    +0.000 A 
ATOM     24  S   UNL     1      50.642  11.816  10.822  0.00  0.00    +0.000 S 
ATOM     25  C   UNL     1      51.505  10.485  10.216  0.00  0.00    +0.000 A 
ATOM     26  N   UNL     1      52.323  10.644   9.155  0.00  0.00    +0.000 NA
ATOM     27  C   UNL     1      52.940   9.523   8.749  0.00  0.00    +0.000 A 
ATOM     28  C   UNL     1      52.796   8.278   9.327  0.00  0.00    +0.000 A 
ATOM     29  C   UNL     1      51.946   8.167  10.423  0.00  0.00    +0.000 A 
ATOM     30  C   UNL     1      51.258   9.302  10.917  0.00  0.00    +0.000 A 
BRANCH  29  31
ATOM     31  O   UNL     1      51.782   6.939  11.017  0.00  0.00    +0.000 OA
ATOM     32  H   UNL     1      50.833   6.733  11.079  0.00  0.00    +0.000 HD
ENDBRANCH  29  31
ENDBRANCH  19  22
ENDBRANCH  17  18
ENDBRANCH   4  17
TORSDOF 8
ENDMDL
MODEL 6
REMARK VINA RESULT:    -7.147      3.757      6.856
REMARK INTER + INTRA:         -11.391
REMARK INTER:                 -10.450
REMARK INTRA:                  -0.941
REMARK UNBOUND:                -1.111
REMARK  Name = 
REMARK  9 active torsions:
REMARK  status: ('A' for Active; 'I' for Inactive)
REMARK    1  A    between atoms: C_1  and  C_2
REMARK    2  A    between atoms: C_6  and  C_7
REMARK    3  A    between atoms: C_7  and  O_8
REMARK    4  A    between atoms: O_8  and  C_9
REMARK    5  A    between atoms: C_9  and  C_10
REMARK    6  A    between atoms: C_13  and  C_14
REMARK    7  A    between atoms: C_14  and  N_15
REMARK    8  A    between atoms: C_16  and  C_18
REMARK    9  A    between atoms: C_25  and  O_26
REMARK                            x       y       z     vdW  Elec       q    Type
REMARK                         _______ _______ _______ _____ _____    ______ ____
ROOT
ATOM      1  C   UNL     1      46.965   2.278   6.315  0.00  0.00    +0.000 A 
ATOM      2  C   UNL     1      46.641   1.282   7.247  0.00  0.00    +0.000 A 
ATOM      3  C   UNL     1      45.953   1.597   8.426  0.00  0.00    +0.000 A 
ATOM      4  C   UNL     1      45.565   2.916   8.695  0.00  0.00    +0.000 A 
ATOM      5  C   UNL     1      45.911   3.915   7.776  0.00  0.00    +0.000 A 
ATOM      6  C   UNL     1      46.597   3.600   6.598  0.00  0.00    +0.000 A 
ENDROOT
BRANCH   1   7
ATOM      7  C   UNL     1      47.690   1.931   5.036  0.00  0.00    +0.000 C 
BRANCH   7   8
ATOM      8  O   UNL     1      47.488   0.547   4.767  0.00  0.00    +0.000 OA
BRANCH   8   9
ATOM      9  C   UNL     1      46.752   0.329   3.561  0.00  0.00    +0.000 C 
BRANCH   9  15
ATOM     10  C   UNL     1      47.036  -4.212   5.328  0.00  0.00    +0.000 C 
ATOM     11  C   UNL     1      46.620  -3.316   4.200  0.00  0.00    +0.000 A 
ATOM     12  C   UNL     1      46.024  -3.840   3.060  0.00  0.00    +0.000 A 
ATOM     13  C   UNL     1      45.662  -2.973   2.035  0.00  0.00    +0.000 A 
ATOM     14  C   UNL     1      45.896  -1.611   2.183  0.00  0.00    +0.000 A 
ATOM     15  C   UNL     1      46.476  -1.146   3.362  0.00  0.00    +0.000 A 
ATOM     16  N   UNL     1      46.854  -1.989   4.359  0.00  0.00    +0.000 NA
ENDBRANCH   9  15
ENDBRANCH   8   9
ENDBRANCH   7   8
ENDBRANCH   1   7
BRANCH   4  17
ATOM     17  C   UNL     1      44.790   3.268   9.943  0.00  0.00    +0.000 C 
BRANCH  17  18
ATOM     18  N   UNL     1      45.259   4.488  10.547  0.00  0.00    +0.000 N 
ATOM     19  C   UNL     1      44.391   5.411  11.070  0.00  0.00    +0.000 C 
ATOM     20  O   UNL     1      43.176   5.229  11.090  0.00  0.00    +0.000 OA
ATOM     21  H   UNL     1      46.200   4.798  10.323  0.00  0.00    +0.000 HD
BRANCH  19  22
ATOM     22  C   UNL     1      45.001   6.602  11.671  0.00  0.00    +0.000 A 
ATOM     23  C   UNL     1      44.539   7.859  11.315  0.00  0.00    +0.000 A 
ATOM     24  S   UNL     1      45.306   9.128  12.154  0.00  0.00    +0.000 S 
ATOM     25  C   UNL     1      46.323   8.041  12.972  0.00  0.00    +0.000 A 
ATOM     26  N   UNL     1      47.248   8.508  13.834  0.00  0.00    +0.000 NA
ATOM     27  C   UNL     1      48.008   7.561  14.409  0.00  0.00    +0.000 A 
ATOM     28  C   UNL     1      47.901   6.204  14.181  0.00  0.00    +0.000 A 
ATOM     29  C   UNL     1      46.926   5.771  13.288  0.00  0.00    +0.000 A 
ATOM     30  C   UNL     1      46.080   6.705  12.640  0.00  0.00    +0.000 A 
BRANCH  29  31
ATOM     31  O   UNL     1      46.798   4.427  13.041  0.00  0.00    +0.000 OA
ATOM     32  H   UNL     1      47.653   4.068  12.747  0.00  0.00    +0.000 HD
ENDBRANCH  29  31
ENDBRANCH  19  22
ENDBRANCH  17  18
ENDBRANCH   4  17
TORSDOF 8
ENDMDL
MODEL 7
REMARK VINA RESULT:    -7.125      2.935      8.921
REMARK INTER + INTRA:         -11.360
REMARK INTER:                  -9.897
REMARK INTRA:                  -1.464
REMARK UNBOUND:                -1.111
REMARK  Name = 
REMARK  9 active torsions:
REMARK  status: ('A' for Active; 'I' for Inactive)
REMARK    1  A    between atoms: C_1  and  C_2
REMARK    2  A    between atoms: C_6  and  C_7
REMARK    3  A    between atoms: C_7  and  O_8
REMARK    4  A    between atoms: O_8  and  C_9
REMARK    5  A    between atoms: C_9  and  C_10
REMARK    6  A    between atoms: C_13  and  C_14
REMARK    7  A    between atoms: C_14  and  N_15
REMARK    8  A    between atoms: C_16  and  C_18
REMARK    9  A    between atoms: C_25  and  O_26
REMARK                            x       y       z     vdW  Elec       q    Type
REMARK                         _______ _______ _______ _____ _____    ______ ____
ROOT
ATOM      1  C   UNL     1      49.850   8.338  15.637  0.00  0.00    +0.000 A 
ATOM      2  C   UNL     1      50.465   7.855  14.473  0.00  0.00    +0.000 A 
ATOM      3  C   UNL     1      49.747   7.738  13.276  0.00  0.00    +0.000 A 
ATOM      4  C   UNL     1      48.399   8.112  13.214  0.00  0.00    +0.000 A 
ATOM      5  C   UNL     1      47.778   8.572  14.383  0.00  0.00    +0.000 A 
ATOM      6  C   UNL     1      48.496   8.689  15.578  0.00  0.00    +0.000 A 
ENDROOT
BRANCH   1   7
ATOM      7  C   UNL     1      50.634   8.481  16.921  0.00  0.00    +0.000 C 
BRANCH   7   8
ATOM      8  O   UNL     1      50.176   7.494  17.840  0.00  0.00    +0.000 OA
BRANCH   8   9
ATOM      9  C   UNL     1      50.669   6.190  17.527  0.00  0.00    +0.000 C 
BRANCH   9  15
ATOM     10  C   UNL     1      46.979   4.317  14.938  0.00  0.00    +0.000 C 
ATOM     11  C   UNL     1      47.764   4.304  16.216  0.00  0.00    +0.000 A 
ATOM     12  C   UNL     1      47.440   3.423  17.239  0.00  0.00    +0.000 A 
ATOM     13  C   UNL     1      48.190   3.451  18.410  0.00  0.00    +0.000 A 
ATOM     14  C   UNL     1      49.244   4.350  18.520  0.00  0.00    +0.000 A 
ATOM     15  C   UNL     1      49.532   5.192  17.447  0.00  0.00    +0.000 A 
ATOM     16  N   UNL     1      48.790   5.187  16.308  0.00  0.00    +0.000 NA
ENDBRANCH   9  15
ENDBRANCH   8   9
ENDBRANCH   7   8
ENDBRANCH   1   7
BRANCH   4  17
ATOM     17  C   UNL     1      47.618   8.029  11.924  0.00  0.00    +0.000 C 
BRANCH  17  18
ATOM     18  N   UNL     1      46.908   6.784  11.797  0.00  0.00    +0.000 N 
ATOM     19  C   UNL     1      45.539   6.738  11.749  0.00  0.00    +0.000 C 
ATOM     20  O   UNL     1      44.850   7.756  11.767  0.00  0.00    +0.000 OA
ATOM     21  H   UNL     1      47.400   5.929  12.041  0.00  0.00    +0.000 HD
BRANCH  19  22
ATOM     22  C   UNL     1      44.942   5.406  11.603  0.00  0.00    +0.000 A 
ATOM     23  C   UNL     1      44.272   4.837  12.674  0.00  0.00    +0.000 A 
ATOM     24  S   UNL     1      43.580   3.322  12.316  0.00  0.00    +0.000 S 
ATOM     25  C   UNL     1      44.209   3.351  10.738  0.00  0.00    +0.000 A 
ATOM     26  N   UNL     1      43.992   2.309   9.911  0.00  0.00    +0.000 NA
ATOM     27  C   UNL     1      44.550   2.431   8.695  0.00  0.00    +0.000 A 
ATOM     28  C   UNL     1      45.295   3.510   8.264  0.00  0.00    +0.000 A 
ATOM     29  C   UNL     1      45.486   4.564   9.153  0.00  0.00    +0.000 A 
ATOM     30  C   UNL     1      44.928   4.516  10.454  0.00  0.00    +0.000 A 
BRANCH  29  31
ATOM     31  O   UNL     1      46.225   5.649   8.751  0.00  0.00    +0.000 OA
ATOM     32  H   UNL     1      45.810   6.464   9.082  0.00  0.00    +0.000 HD
ENDBRANCH  29  31
ENDBRANCH  19  22
ENDBRANCH  17  18
ENDBRANCH   4  17
TORSDOF 8
ENDMDL
MODEL 8
REMARK VINA RESULT:    -6.951      3.432      5.207
REMARK INTER + INTRA:         -11.109
REMARK INTER:                  -9.880
REMARK INTRA:                  -1.228
REMARK UNBOUND:                -1.111
REMARK  Name = 
REMARK  9 active torsions:
REMARK  status: ('A' for Active; 'I' for Inactive)
REMARK    1  A    between atoms: C_1  and  C_2
REMARK    2  A    between atoms: C_6  and  C_7
REMARK    3  A    between atoms: C_7  and  O_8
REMARK    4  A    between atoms: O_8  and  C_9
REMARK    5  A    between atoms: C_9  and  C_10
REMARK    6  A    between atoms: C_13  and  C_14
REMARK    7  A    between atoms: C_14  and  N_15
REMARK    8  A    between atoms: C_16  and  C_18
REMARK    9  A    between atoms: C_25  and  O_26
REMARK                            x       y       z     vdW  Elec       q    Type
REMARK                         _______ _______ _______ _____ _____    ______ ____
ROOT
ATOM      1  C   UNL     1      47.421   5.693  13.685  0.00  0.00    +0.000 A 
ATOM      2  C   UNL     1      48.017   6.214  14.842  0.00  0.00    +0.000 A 
ATOM      3  C   UNL     1      48.128   5.442  16.005  0.00  0.00    +0.000 A 
ATOM      4  C   UNL     1      47.652   4.124  16.034  0.00  0.00    +0.000 A 
ATOM      5  C   UNL     1      47.035   3.611  14.886  0.00  0.00    +0.000 A 
ATOM      6  C   UNL     1      46.925   4.383  13.724  0.00  0.00    +0.000 A 
ENDROOT
BRANCH   1   7
ATOM      7  C   UNL     1      47.322   6.523  12.427  0.00  0.00    +0.000 C 
BRANCH   7   8
ATOM      8  O   UNL     1      46.164   7.347  12.522  0.00  0.00    +0.000 OA
BRANCH   8   9
ATOM      9  C   UNL     1      45.243   7.115  11.455  0.00  0.00    +0.000 C 
BRANCH   9  15
ATOM     10  C   UNL     1      44.484   2.637   9.667  0.00  0.00    +0.000 C 
ATOM     11  C   UNL     1      44.200   3.632  10.752  0.00  0.00    +0.000 A 
ATOM     12  C   UNL     1      43.368   3.305  11.815  0.00  0.00    +0.000 A 
ATOM     13  C   UNL     1      43.126   4.261  12.795  0.00  0.00    +0.000 A 
ATOM     14  C   UNL     1      43.728   5.510  12.690  0.00  0.00    +0.000 A 
ATOM     15  C   UNL     1      44.571   5.767  11.611  0.00  0.00    +0.000 A 
ATOM     16  N   UNL     1      44.795   4.846  10.636  0.00  0.00    +0.000 NA
ENDBRANCH   9  15
ENDBRANCH   8   9
ENDBRANCH   7   8
ENDBRANCH   1   7
BRANCH   4  17
ATOM     17  C   UNL     1      47.796   3.263  17.267  0.00  0.00    +0.000 C 
BRANCH  17  18
ATOM     18  N   UNL     1      49.174   3.073  17.639  0.00  0.00    +0.000 N 
ATOM     19  C   UNL     1      49.997   2.227  16.941  0.00  0.00    +0.000 C 
ATOM     20  O   UNL     1      49.617   1.623  15.940  0.00  0.00    +0.000 OA
ATOM     21  H   UNL     1      49.452   3.331  18.581  0.00  0.00    +0.000 HD
BRANCH  19  22
ATOM     22  C   UNL     1      51.382   2.137  17.416  0.00  0.00    +0.000 A 
ATOM     23  C   UNL     1      51.950   0.892  17.633  0.00  0.00    +0.000 A 
ATOM     24  S   UNL     1      53.582   0.964  18.115  0.00  0.00    +0.000 S 
ATOM     25  C   UNL     1      53.561   2.662  18.109  0.00  0.00    +0.000 A 
ATOM     26  N   UNL     1      54.668   3.347  18.464  0.00  0.00    +0.000 NA
ATOM     27  C   UNL     1      54.532   4.683  18.440  0.00  0.00    +0.000 A 
ATOM     28  C   UNL     1      53.384   5.363  18.090  0.00  0.00    +0.000 A 
ATOM     29  C   UNL     1      52.271   4.611  17.725  0.00  0.00    +0.000 A 
ATOM     30  C   UNL     1      52.330   3.196  17.720  0.00  0.00    +0.000 A 
BRANCH  29  31
ATOM     31  O   UNL     1      51.114   5.262  17.374  0.00  0.00    +0.000 OA
ATOM     32  H   UNL     1      50.395   4.993  17.972  0.00  0.00    +0.000 HD
ENDBRANCH  29  31
ENDBRANCH  19  22
ENDBRANCH  17  18
ENDBRANCH   4  17
TORSDOF 8
ENDMDL
MODEL 9
REMARK VINA RESULT:    -6.355      3.256     10.370
REMARK INTER + INTRA:         -10.252
REMARK INTER:                  -8.858
REMARK INTRA:                  -1.394
REMARK UNBOUND:                -1.111
REMARK  Name = 
REMARK  9 active torsions:
REMARK  status: ('A' for Active; 'I' for Inactive)
REMARK    1  A    between atoms: C_1  and  C_2
REMARK    2  A    between atoms: C_6  and  C_7
REMARK    3  A    between atoms: C_7  and  O_8
REMARK    4  A    between atoms: O_8  and  C_9
REMARK    5  A    between atoms: C_9  and  C_10
REMARK    6  A    between atoms: C_13  and  C_14
REMARK    7  A    between atoms: C_14  and  N_15
REMARK    8  A    between atoms: C_16  and  C_18
REMARK    9  A    between atoms: C_25  and  O_26
REMARK                            x       y       z     vdW  Elec       q    Type
REMARK                         _______ _______ _______ _____ _____    ______ ____
ROOT
ATOM      1  C   UNL     1      50.627   5.915  19.039  0.00  0.00    +0.000 A 
ATOM      2  C   UNL     1      50.110   6.470  17.860  0.00  0.00    +0.000 A 
ATOM      3  C   UNL     1      49.046   5.860  17.183  0.00  0.00    +0.000 A 
ATOM      4  C   UNL     1      48.468   4.683  17.676  0.00  0.00    +0.000 A 
ATOM      5  C   UNL     1      49.000   4.115  18.842  0.00  0.00    +0.000 A 
ATOM      6  C   UNL     1      50.062   4.725  19.518  0.00  0.00    +0.000 A 
ENDROOT
BRANCH   1   7
ATOM      7  C   UNL     1      51.760   6.587  19.776  0.00  0.00    +0.000 C 
BRANCH   7   8
ATOM      8  O   UNL     1      51.243   7.159  20.973  0.00  0.00    +0.000 OA
BRANCH   8   9
ATOM      9  C   UNL     1      51.048   8.570  20.862  0.00  0.00    +0.000 C 
BRANCH   9  15
ATOM     10  C   UNL     1      47.845  10.854  17.972  0.00  0.00    +0.000 C 
ATOM     11  C   UNL     1      48.072   9.987  19.175  0.00  0.00    +0.000 A 
ATOM     12  C   UNL     1      47.001   9.526  19.929  0.00  0.00    +0.000 A 
ATOM     13  C   UNL     1      47.258   8.731  21.040  0.00  0.00    +0.000 A 
ATOM     14  C   UNL     1      48.573   8.413  21.359  0.00  0.00    +0.000 A 
ATOM     15  C   UNL     1      49.601   8.889  20.548  0.00  0.00    +0.000 A 
ATOM     16  N   UNL     1      49.361   9.686  19.473  0.00  0.00    +0.000 NA
ENDBRANCH   9  15
ENDBRANCH   8   9
ENDBRANCH   7   8
ENDBRANCH   1   7
BRANCH   4  17
ATOM     17  C   UNL     1      47.297   4.031  16.981  0.00  0.00    +0.000 C 
BRANCH  17  18
ATOM     18  N   UNL     1      46.913   4.735  15.786  0.00  0.00    +0.000 N 
ATOM     19  C   UNL     1      47.006   4.154  14.548  0.00  0.00    +0.000 C 
ATOM     20  O   UNL     1      47.378   2.992  14.397  0.00  0.00    +0.000 OA
ATOM     21  H   UNL     1      46.858   5.749  15.828  0.00  0.00    +0.000 HD
BRANCH  19  22
ATOM     22  C   UNL     1      46.568   4.976  13.415  0.00  0.00    +0.000 A 
ATOM     23  C   UNL     1      47.024   6.280  13.300  0.00  0.00    +0.000 A 
ATOM     24  S   UNL     1      46.476   7.070  11.894  0.00  0.00    +0.000 S 
ATOM     25  C   UNL     1      45.563   5.716  11.427  0.00  0.00    +0.000 A 
ATOM     26  N   UNL     1      44.824   5.763  10.300  0.00  0.00    +0.000 NA
ATOM     27  C   UNL     1      44.129   4.644  10.038  0.00  0.00    +0.000 A 
ATOM     28  C   UNL     1      44.129   3.504  10.816  0.00  0.00    +0.000 A 
ATOM     29  C   UNL     1      44.913   3.503  11.966  0.00  0.00    +0.000 A 
ATOM     30  C   UNL     1      45.679   4.642  12.314  0.00  0.00    +0.000 A 
BRANCH  29  31
ATOM     31  O   UNL     1      44.930   2.383  12.760  0.00  0.00    +0.000 OA
ATOM     32  H   UNL     1      44.479   2.574  13.600  0.00  0.00    +0.000 HD
ENDBRANCH  29  31
ENDBRANCH  19  22
ENDBRANCH  17  18
ENDBRANCH   4  17
TORSDOF 8
ENDMDL
