MODEL 1
REMARK VINA RESULT:    -7.475      0.000      0.000
REMARK INTER + INTRA:         -11.774
REMARK INTER:                 -10.535
REMARK INTRA:                  -1.239
REMARK UNBOUND:                -1.239
REMARK  Name = 
REMARK  7 active torsions:
REMARK  status: ('A' for Active; 'I' for Inactive)
REMARK    1  A    between atoms: C_2  and  C_4
REMARK    2  A    between atoms: C_8  and  C_9
REMARK    3  A    between atoms: N_11  and  C_12
REMARK    4  A    between atoms: C_12  and  C_13
REMARK    5  A    between atoms: C_16  and  C_17
REMARK    6  A    between atoms: C_17  and  N_18
REMARK    7  A    between atoms: C_19  and  C_21
REMARK                            x       y       z     vdW  Elec       q    Type
REMARK                         _______ _______ _______ _____ _____    ______ ____
ROOT
ATOM      1  C   UNL     1      46.146   7.562  11.818  0.00  0.00    +0.000 A 
ATOM      2  C   UNL     1      47.351   6.846  11.814  0.00  0.00    +0.000 A 
ATOM      3  C   UNL     1      48.410   7.225  12.647  0.00  0.00    +0.000 A 
ATOM      4  C   UNL     1      48.280   8.317  13.515  0.00  0.00    +0.000 A 
ATOM      5  C   UNL     1      47.089   9.054  13.492  0.00  0.00    +0.000 A 
ATOM      6  C   UNL     1      46.029   8.674  12.662  0.00  0.00    +0.000 A 
ENDROOT
BRANCH   1   7
ATOM      7  C   UNL     1      44.965   7.093  11.000  0.00  0.00    +0.000 C 
BRANCH   7  10
ATOM      8  C   UNL     1      44.356   4.910  10.005  0.00  0.00    +0.000 C 
ATOM      9  O   UNL     1      43.173   4.996  10.315  0.00  0.00    +0.000 OA
ATOM     10  N   UNL     1      45.296   5.872  10.301  0.00  0.00    +0.000 N 
ATOM     11  H   UNL     1      46.280   5.663  10.193  0.00  0.00    +0.000 HD
BRANCH   8  16
ATOM     12  C   UNL     1      46.329   2.672   7.643  0.00  0.00    +0.000 A 
ATOM     13  C   UNL     1      45.866   1.405   8.018  0.00  0.00    +0.000 A 
ATOM     14  C   UNL     1      44.884   1.290   9.006  0.00  0.00    +0.000 A 
ATOM     15  C   UNL     1      44.382   2.434   9.636  0.00  0.00    +0.000 A 
ATOM     16  C   UNL     1      44.870   3.701   9.290  0.00  0.00    +0.000 A 
ATOM     17  C   UNL     1      45.828   3.815   8.276  0.00  0.00    +0.000 A 
BRANCH  12  19
ATOM     18  N   UNL     1      47.076   3.634   5.532  0.00  0.00    +0.000 N 
ATOM     19  C   UNL     1      47.381   2.859   6.614  0.00  0.00    +0.000 C 
ATOM     20  O   UNL     1      48.496   2.366   6.745  0.00  0.00    +0.000 OA
ATOM     21  H   UNL     1      47.839   3.834   4.897  0.00  0.00    +0.000 HD
ATOM     22  H   UNL     1      46.278   4.252   5.511  0.00  0.00    +0.000 HD
ENDBRANCH  12  19
ENDBRANCH   8  16
ENDBRANCH   7  10
ENDBRANCH   1   7
BRANCH   4  23
ATOM     23  C   UNL     1      49.398   8.702  14.449  0.00  0.00    +0.000 C 
BRANCH  23  24
ATOM     24  N   UNL     1      49.446   7.844  15.607  0.00  0.00    +0.000 N 
ATOM     25  C   UNL     1      48.758   8.161  16.751  0.00  0.00    +0.000 C 
ATOM     26  O   UNL     1      48.038   9.153  16.825  0.00  0.00    +0.000 OA
ATOM     27  H   UNL     1      50.199   7.166  15.646  0.00  0.00    +0.000 HD
BRANCH  25  28
ATOM     28  C   UNL     1      48.880   7.221  17.874  0.00  0.00    +0.000 A 
ATOM     29  C   UNL     1      49.226   7.695  19.132  0.00  0.00    +0.000 A 
ATOM     30  S   UNL     1      49.276   6.484  20.332  0.00  0.00    +0.000 S 
ATOM     31  C   UNL     1      48.893   5.272  19.201  0.00  0.00    +0.000 A 
ATOM     32  N   UNL     1      48.805   3.967  19.576  0.00  0.00    +0.000 NA
ATOM     33  C   UNL     1      48.542   3.151  18.611  0.00  0.00    +0.000 A 
ATOM     34  N   UNL     1      48.350   3.522  17.306  0.00  0.00    +0.000 N 
ATOM     35  C   UNL     1      48.394   4.831  16.886  0.00  0.00    +0.000 A 
ATOM     36  O   UNL     1      48.169   5.133  15.719  0.00  0.00    +0.000 OA
ATOM     37  C   UNL     1      48.706   5.788  17.930  0.00  0.00    +0.000 A 
ATOM     38  H   UNL     1      48.134   2.835  16.599  0.00  0.00    +0.000 HD
ENDBRANCH  25  28
ENDBRANCH  23  24
ENDBRANCH   4  23
TORSDOF 7
ENDMDL
MODEL 2
REMARK VINA RESULT:    -7.256      3.548      9.152
REMARK INTER + INTRA:         -11.464
REMARK INTER:                 -10.343
REMARK INTRA:                  -1.121
REMARK UNBOUND:                -1.239
REMARK  Name = 
REMARK  7 active torsions:
REMARK  status: ('A' for Active; 'I' for Inactive)
REMARK    1  A    between atoms: C_2  and  C_4
REMARK    2  A    between atoms: C_8  and  C_9
REMARK    3  A    between atoms: N_11  and  C_12
REMARK    4  A    between atoms: C_12  and  C_13
REMARK    5  A    between atoms: C_16  and  C_17
REMARK    6  A    between atoms: C_17  and  N_18
REMARK    7  A    between atoms: C_19  and  C_21
REMARK                            x       y       z     vdW  Elec       q    Type
REMARK                         _______ _______ _______ _____ _____    ______ ____
ROOT
ATOM      1  C   UNL     1      51.061   7.975  14.527  0.00  0.00    +0.000 A 
ATOM      2  C   UNL     1      51.283   8.616  13.300  0.00  0.00    +0.000 A 
ATOM      3  C   UNL     1      50.298   8.614  12.305  0.00  0.00    +0.000 A 
ATOM      4  C   UNL     1      49.064   7.987  12.522  0.00  0.00    +0.000 A 
ATOM      5  C   UNL     1      48.857   7.316  13.735  0.00  0.00    +0.000 A 
ATOM      6  C   UNL     1      49.839   7.320  14.731  0.00  0.00    +0.000 A 
ENDROOT
BRANCH   1   7
ATOM      7  C   UNL     1      52.077   8.066  15.642  0.00  0.00    +0.000 C 
BRANCH   7  10
ATOM      8  C   UNL     1      52.210   6.384  17.453  0.00  0.00    +0.000 C 
ATOM      9  O   UNL     1      51.779   7.144  18.313  0.00  0.00    +0.000 OA
ATOM     10  N   UNL     1      52.394   6.746  16.137  0.00  0.00    +0.000 N 
ATOM     11  H   UNL     1      52.927   6.146  15.520  0.00  0.00    +0.000 HD
BRANCH   8  16
ATOM     12  C   UNL     1      52.166   2.594  17.790  0.00  0.00    +0.000 A 
ATOM     13  C   UNL     1      53.404   2.361  18.401  0.00  0.00    +0.000 A 
ATOM     14  C   UNL     1      54.225   3.440  18.737  0.00  0.00    +0.000 A 
ATOM     15  C   UNL     1      53.824   4.749  18.445  0.00  0.00    +0.000 A 
ATOM     16  C   UNL     1      52.603   4.984  17.800  0.00  0.00    +0.000 A 
ATOM     17  C   UNL     1      51.768   3.903  17.495  0.00  0.00    +0.000 A 
BRANCH  12  19
ATOM     18  N   UNL     1      51.374   0.305  18.060  0.00  0.00    +0.000 N 
ATOM     19  C   UNL     1      51.257   1.490  17.393  0.00  0.00    +0.000 C 
ATOM     20  O   UNL     1      50.408   1.646  16.523  0.00  0.00    +0.000 OA
ATOM     21  H   UNL     1      50.676  -0.398  17.847  0.00  0.00    +0.000 HD
ATOM     22  H   UNL     1      51.872   0.218  18.935  0.00  0.00    +0.000 HD
ENDBRANCH  12  19
ENDBRANCH   8  16
ENDBRANCH   7  10
ENDBRANCH   1   7
BRANCH   4  23
ATOM     23  C   UNL     1      47.981   8.022  11.474  0.00  0.00    +0.000 C 
BRANCH  23  24
ATOM     24  N   UNL     1      47.192   6.815  11.482  0.00  0.00    +0.000 N 
ATOM     25  C   UNL     1      45.828   6.863  11.625  0.00  0.00    +0.000 C 
ATOM     26  O   UNL     1      45.218   7.926  11.703  0.00  0.00    +0.000 OA
ATOM     27  H   UNL     1      47.684   5.945  11.651  0.00  0.00    +0.000 HD
BRANCH  25  28
ATOM     28  C   UNL     1      45.121   5.575  11.625  0.00  0.00    +0.000 A 
ATOM     29  C   UNL     1      44.459   5.155  12.771  0.00  0.00    +0.000 A 
ATOM     30  S   UNL     1      43.650   3.665  12.588  0.00  0.00    +0.000 S 
ATOM     31  C   UNL     1      44.201   3.500  10.987  0.00  0.00    +0.000 A 
ATOM     32  N   UNL     1      43.884   2.403  10.249  0.00  0.00    +0.000 NA
ATOM     33  C   UNL     1      44.398   2.391   9.064  0.00  0.00    +0.000 A 
ATOM     34  N   UNL     1      45.192   3.382   8.548  0.00  0.00    +0.000 N 
ATOM     35  C   UNL     1      45.510   4.524   9.245  0.00  0.00    +0.000 A 
ATOM     36  O   UNL     1      46.183   5.414   8.735  0.00  0.00    +0.000 OA
ATOM     37  C   UNL     1      44.973   4.578  10.590  0.00  0.00    +0.000 A 
ATOM     38  H   UNL     1      45.553   3.319   7.608  0.00  0.00    +0.000 HD
ENDBRANCH  25  28
ENDBRANCH  23  24
ENDBRANCH   4  23
TORSDOF 7
ENDMDL
MODEL 3
REMARK VINA RESULT:    -7.243      1.630      2.275
REMARK INTER + INTRA:         -11.446
REMARK INTER:                 -10.401
REMARK INTRA:                  -1.045
REMARK UNBOUND:                -1.239
REMARK  Name = 
REMARK  7 active torsions:
REMARK  status: ('A' for Active; 'I' for Inactive)
REMARK    1  A    between atoms: C_2  and  C_4
REMARK    2  A    between atoms: C_8  and  C_9
REMARK    3  A    between atoms: N_11  and  C_12
REMARK    4  A    between atoms: C_12  and  C_13
REMARK    5  A    between atoms: C_16  and  C_17
REMARK    6  A    between atoms: C_17  and  N_18
REMARK    7  A    between atoms: C_19  and  C_21
REMARK                            x       y       z     vdW  Elec       q    Type
REMARK                         _______ _______ _______ _____ _____    ______ ____
ROOT
ATOM      1  C   UNL     1      44.701   6.366  11.531  0.00  0.00    +0.000 A 
ATOM      2  C   UNL     1      44.576   7.759  11.622  0.00  0.00    +0.000 A 
ATOM      3  C   UNL     1      45.468   8.507  12.400  0.00  0.00    +0.000 A 
ATOM      4  C   UNL     1      46.515   7.880  13.088  0.00  0.00    +0.000 A 
ATOM      5  C   UNL     1      46.617   6.485  13.026  0.00  0.00    +0.000 A 
ATOM      6  C   UNL     1      45.728   5.737  12.247  0.00  0.00    +0.000 A 
ENDROOT
BRANCH   1   7
ATOM      7  C   UNL     1      43.809   5.568  10.609  0.00  0.00    +0.000 C 
BRANCH   7  10
ATOM      8  C   UNL     1      44.786   3.570   9.524  0.00  0.00    +0.000 C 
ATOM      9  O   UNL     1      44.320   2.786  10.342  0.00  0.00    +0.000 OA
ATOM     10  N   UNL     1      44.597   4.933   9.578  0.00  0.00    +0.000 N 
ATOM     11  H   UNL     1      45.157   5.541   8.995  0.00  0.00    +0.000 HD
BRANCH   8  16
ATOM     12  C   UNL     1      46.675   1.266   7.155  0.00  0.00    +0.000 A 
ATOM     13  C   UNL     1      47.189   2.187   6.235  0.00  0.00    +0.000 A 
ATOM     14  C   UNL     1      46.956   3.553   6.414  0.00  0.00    +0.000 A 
ATOM     15  C   UNL     1      46.189   4.000   7.496  0.00  0.00    +0.000 A 
ATOM     16  C   UNL     1      45.641   3.079   8.399  0.00  0.00    +0.000 A 
ATOM     17  C   UNL     1      45.906   1.715   8.235  0.00  0.00    +0.000 A 
BRANCH  12  19
ATOM     18  N   UNL     1      46.972  -0.699   5.745  0.00  0.00    +0.000 N 
ATOM     19  C   UNL     1      46.874  -0.197   7.010  0.00  0.00    +0.000 C 
ATOM     20  O   UNL     1      46.983  -0.925   7.990  0.00  0.00    +0.000 OA
ATOM     21  H   UNL     1      47.213  -1.680   5.671  0.00  0.00    +0.000 HD
ATOM     22  H   UNL     1      47.141  -0.115   4.938  0.00  0.00    +0.000 HD
ENDBRANCH  12  19
ENDBRANCH   8  16
ENDBRANCH   7  10
ENDBRANCH   1   7
BRANCH   4  23
ATOM     23  C   UNL     1      47.508   8.684  13.889  0.00  0.00    +0.000 C 
BRANCH  23  24
ATOM     24  N   UNL     1      47.851   8.029  15.126  0.00  0.00    +0.000 N 
ATOM     25  C   UNL     1      49.121   7.559  15.349  0.00  0.00    +0.000 C 
ATOM     26  O   UNL     1      50.026   7.715  14.534  0.00  0.00    +0.000 OA
ATOM     27  H   UNL     1      47.083   7.691  15.696  0.00  0.00    +0.000 HD
BRANCH  25  28
ATOM     28  C   UNL     1      49.362   6.902  16.642  0.00  0.00    +0.000 A 
ATOM     29  C   UNL     1      50.134   7.542  17.603  0.00  0.00    +0.000 A 
ATOM     30  S   UNL     1      50.275   6.668  19.061  0.00  0.00    +0.000 S 
ATOM     31  C   UNL     1      49.355   5.378  18.441  0.00  0.00    +0.000 A 
ATOM     32  N   UNL     1      49.117   4.267  19.187  0.00  0.00    +0.000 NA
ATOM     33  C   UNL     1      48.436   3.353  18.581  0.00  0.00    +0.000 A 
ATOM     34  N   UNL     1      47.964   3.453  17.298  0.00  0.00    +0.000 N 
ATOM     35  C   UNL     1      48.151   4.571  16.518  0.00  0.00    +0.000 A 
ATOM     36  O   UNL     1      47.673   4.647  15.391  0.00  0.00    +0.000 OA
ATOM     37  C   UNL     1      48.927   5.622  17.147  0.00  0.00    +0.000 A 
ATOM     38  H   UNL     1      47.426   2.706  16.884  0.00  0.00    +0.000 HD
ENDBRANCH  25  28
ENDBRANCH  23  24
ENDBRANCH   4  23
TORSDOF 7
ENDMDL
MODEL 4
REMARK VINA RESULT:    -6.927      2.842      3.737
REMARK INTER + INTRA:         -11.000
REMARK INTER:                  -9.930
REMARK INTRA:                  -1.070
REMARK UNBOUND:                -1.239
REMARK  Name = 
REMARK  7 active torsions:
REMARK  status: ('A' for Active; 'I' for Inactive)
REMARK    1  A    between atoms: C_2  and  C_4
REMARK    2  A    between atoms: C_8  and  C_9
REMARK    3  A    between atoms: N_11  and  C_12
REMARK    4  A    between atoms: C_12  and  C_13
REMARK    5  A    between atoms: C_16  and  C_17
REMARK    6  A    between atoms: C_17  and  N_18
REMARK    7  A    between atoms: C_19  and  C_21
REMARK                            x       y       z     vdW  Elec       q    Type
REMARK                         _______ _______ _______ _____ _____    ______ ____
ROOT
ATOM      1  C   UNL     1      48.476   7.915  13.492  0.00  0.00    +0.000 A 
ATOM      2  C   UNL     1      49.105   9.077  13.960  0.00  0.00    +0.000 A 
ATOM      3  C   UNL     1      49.637   9.129  15.254  0.00  0.00    +0.000 A 
ATOM      4  C   UNL     1      49.567   8.015  16.101  0.00  0.00    +0.000 A 
ATOM      5  C   UNL     1      48.906   6.867  15.645  0.00  0.00    +0.000 A 
ATOM      6  C   UNL     1      48.377   6.813  14.352  0.00  0.00    +0.000 A 
ENDROOT
BRANCH   1   7
ATOM      7  C   UNL     1      47.996   7.817  12.063  0.00  0.00    +0.000 C 
BRANCH   7  10
ATOM      8  C   UNL     1      45.757   6.784  11.846  0.00  0.00    +0.000 C 
ATOM      9  O   UNL     1      45.157   7.849  11.935  0.00  0.00    +0.000 OA
ATOM     10  N   UNL     1      47.128   6.672  11.905  0.00  0.00    +0.000 N 
ATOM     11  H   UNL     1      47.554   5.761  12.019  0.00  0.00    +0.000 HD
BRANCH   8  16
ATOM     12  C   UNL     1      44.387   3.547  10.389  0.00  0.00    +0.000 A 
ATOM     13  C   UNL     1      43.650   3.052  11.471  0.00  0.00    +0.000 A 
ATOM     14  C   UNL     1      43.568   3.794  12.652  0.00  0.00    +0.000 A 
ATOM     15  C   UNL     1      44.239   5.017  12.763  0.00  0.00    +0.000 A 
ATOM     16  C   UNL     1      45.009   5.498  11.695  0.00  0.00    +0.000 A 
ATOM     17  C   UNL     1      45.060   4.768  10.502  0.00  0.00    +0.000 A 
BRANCH  12  19
ATOM     18  N   UNL     1      44.309   3.483   7.953  0.00  0.00    +0.000 N 
ATOM     19  C   UNL     1      44.526   2.799   9.115  0.00  0.00    +0.000 C 
ATOM     20  O   UNL     1      44.858   1.619   9.102  0.00  0.00    +0.000 OA
ATOM     21  H   UNL     1      44.511   2.983   7.096  0.00  0.00    +0.000 HD
ATOM     22  H   UNL     1      44.285   4.491   7.910  0.00  0.00    +0.000 HD
ENDBRANCH  12  19
ENDBRANCH   8  16
ENDBRANCH   7  10
ENDBRANCH   1   7
BRANCH   4  23
ATOM     23  C   UNL     1      50.180   8.048  17.478  0.00  0.00    +0.000 C 
BRANCH  23  24
ATOM     24  N   UNL     1      51.052   6.922  17.701  0.00  0.00    +0.000 N 
ATOM     25  C   UNL     1      50.726   5.943  18.606  0.00  0.00    +0.000 C 
ATOM     26  O   UNL     1      49.666   5.956  19.226  0.00  0.00    +0.000 OA
ATOM     27  H   UNL     1      52.011   7.013  17.383  0.00  0.00    +0.000 HD
BRANCH  25  28
ATOM     28  C   UNL     1      51.688   4.843  18.761  0.00  0.00    +0.000 A 
ATOM     29  C   UNL     1      52.850   5.045  19.494  0.00  0.00    +0.000 A 
ATOM     30  S   UNL     1      53.832   3.656  19.617  0.00  0.00    +0.000 S 
ATOM     31  C   UNL     1      52.767   2.750  18.647  0.00  0.00    +0.000 A 
ATOM     32  N   UNL     1      53.039   1.455  18.331  0.00  0.00    +0.000 NA
ATOM     33  C   UNL     1      52.165   0.900  17.561  0.00  0.00    +0.000 A 
ATOM     34  N   UNL     1      51.039   1.519  17.084  0.00  0.00    +0.000 N 
ATOM     35  C   UNL     1      50.705   2.814  17.405  0.00  0.00    +0.000 A 
ATOM     36  O   UNL     1      49.664   3.322  17.001  0.00  0.00    +0.000 OA
ATOM     37  C   UNL     1      51.666   3.491  18.254  0.00  0.00    +0.000 A 
ATOM     38  H   UNL     1      50.386   1.024  16.494  0.00  0.00    +0.000 HD
ENDBRANCH  25  28
ENDBRANCH  23  24
ENDBRANCH   4  23
TORSDOF 7
ENDMDL
MODEL 5
REMARK VINA RESULT:    -6.873      5.601      7.943
REMARK INTER + INTRA:         -10.925
REMARK INTER:                  -9.867
REMARK INTRA:                  -1.058
REMARK UNBOUND:                -1.239
REMARK  Name = 
REMARK  7 active torsions:
REMARK  status: ('A' for Active; 'I' for Inactive)
REMARK    1  A    between atoms: C_2  and  C_4
REMARK    2  A    between atoms: C_8  and  C_9
REMARK    3  A    between atoms: N_11  and  C_12
REMARK    4  A    between atoms: C_12  and  C_13
REMARK    5  A    between atoms: C_16  and  C_17
REMARK    6  A    between atoms: C_17  and  N_18
REMARK    7  A    between atoms: C_19  and  C_21
REMARK                            x       y       z     vdW  Elec       q    Type
REMARK                         _______ _______ _______ _____ _____    ______ ____
ROOT
ATOM      1  C   UNL     1      48.089   8.817  12.167  0.00  0.00    +0.000 A 
ATOM      2  C   UNL     1      48.769   7.639  11.827  0.00  0.00    +0.000 A 
ATOM      3  C   UNL     1      50.115   7.676  11.446  0.00  0.00    +0.000 A 
ATOM      4  C   UNL     1      50.816   8.889  11.413  0.00  0.00    +0.000 A 
ATOM      5  C   UNL     1      50.126  10.070  11.718  0.00  0.00    +0.000 A 
ATOM      6  C   UNL     1      48.782  10.034  12.101  0.00  0.00    +0.000 A 
ENDROOT
BRANCH   1   7
ATOM      7  C   UNL     1      46.669   8.770  12.682  0.00  0.00    +0.000 C 
BRANCH   7  10
ATOM      8  C   UNL     1      44.957   7.246  11.747  0.00  0.00    +0.000 C 
ATOM      9  O   UNL     1      44.309   8.146  11.227  0.00  0.00    +0.000 OA
ATOM     10  N   UNL     1      46.108   7.454  12.475  0.00  0.00    +0.000 N 
ATOM     11  H   UNL     1      46.490   6.704  13.036  0.00  0.00    +0.000 HD
BRANCH   8  16
ATOM     12  C   UNL     1      44.306   3.747  10.399  0.00  0.00    +0.000 A 
ATOM     13  C   UNL     1      43.711   3.135  11.508  0.00  0.00    +0.000 A 
ATOM     14  C   UNL     1      43.487   3.875  12.672  0.00  0.00    +0.000 A 
ATOM     15  C   UNL     1      43.876   5.218  12.739  0.00  0.00    +0.000 A 
ATOM     16  C   UNL     1      44.506   5.824  11.643  0.00  0.00    +0.000 A 
ATOM     17  C   UNL     1      44.698   5.089  10.468  0.00  0.00    +0.000 A 
BRANCH  12  19
ATOM     18  N   UNL     1      44.724   1.655   9.221  0.00  0.00    +0.000 N 
ATOM     19  C   UNL     1      44.586   3.011   9.142  0.00  0.00    +0.000 C 
ATOM     20  O   UNL     1      44.655   3.592   8.065  0.00  0.00    +0.000 OA
ATOM     21  H   UNL     1      44.809   1.162   8.340  0.00  0.00    +0.000 HD
ATOM     22  H   UNL     1      44.428   1.122  10.026  0.00  0.00    +0.000 HD
ENDBRANCH  12  19
ENDBRANCH   8  16
ENDBRANCH   7  10
ENDBRANCH   1   7
BRANCH   4  23
ATOM     23  C   UNL     1      52.278   8.930  11.050  0.00  0.00    +0.000 C 
BRANCH  23  24
ATOM     24  N   UNL     1      52.529   8.312   9.771  0.00  0.00    +0.000 N 
ATOM     25  C   UNL     1      53.634   8.645   9.030  0.00  0.00    +0.000 C 
ATOM     26  O   UNL     1      54.478   9.438   9.437  0.00  0.00    +0.000 OA
ATOM     27  H   UNL     1      51.747   7.845   9.325  0.00  0.00    +0.000 HD
BRANCH  25  28
ATOM     28  C   UNL     1      53.791   7.960   7.739  0.00  0.00    +0.000 A 
ATOM     29  C   UNL     1      53.910   8.707   6.574  0.00  0.00    +0.000 A 
ATOM     30  S   UNL     1      54.133   7.762   5.173  0.00  0.00    +0.000 S 
ATOM     31  C   UNL     1      54.023   6.317   6.064  0.00  0.00    +0.000 A 
ATOM     32  N   UNL     1      54.105   5.107   5.447  0.00  0.00    +0.000 NA
ATOM     33  C   UNL     1      53.970   4.095   6.237  0.00  0.00    +0.000 A 
ATOM     34  N   UNL     1      53.768   4.184   7.590  0.00  0.00    +0.000 N 
ATOM     35  C   UNL     1      53.713   5.383   8.262  0.00  0.00    +0.000 A 
ATOM     36  O   UNL     1      53.581   5.424   9.480  0.00  0.00    +0.000 OA
ATOM     37  C   UNL     1      53.841   6.553   7.415  0.00  0.00    +0.000 A 
ATOM     38  H   UNL     1      53.683   3.352   8.156  0.00  0.00    +0.000 HD
ENDBRANCH  25  28
ENDBRANCH  23  24
ENDBRANCH   4  23
TORSDOF 7
ENDMDL
MODEL 6
REMARK VINA RESULT:    -6.750      2.415      3.421
REMARK INTER + INTRA:         -10.751
REMARK INTER:                  -9.827
REMARK INTRA:                  -0.924
REMARK UNBOUND:                -1.239
REMARK  Name = 
REMARK  7 active torsions:
REMARK  status: ('A' for Active; 'I' for Inactive)
REMARK    1  A    between atoms: C_2  and  C_4
REMARK    2  A    between atoms: C_8  and  C_9
REMARK    3  A    between atoms: N_11  and  C_12
REMARK    4  A    between atoms: C_12  and  C_13
REMARK    5  A    between atoms: C_16  and  C_17
REMARK    6  A    between atoms: C_17  and  N_18
REMARK    7  A    between atoms: C_19  and  C_21
REMARK                            x       y       z     vdW  Elec       q    Type
REMARK                         _______ _______ _______ _____ _____    ______ ____
ROOT
ATOM      1  C   UNL     1      45.533   5.589  12.676  0.00  0.00    +0.000 A 
ATOM      2  C   UNL     1      46.074   6.879  12.761  0.00  0.00    +0.000 A 
ATOM      3  C   UNL     1      47.112   7.161  13.657  0.00  0.00    +0.000 A 
ATOM      4  C   UNL     1      47.642   6.154  14.475  0.00  0.00    +0.000 A 
ATOM      5  C   UNL     1      47.076   4.874  14.415  0.00  0.00    +0.000 A 
ATOM      6  C   UNL     1      46.041   4.591  13.519  0.00  0.00    +0.000 A 
ENDROOT
BRANCH   1   7
ATOM      7  C   UNL     1      44.488   5.255  11.637  0.00  0.00    +0.000 C 
BRANCH   7  10
ATOM      8  C   UNL     1      44.869   3.498   9.936  0.00  0.00    +0.000 C 
ATOM      9  O   UNL     1      44.108   2.695  10.464  0.00  0.00    +0.000 OA
ATOM     10  N   UNL     1      45.120   4.756  10.436  0.00  0.00    +0.000 N 
ATOM     11  H   UNL     1      45.893   5.297  10.072  0.00  0.00    +0.000 HD
BRANCH   8  16
ATOM     12  C   UNL     1      46.593   1.473   7.214  0.00  0.00    +0.000 A 
ATOM     13  C   UNL     1      46.961   2.483   6.316  0.00  0.00    +0.000 A 
ATOM     14  C   UNL     1      46.684   3.818   6.622  0.00  0.00    +0.000 A 
ATOM     15  C   UNL     1      46.021   4.145   7.810  0.00  0.00    +0.000 A 
ATOM     16  C   UNL     1      45.618   3.135   8.694  0.00  0.00    +0.000 A 
ATOM     17  C   UNL     1      45.927   1.802   8.400  0.00  0.00    +0.000 A 
BRANCH  12  19
ATOM     18  N   UNL     1      47.091  -0.325   5.645  0.00  0.00    +0.000 N 
ATOM     19  C   UNL     1      46.843   0.037   6.938  0.00  0.00    +0.000 C 
ATOM     20  O   UNL     1      46.863  -0.791   7.841  0.00  0.00    +0.000 OA
ATOM     21  H   UNL     1      47.362  -1.289   5.495  0.00  0.00    +0.000 HD
ATOM     22  H   UNL     1      47.331   0.345   4.928  0.00  0.00    +0.000 HD
ENDBRANCH  12  19
ENDBRANCH   8  16
ENDBRANCH   7  10
ENDBRANCH   1   7
BRANCH   4  23
ATOM     23  C   UNL     1      48.792   6.439  15.408  0.00  0.00    +0.000 C 
BRANCH  23  24
ATOM     24  N   UNL     1      48.335   6.750  16.739  0.00  0.00    +0.000 N 
ATOM     25  C   UNL     1      49.000   6.279  17.843  0.00  0.00    +0.000 C 
ATOM     26  O   UNL     1      50.031   5.619  17.751  0.00  0.00    +0.000 OA
ATOM     27  H   UNL     1      47.382   7.085  16.832  0.00  0.00    +0.000 HD
BRANCH  25  28
ATOM     28  C   UNL     1      48.446   6.651  19.153  0.00  0.00    +0.000 A 
ATOM     29  C   UNL     1      48.434   5.720  20.183  0.00  0.00    +0.000 A 
ATOM     30  S   UNL     1      47.804   6.326  21.647  0.00  0.00    +0.000 S 
ATOM     31  C   UNL     1      47.473   7.839  20.942  0.00  0.00    +0.000 A 
ATOM     32  N   UNL     1      46.887   8.832  21.663  0.00  0.00    +0.000 NA
ATOM     33  C   UNL     1      46.662   9.914  20.994  0.00  0.00    +0.000 A 
ATOM     34  N   UNL     1      46.976  10.094  19.673  0.00  0.00    +0.000 N 
ATOM     35  C   UNL     1      47.600   9.131  18.914  0.00  0.00    +0.000 A 
ATOM     36  O   UNL     1      47.912   9.343  17.747  0.00  0.00    +0.000 OA
ATOM     37  C   UNL     1      47.859   7.887  19.614  0.00  0.00    +0.000 A 
ATOM     38  H   UNL     1      46.785  10.970  19.210  0.00  0.00    +0.000 HD
ENDBRANCH  25  28
ENDBRANCH  23  24
ENDBRANCH   4  23
TORSDOF 7
ENDMDL
MODEL 7
REMARK VINA RESULT:    -6.725      2.509      4.028
REMARK INTER + INTRA:         -10.716
REMARK INTER:                  -9.573
REMARK INTRA:                  -1.144
REMARK UNBOUND:                -1.239
REMARK  Name = 
REMARK  7 active torsions:
REMARK  status: ('A' for Active; 'I' for Inactive)
REMARK    1  A    between atoms: C_2  and  C_4
REMARK    2  A    between atoms: C_8  and  C_9
REMARK    3  A    between atoms: N_11  and  C_12
REMARK    4  A    between atoms: C_12  and  C_13
REMARK    5  A    between atoms: C_16  and  C_17
REMARK    6  A    between atoms: C_17  and  N_18
REMARK    7  A    between atoms: C_19  and  C_21
REMARK                            x       y       z     vdW  Elec       q    Type
REMARK                         _______ _______ _______ _____ _____    ______ ____
ROOT
ATOM      1  C   UNL     1      45.258   5.230  11.891  0.00  0.00    +0.000 A 
ATOM      2  C   UNL     1      45.735   6.540  12.036  0.00  0.00    +0.000 A 
ATOM      3  C   UNL     1      46.726   6.838  12.978  0.00  0.00    +0.000 A 
ATOM      4  C   UNL     1      47.274   5.830  13.783  0.00  0.00    +0.000 A 
ATOM      5  C   UNL     1      46.771   4.528  13.662  0.00  0.00    +0.000 A 
ATOM      6  C   UNL     1      45.782   4.229  12.719  0.00  0.00    +0.000 A 
ENDROOT
BRANCH   1   7
ATOM      7  C   UNL     1      44.267   4.884  10.804  0.00  0.00    +0.000 C 
BRANCH   7  10
ATOM      8  C   UNL     1      45.538   4.023   8.862  0.00  0.00    +0.000 C 
ATOM      9  O   UNL     1      45.836   5.138   8.448  0.00  0.00    +0.000 OA
ATOM     10  N   UNL     1      44.777   3.804   9.989  0.00  0.00    +0.000 N 
ATOM     11  H   UNL     1      44.405   2.882  10.173  0.00  0.00    +0.000 HD
BRANCH   8  16
ATOM     12  C   UNL     1      46.959   1.726   6.181  0.00  0.00    +0.000 A 
ATOM     13  C   UNL     1      46.845   0.478   6.804  0.00  0.00    +0.000 A 
ATOM     14  C   UNL     1      46.269   0.387   8.074  0.00  0.00    +0.000 A 
ATOM     15  C   UNL     1      45.827   1.540   8.732  0.00  0.00    +0.000 A 
ATOM     16  C   UNL     1      45.973   2.796   8.127  0.00  0.00    +0.000 A 
ATOM     17  C   UNL     1      46.519   2.879   6.841  0.00  0.00    +0.000 A 
BRANCH  12  19
ATOM     18  N   UNL     1      48.331   3.008   4.627  0.00  0.00    +0.000 N 
ATOM     19  C   UNL     1      47.576   1.891   4.842  0.00  0.00    +0.000 C 
ATOM     20  O   UNL     1      47.445   1.039   3.971  0.00  0.00    +0.000 OA
ATOM     21  H   UNL     1      48.828   3.049   3.745  0.00  0.00    +0.000 HD
ATOM     22  H   UNL     1      48.667   3.592   5.379  0.00  0.00    +0.000 HD
ENDBRANCH  12  19
ENDBRANCH   8  16
ENDBRANCH   7  10
ENDBRANCH   1   7
BRANCH   4  23
ATOM     23  C   UNL     1      48.375   6.136  14.766  0.00  0.00    +0.000 C 
BRANCH  23  24
ATOM     24  N   UNL     1      48.093   7.323  15.533  0.00  0.00    +0.000 N 
ATOM     25  C   UNL     1      48.732   7.566  16.723  0.00  0.00    +0.000 C 
ATOM     26  O   UNL     1      49.600   6.816  17.161  0.00  0.00    +0.000 OA
ATOM     27  H   UNL     1      47.236   7.819  15.313  0.00  0.00    +0.000 HD
BRANCH  25  28
ATOM     28  C   UNL     1      48.365   8.803  17.426  0.00  0.00    +0.000 A 
ATOM     29  C   UNL     1      47.830   8.732  18.706  0.00  0.00    +0.000 A 
ATOM     30  S   UNL     1      47.506  10.256  19.399  0.00  0.00    +0.000 S 
ATOM     31  C   UNL     1      48.017  11.065  17.992  0.00  0.00    +0.000 A 
ATOM     32  N   UNL     1      47.967  12.421  17.908  0.00  0.00    +0.000 NA
ATOM     33  C   UNL     1      48.352  12.900  16.772  0.00  0.00    +0.000 A 
ATOM     34  N   UNL     1      48.789  12.145  15.715  0.00  0.00    +0.000 N 
ATOM     35  C   UNL     1      48.889  10.774  15.766  0.00  0.00    +0.000 A 
ATOM     36  O   UNL     1      49.331  10.133  14.818  0.00  0.00    +0.000 OA
ATOM     37  C   UNL     1      48.450  10.184  17.016  0.00  0.00    +0.000 A 
ATOM     38  H   UNL     1      49.089  12.582  14.856  0.00  0.00    +0.000 HD
ENDBRANCH  25  28
ENDBRANCH  23  24
ENDBRANCH   4  23
TORSDOF 7
ENDMDL
MODEL 8
REMARK VINA RESULT:    -6.485      2.231      2.783
REMARK INTER + INTRA:         -10.378
REMARK INTER:                  -9.561
REMARK INTRA:                  -0.817
REMARK UNBOUND:                -1.239
REMARK  Name = 
REMARK  7 active torsions:
REMARK  status: ('A' for Active; 'I' for Inactive)
REMARK    1  A    between atoms: C_2  and  C_4
REMARK    2  A    between atoms: C_8  and  C_9
REMARK    3  A    between atoms: N_11  and  C_12
REMARK    4  A    between atoms: C_12  and  C_13
REMARK    5  A    between atoms: C_16  and  C_17
REMARK    6  A    between atoms: C_17  and  N_18
REMARK    7  A    between atoms: C_19  and  C_21
REMARK                            x       y       z     vdW  Elec       q    Type
REMARK                         _______ _______ _______ _____ _____    ______ ____
ROOT
ATOM      1  C   UNL     1      45.807   6.079  12.480  0.00  0.00    +0.000 A 
ATOM      2  C   UNL     1      46.822   5.530  13.276  0.00  0.00    +0.000 A 
ATOM      3  C   UNL     1      47.669   6.356  14.023  0.00  0.00    +0.000 A 
ATOM      4  C   UNL     1      47.508   7.748  14.005  0.00  0.00    +0.000 A 
ATOM      5  C   UNL     1      46.517   8.298  13.182  0.00  0.00    +0.000 A 
ATOM      6  C   UNL     1      45.668   7.473  12.437  0.00  0.00    +0.000 A 
ENDROOT
BRANCH   1   7
ATOM      7  C   UNL     1      44.824   5.188  11.757  0.00  0.00    +0.000 C 
BRANCH   7  10
ATOM      8  C   UNL     1      44.878   3.617   9.845  0.00  0.00    +0.000 C 
ATOM      9  O   UNL     1      43.871   3.012  10.197  0.00  0.00    +0.000 OA
ATOM     10  N   UNL     1      45.415   4.677  10.541  0.00  0.00    +0.000 N 
ATOM     11  H   UNL     1      46.342   5.010  10.313  0.00  0.00    +0.000 HD
BRANCH   8  16
ATOM     12  C   UNL     1      46.591   1.488   7.197  0.00  0.00    +0.000 A 
ATOM     13  C   UNL     1      46.960   2.462   6.262  0.00  0.00    +0.000 A 
ATOM     14  C   UNL     1      46.687   3.808   6.519  0.00  0.00    +0.000 A 
ATOM     15  C   UNL     1      46.027   4.182   7.695  0.00  0.00    +0.000 A 
ATOM     16  C   UNL     1      45.623   3.206   8.616  0.00  0.00    +0.000 A 
ATOM     17  C   UNL     1      45.928   1.862   8.371  0.00  0.00    +0.000 A 
BRANCH  12  19
ATOM     18  N   UNL     1      47.047  -0.373   5.691  0.00  0.00    +0.000 N 
ATOM     19  C   UNL     1      46.836   0.042   6.974  0.00  0.00    +0.000 C 
ATOM     20  O   UNL     1      46.886  -0.747   7.911  0.00  0.00    +0.000 OA
ATOM     21  H   UNL     1      47.316  -1.343   5.573  0.00  0.00    +0.000 HD
ATOM     22  H   UNL     1      47.265   0.265   4.940  0.00  0.00    +0.000 HD
ENDBRANCH  12  19
ENDBRANCH   8  16
ENDBRANCH   7  10
ENDBRANCH   1   7
BRANCH   4  23
ATOM     23  C   UNL     1      48.386   8.641  14.845  0.00  0.00    +0.000 C 
BRANCH  23  24
ATOM     24  N   UNL     1      48.006   8.609  16.236  0.00  0.00    +0.000 N 
ATOM     25  C   UNL     1      48.212   9.693  17.051  0.00  0.00    +0.000 C 
ATOM     26  O   UNL     1      48.680  10.747  16.628  0.00  0.00    +0.000 OA
ATOM     27  H   UNL     1      47.842   7.696  16.646  0.00  0.00    +0.000 HD
BRANCH  25  28
ATOM     28  C   UNL     1      47.794   9.551  18.452  0.00  0.00    +0.000 A 
ATOM     29  C   UNL     1      47.242  10.639  19.117  0.00  0.00    +0.000 A 
ATOM     30  S   UNL     1      46.765  10.294  20.718  0.00  0.00    +0.000 S 
ATOM     31  C   UNL     1      47.330   8.693  20.599  0.00  0.00    +0.000 A 
ATOM     32  N   UNL     1      47.249   7.842  21.657  0.00  0.00    +0.000 NA
ATOM     33  C   UNL     1      47.746   6.671  21.439  0.00  0.00    +0.000 A 
ATOM     34  N   UNL     1      48.310   6.271  20.256  0.00  0.00    +0.000 N 
ATOM     35  C   UNL     1      48.383   7.084  19.149  0.00  0.00    +0.000 A 
ATOM     36  O   UNL     1      48.850   6.678  18.090  0.00  0.00    +0.000 OA
ATOM     37  C   UNL     1      47.854   8.420  19.347  0.00  0.00    +0.000 A 
ATOM     38  H   UNL     1      48.671   5.335  20.144  0.00  0.00    +0.000 HD
ENDBRANCH  25  28
ENDBRANCH  23  24
ENDBRANCH   4  23
TORSDOF 7
ENDMDL
MODEL 9
REMARK VINA RESULT:    -6.205      6.918     12.814
REMARK INTER + INTRA:          -9.984
REMARK INTER:                  -9.076
REMARK INTRA:                  -0.908
REMARK UNBOUND:                -1.239
REMARK  Name = 
REMARK  7 active torsions:
REMARK  status: ('A' for Active; 'I' for Inactive)
REMARK    1  A    between atoms: C_2  and  C_4
REMARK    2  A    between atoms: C_8  and  C_9
REMARK    3  A    between atoms: N_11  and  C_12
REMARK    4  A    between atoms: C_12  and  C_13
REMARK    5  A    between atoms: C_16  and  C_17
REMARK    6  A    between atoms: C_17  and  N_18
REMARK    7  A    between atoms: C_19  and  C_21
REMARK                            x       y       z     vdW  Elec       q    Type
REMARK                         _______ _______ _______ _____ _____    ______ ____
ROOT
ATOM      1  C   UNL     1      46.965   1.462   4.858  0.00  0.00    +0.000 A 
ATOM      2  C   UNL     1      46.544   1.349   3.526  0.00  0.00    +0.000 A 
ATOM      3  C   UNL     1      46.356   0.092   2.940  0.00  0.00    +0.000 A 
ATOM      4  C   UNL     1      46.568  -1.080   3.679  0.00  0.00    +0.000 A 
ATOM      5  C   UNL     1      47.024  -0.966   4.999  0.00  0.00    +0.000 A 
ATOM      6  C   UNL     1      47.209   0.289   5.586  0.00  0.00    +0.000 A 
ENDROOT
BRANCH   1   7
ATOM      7  C   UNL     1      47.065   2.814   5.526  0.00  0.00    +0.000 C 
BRANCH   7  10
ATOM      8  C   UNL     1      46.299   3.887   7.621  0.00  0.00    +0.000 C 
ATOM      9  O   UNL     1      46.999   4.882   7.473  0.00  0.00    +0.000 OA
ATOM     10  N   UNL     1      46.272   2.833   6.734  0.00  0.00    +0.000 N 
ATOM     11  H   UNL     1      45.828   1.964   7.000  0.00  0.00    +0.000 HD
BRANCH   8  16
ATOM     12  C   UNL     1      44.265   4.696  10.734  0.00  0.00    +0.000 A 
ATOM     13  C   UNL     1      43.732   3.439  11.044  0.00  0.00    +0.000 A 
ATOM     14  C   UNL     1      44.071   2.330  10.265  0.00  0.00    +0.000 A 
ATOM     15  C   UNL     1      44.923   2.476   9.164  0.00  0.00    +0.000 A 
ATOM     16  C   UNL     1      45.429   3.739   8.827  0.00  0.00    +0.000 A 
ATOM     17  C   UNL     1      45.114   4.841   9.631  0.00  0.00    +0.000 A 
BRANCH  12  19
ATOM     18  N   UNL     1      42.864   6.658  11.093  0.00  0.00    +0.000 N 
ATOM     19  C   UNL     1      43.930   5.914  11.512  0.00  0.00    +0.000 C 
ATOM     20  O   UNL     1      44.562   6.223  12.515  0.00  0.00    +0.000 OA
ATOM     21  H   UNL     1      42.589   7.423  11.696  0.00  0.00    +0.000 HD
ATOM     22  H   UNL     1      42.177   6.308  10.441  0.00  0.00    +0.000 HD
ENDBRANCH  12  19
ENDBRANCH   8  16
ENDBRANCH   7  10
ENDBRANCH   1   7
BRANCH   4  23
ATOM     23  C   UNL     1      46.322  -2.436   3.070  0.00  0.00    +0.000 C 
BRANCH  23  24
ATOM     24  N   UNL     1      47.444  -3.321   3.265  0.00  0.00    +0.000 N 
ATOM     25  C   UNL     1      47.289  -4.532   3.891  0.00  0.00    +0.000 C 
ATOM     26  O   UNL     1      46.192  -4.936   4.266  0.00  0.00    +0.000 OA
ATOM     27  H   UNL     1      48.369  -2.916   3.176  0.00  0.00    +0.000 HD
BRANCH  25  28
ATOM     28  C   UNL     1      48.498  -5.354   4.043  0.00  0.00    +0.000 A 
ATOM     29  C   UNL     1      49.157  -5.821   2.913  0.00  0.00    +0.000 A 
ATOM     30  S   UNL     1      50.567  -6.715   3.262  0.00  0.00    +0.000 S 
ATOM     31  C   UNL     1      50.317  -6.558   4.938  0.00  0.00    +0.000 A 
ATOM     32  N   UNL     1      51.169  -7.132   5.829  0.00  0.00    +0.000 NA
ATOM     33  C   UNL     1      50.841  -6.963   7.066  0.00  0.00    +0.000 A 
ATOM     34  N   UNL     1      49.741  -6.264   7.493  0.00  0.00    +0.000 N 
ATOM     35  C   UNL     1      48.872  -5.638   6.631  0.00  0.00    +0.000 A 
ATOM     36  O   UNL     1      47.925  -4.979   7.049  0.00  0.00    +0.000 OA
ATOM     37  C   UNL     1      49.186  -5.813   5.226  0.00  0.00    +0.000 A 
ATOM     38  H   UNL     1      49.546  -6.157   8.477  0.00  0.00    +0.000 HD
ENDBRANCH  25  28
ENDBRANCH  23  24
ENDBRANCH   4  23
TORSDOF 7
ENDMDL
