MODEL 1
REMARK VINA RESULT:    -8.072      0.000      0.000
REMARK INTER + INTRA:         -12.391
REMARK INTER:                 -11.375
REMARK INTRA:                  -1.015
REMARK UNBOUND:                -1.015
REMARK  Name = 
REMARK  8 active torsions:
REMARK  status: ('A' for Active; 'I' for Inactive)
REMARK    1  A    between atoms: C_1  and  O_2
REMARK    2  A    between atoms: O_2  and  C_3
REMARK    3  A    between atoms: C_7  and  C_8
REMARK    4  A    between atoms: C_8  and  N_9
REMARK    5  A    between atoms: N_9  and  C_10
REMARK    6  A    between atoms: C_13  and  C_14
REMARK    7  A    between atoms: C_14  and  N_15
REMARK    8  A    between atoms: C_16  and  C_18
REMARK                            x       y       z     vdW  Elec       q    Type
REMARK                         _______ _______ _______ _____ _____    ______ ____
ROOT
ATOM      1  C   UNL     1      46.607   1.841   7.253  0.00  0.00    +0.000 A 
ATOM      2  C   UNL     1      45.879   1.246   8.295  0.00  0.00    +0.000 A 
ATOM      3  C   UNL     1      45.039   2.009   9.125  0.00  0.00    +0.000 A 
ATOM      4  C   UNL     1      44.924   3.391   8.943  0.00  0.00    +0.000 A 
ATOM      5  C   UNL     1      45.713   3.999   7.966  0.00  0.00    +0.000 A 
ATOM      6  C   UNL     1      46.545   3.235   7.143  0.00  0.00    +0.000 A 
ENDROOT
BRANCH   1   7
ATOM      7  N   UNL     1      47.472   1.056   6.467  0.00  0.00    +0.000 N 
ATOM      8  H   UNL     1      47.162   0.085   6.443  0.00  0.00    +0.000 HD
BRANCH   7   9
ATOM      9  C   UNL     1      47.727   1.539   5.105  0.00  0.00    +0.000 C 
BRANCH   9  14
ATOM     10  C   UNL     1      46.467  -1.366   3.235  0.00  0.00    +0.000 A 
ATOM     11  C   UNL     1      45.563  -0.849   2.324  0.00  0.00    +0.000 A 
ATOM     12  C   UNL     1      45.372   0.529   2.299  0.00  0.00    +0.000 A 
ATOM     13  C   UNL     1      46.084   1.334   3.186  0.00  0.00    +0.000 A 
ATOM     14  C   UNL     1      46.976   0.730   4.070  0.00  0.00    +0.000 A 
ATOM     15  N   UNL     1      47.175  -0.607   4.094  0.00  0.00    +0.000 NA
BRANCH  10  17
ATOM     16  C   UNL     1      46.564  -3.245   4.603  0.00  0.00    +0.000 C 
ATOM     17  O   UNL     1      46.623  -2.736   3.271  0.00  0.00    +0.000 OA
ENDBRANCH  10  17
ENDBRANCH   9  14
ENDBRANCH   7   9
ENDBRANCH   1   7
BRANCH   4  18
ATOM     18  C   UNL     1      44.003   4.238   9.780  0.00  0.00    +0.000 C 
BRANCH  18  19
ATOM     19  N   UNL     1      44.690   5.353  10.381  0.00  0.00    +0.000 N 
ATOM     20  C   UNL     1      44.015   6.253  11.169  0.00  0.00    +0.000 C 
ATOM     21  O   UNL     1      42.825   6.126  11.433  0.00  0.00    +0.000 OA
ATOM     22  H   UNL     1      45.584   5.618   9.974  0.00  0.00    +0.000 HD
BRANCH  20  23
ATOM     23  C   UNL     1      44.817   7.347  11.738  0.00  0.00    +0.000 A 
ATOM     24  C   UNL     1      44.543   8.659  11.376  0.00  0.00    +0.000 A 
ATOM     25  S   UNL     1      45.536   9.804  12.158  0.00  0.00    +0.000 S 
ATOM     26  C   UNL     1      46.403   8.583  12.967  0.00  0.00    +0.000 A 
ATOM     27  N   UNL     1      47.438   8.890  13.793  0.00  0.00    +0.000 NA
ATOM     28  C   UNL     1      48.019   7.864  14.322  0.00  0.00    +0.000 A 
ATOM     29  N   UNL     1      47.655   6.562  14.105  0.00  0.00    +0.000 N 
ATOM     30  C   UNL     1      46.599   6.204  13.299  0.00  0.00    +0.000 A 
ATOM     31  O   UNL     1      46.270   5.031  13.160  0.00  0.00    +0.000 OA
ATOM     32  C   UNL     1      45.920   7.320  12.667  0.00  0.00    +0.000 A 
ATOM     33  H   UNL     1      48.142   5.805  14.561  0.00  0.00    +0.000 HD
ENDBRANCH  20  23
ENDBRANCH  18  19
ENDBRANCH   4  18
TORSDOF 7
ENDMDL
MODEL 2
REMARK VINA RESULT:    -7.893      4.077      6.774
REMARK INTER + INTRA:         -12.138
REMARK INTER:                 -11.089
REMARK INTRA:                  -1.049
REMARK UNBOUND:                -1.015
REMARK  Name = 
REMARK  8 active torsions:
REMARK  status: ('A' for Active; 'I' for Inactive)
REMARK    1  A    between atoms: C_1  and  O_2
REMARK    2  A    between atoms: O_2  and  C_3
REMARK    3  A    between atoms: C_7  and  C_8
REMARK    4  A    between atoms: C_8  and  N_9
REMARK    5  A    between atoms: N_9  and  C_10
REMARK    6  A    between atoms: C_13  and  C_14
REMARK    7  A    between atoms: C_14  and  N_15
REMARK    8  A    between atoms: C_16  and  C_18
REMARK                            x       y       z     vdW  Elec       q    Type
REMARK                         _______ _______ _______ _____ _____    ______ ____
ROOT
ATOM      1  C   UNL     1      45.238   3.862  12.734  0.00  0.00    +0.000 A 
ATOM      2  C   UNL     1      44.885   5.219  12.703  0.00  0.00    +0.000 A 
ATOM      3  C   UNL     1      45.775   6.215  13.142  0.00  0.00    +0.000 A 
ATOM      4  C   UNL     1      47.035   5.871  13.643  0.00  0.00    +0.000 A 
ATOM      5  C   UNL     1      47.356   4.518  13.758  0.00  0.00    +0.000 A 
ATOM      6  C   UNL     1      46.467   3.534  13.318  0.00  0.00    +0.000 A 
ENDROOT
BRANCH   1   7
ATOM      7  N   UNL     1      44.308   2.887  12.327  0.00  0.00    +0.000 N 
ATOM      8  H   UNL     1      43.652   2.673  13.078  0.00  0.00    +0.000 HD
BRANCH   7   9
ATOM      9  C   UNL     1      43.579   3.167  11.084  0.00  0.00    +0.000 C 
BRANCH   9  14
ATOM     10  C   UNL     1      45.787   1.847   8.456  0.00  0.00    +0.000 A 
ATOM     11  C   UNL     1      46.051   2.923   7.627  0.00  0.00    +0.000 A 
ATOM     12  C   UNL     1      45.499   4.157   7.958  0.00  0.00    +0.000 A 
ATOM     13  C   UNL     1      44.702   4.266   9.096  0.00  0.00    +0.000 A 
ATOM     14  C   UNL     1      44.489   3.132   9.876  0.00  0.00    +0.000 A 
ATOM     15  N   UNL     1      45.031   1.931   9.568  0.00  0.00    +0.000 NA
BRANCH  10  17
ATOM     16  C   UNL     1      47.358   0.751   7.135  0.00  0.00    +0.000 C 
ATOM     17  O   UNL     1      46.314   0.623   8.100  0.00  0.00    +0.000 OA
ENDBRANCH  10  17
ENDBRANCH   9  14
ENDBRANCH   7   9
ENDBRANCH   1   7
BRANCH   4  18
ATOM     18  C   UNL     1      48.035   6.907  14.083  0.00  0.00    +0.000 C 
BRANCH  18  19
ATOM     19  N   UNL     1      48.051   7.070  15.515  0.00  0.00    +0.000 N 
ATOM     20  C   UNL     1      49.133   6.663  16.256  0.00  0.00    +0.000 C 
ATOM     21  O   UNL     1      50.140   6.194  15.739  0.00  0.00    +0.000 OA
ATOM     22  H   UNL     1      47.154   7.205  15.974  0.00  0.00    +0.000 HD
BRANCH  20  23
ATOM     23  C   UNL     1      49.047   6.885  17.708  0.00  0.00    +0.000 A 
ATOM     24  C   UNL     1      49.154   8.174  18.212  0.00  0.00    +0.000 A 
ATOM     25  S   UNL     1      48.990   8.259  19.908  0.00  0.00    +0.000 S 
ATOM     26  C   UNL     1      48.825   6.569  20.032  0.00  0.00    +0.000 A 
ATOM     27  N   UNL     1      48.679   5.968  21.243  0.00  0.00    +0.000 NA
ATOM     28  C   UNL     1      48.588   4.680  21.190  0.00  0.00    +0.000 A 
ATOM     29  N   UNL     1      48.623   3.941  20.038  0.00  0.00    +0.000 N 
ATOM     30  C   UNL     1      48.743   4.507  18.788  0.00  0.00    +0.000 A 
ATOM     31  O   UNL     1      48.726   3.821  17.773  0.00  0.00    +0.000 OA
ATOM     32  C   UNL     1      48.864   5.953  18.793  0.00  0.00    +0.000 A 
ATOM     33  H   UNL     1      48.532   2.937  20.064  0.00  0.00    +0.000 HD
ENDBRANCH  20  23
ENDBRANCH  18  19
ENDBRANCH   4  18
TORSDOF 7
ENDMDL
MODEL 3
REMARK VINA RESULT:    -7.833      3.225      5.758
REMARK INTER + INTRA:         -12.054
REMARK INTER:                 -10.992
REMARK INTRA:                  -1.061
REMARK UNBOUND:                -1.015
REMARK  Name = 
REMARK  8 active torsions:
REMARK  status: ('A' for Active; 'I' for Inactive)
REMARK    1  A    between atoms: C_1  and  O_2
REMARK    2  A    between atoms: O_2  and  C_3
REMARK    3  A    between atoms: C_7  and  C_8
REMARK    4  A    between atoms: C_8  and  N_9
REMARK    5  A    between atoms: N_9  and  C_10
REMARK    6  A    between atoms: C_13  and  C_14
REMARK    7  A    between atoms: C_14  and  N_15
REMARK    8  A    between atoms: C_16  and  C_18
REMARK                            x       y       z     vdW  Elec       q    Type
REMARK                         _______ _______ _______ _____ _____    ______ ____
ROOT
ATOM      1  C   UNL     1      44.738   5.642  10.639  0.00  0.00    +0.000 A 
ATOM      2  C   UNL     1      44.142   6.205  11.779  0.00  0.00    +0.000 A 
ATOM      3  C   UNL     1      44.885   6.989  12.678  0.00  0.00    +0.000 A 
ATOM      4  C   UNL     1      46.251   7.210  12.468  0.00  0.00    +0.000 A 
ATOM      5  C   UNL     1      46.865   6.580  11.385  0.00  0.00    +0.000 A 
ATOM      6  C   UNL     1      46.120   5.803  10.494  0.00  0.00    +0.000 A 
ENDROOT
BRANCH   1   7
ATOM      7  N   UNL     1      43.975   4.827   9.782  0.00  0.00    +0.000 N 
ATOM      8  H   UNL     1      44.043   5.149   8.817  0.00  0.00    +0.000 HD
BRANCH   7   9
ATOM      9  C   UNL     1      44.240   3.385   9.854  0.00  0.00    +0.000 C 
BRANCH   9  14
ATOM     10  C   UNL     1      46.503   1.219   7.928  0.00  0.00    +0.000 A 
ATOM     11  C   UNL     1      46.886   1.973   6.832  0.00  0.00    +0.000 A 
ATOM     12  C   UNL     1      46.398   3.272   6.729  0.00  0.00    +0.000 A 
ATOM     13  C   UNL     1      45.546   3.764   7.716  0.00  0.00    +0.000 A 
ATOM     14  C   UNL     1      45.214   2.937   8.787  0.00  0.00    +0.000 A 
ATOM     15  N   UNL     1      45.691   1.677   8.901  0.00  0.00    +0.000 NA
BRANCH  10  17
ATOM     16  C   UNL     1      46.603  -0.843   6.854  0.00  0.00    +0.000 C 
ATOM     17  O   UNL     1      46.967  -0.078   8.003  0.00  0.00    +0.000 OA
ENDBRANCH  10  17
ENDBRANCH   9  14
ENDBRANCH   7   9
ENDBRANCH   1   7
BRANCH   4  18
ATOM     18  C   UNL     1      47.075   8.079  13.381  0.00  0.00    +0.000 C 
BRANCH  18  19
ATOM     19  N   UNL     1      47.484   7.377  14.571  0.00  0.00    +0.000 N 
ATOM     20  C   UNL     1      48.753   6.864  14.681  0.00  0.00    +0.000 C 
ATOM     21  O   UNL     1      49.599   7.017  13.808  0.00  0.00    +0.000 OA
ATOM     22  H   UNL     1      46.747   7.019  15.173  0.00  0.00    +0.000 HD
BRANCH  20  23
ATOM     23  C   UNL     1      49.067   6.174  15.942  0.00  0.00    +0.000 A 
ATOM     24  C   UNL     1      50.130   6.614  16.720  0.00  0.00    +0.000 A 
ATOM     25  S   UNL     1      50.329   5.732  18.165  0.00  0.00    +0.000 S 
ATOM     26  C   UNL     1      49.036   4.695  17.777  0.00  0.00    +0.000 A 
ATOM     27  N   UNL     1      48.690   3.671  18.601  0.00  0.00    +0.000 NA
ATOM     28  C   UNL     1      47.706   2.952  18.171  0.00  0.00    +0.000 A 
ATOM     29  N   UNL     1      47.034   3.169  16.997  0.00  0.00    +0.000 N 
ATOM     30  C   UNL     1      47.332   4.208  16.144  0.00  0.00    +0.000 A 
ATOM     31  O   UNL     1      46.683   4.401  15.123  0.00  0.00    +0.000 OA
ATOM     32  C   UNL     1      48.442   5.038  16.575  0.00  0.00    +0.000 A 
ATOM     33  H   UNL     1      46.264   2.578  16.725  0.00  0.00    +0.000 HD
ENDBRANCH  20  23
ENDBRANCH  18  19
ENDBRANCH   4  18
TORSDOF 7
ENDMDL
MODEL 4
REMARK VINA RESULT:    -7.645      4.074      7.069
REMARK INTER + INTRA:         -11.789
REMARK INTER:                 -10.804
REMARK INTRA:                  -0.985
REMARK UNBOUND:                -1.015
REMARK  Name = 
REMARK  8 active torsions:
REMARK  status: ('A' for Active; 'I' for Inactive)
REMARK    1  A    between atoms: C_1  and  O_2
REMARK    2  A    between atoms: O_2  and  C_3
REMARK    3  A    between atoms: C_7  and  C_8
REMARK    4  A    between atoms: C_8  and  N_9
REMARK    5  A    between atoms: N_9  and  C_10
REMARK    6  A    between atoms: C_13  and  C_14
REMARK    7  A    between atoms: C_14  and  N_15
REMARK    8  A    between atoms: C_16  and  C_18
REMARK                            x       y       z     vdW  Elec       q    Type
REMARK                         _______ _______ _______ _____ _____    ______ ____
ROOT
ATOM      1  C   UNL     1      44.972   5.160  12.318  0.00  0.00    +0.000 A 
ATOM      2  C   UNL     1      45.236   6.536  12.231  0.00  0.00    +0.000 A 
ATOM      3  C   UNL     1      46.380   7.098  12.824  0.00  0.00    +0.000 A 
ATOM      4  C   UNL     1      47.277   6.297  13.538  0.00  0.00    +0.000 A 
ATOM      5  C   UNL     1      46.973   4.945  13.702  0.00  0.00    +0.000 A 
ATOM      6  C   UNL     1      45.835   4.392  13.108  0.00  0.00    +0.000 A 
ENDROOT
BRANCH   1   7
ATOM      7  N   UNL     1      43.796   4.636  11.750  0.00  0.00    +0.000 N 
ATOM      8  H   UNL     1      42.973   4.943  12.267  0.00  0.00    +0.000 HD
BRANCH   7   9
ATOM      9  C   UNL     1      43.609   4.875  10.314  0.00  0.00    +0.000 C 
BRANCH   9  14
ATOM     10  C   UNL     1      45.850   3.578   7.702  0.00  0.00    +0.000 A 
ATOM     11  C   UNL     1      45.959   2.222   7.955  0.00  0.00    +0.000 A 
ATOM     12  C   UNL     1      45.239   1.695   9.023  0.00  0.00    +0.000 A 
ATOM     13  C   UNL     1      44.448   2.540   9.798  0.00  0.00    +0.000 A 
ATOM     14  C   UNL     1      44.394   3.893   9.472  0.00  0.00    +0.000 A 
ATOM     15  N   UNL     1      45.081   4.412   8.429  0.00  0.00    +0.000 NA
BRANCH  10  17
ATOM     16  C   UNL     1      46.942   3.092   5.705  0.00  0.00    +0.000 C 
ATOM     17  O   UNL     1      46.594   4.094   6.661  0.00  0.00    +0.000 OA
ENDBRANCH  10  17
ENDBRANCH   9  14
ENDBRANCH   7   9
ENDBRANCH   1   7
BRANCH   4  18
ATOM     18  C   UNL     1      48.537   6.850  14.151  0.00  0.00    +0.000 C 
BRANCH  18  19
ATOM     19  N   UNL     1      48.412   7.026  15.575  0.00  0.00    +0.000 N 
ATOM     20  C   UNL     1      49.416   6.625  16.423  0.00  0.00    +0.000 C 
ATOM     21  O   UNL     1      50.468   6.150  16.012  0.00  0.00    +0.000 OA
ATOM     22  H   UNL     1      47.474   7.166  15.944  0.00  0.00    +0.000 HD
BRANCH  20  23
ATOM     23  C   UNL     1      49.188   6.860  17.857  0.00  0.00    +0.000 A 
ATOM     24  C   UNL     1      49.214   8.157  18.352  0.00  0.00    +0.000 A 
ATOM     25  S   UNL     1      48.890   8.256  20.024  0.00  0.00    +0.000 S 
ATOM     26  C   UNL     1      48.757   6.564  20.155  0.00  0.00    +0.000 A 
ATOM     27  N   UNL     1      48.513   5.973  21.354  0.00  0.00    +0.000 NA
ATOM     28  C   UNL     1      48.460   4.682  21.310  0.00  0.00    +0.000 A 
ATOM     29  N   UNL     1      48.622   3.932  20.176  0.00  0.00    +0.000 N 
ATOM     30  C   UNL     1      48.844   4.487  18.936  0.00  0.00    +0.000 A 
ATOM     31  O   UNL     1      48.941   3.790  17.933  0.00  0.00    +0.000 OA
ATOM     32  C   UNL     1      48.927   5.936  18.933  0.00  0.00    +0.000 A 
ATOM     33  H   UNL     1      48.555   2.926  20.207  0.00  0.00    +0.000 HD
ENDBRANCH  20  23
ENDBRANCH  18  19
ENDBRANCH   4  18
TORSDOF 7
ENDMDL
MODEL 5
REMARK VINA RESULT:    -7.487      2.920      4.184
REMARK INTER + INTRA:         -11.566
REMARK INTER:                 -10.772
REMARK INTRA:                  -0.793
REMARK UNBOUND:                -1.015
REMARK  Name = 
REMARK  8 active torsions:
REMARK  status: ('A' for Active; 'I' for Inactive)
REMARK    1  A    between atoms: C_1  and  O_2
REMARK    2  A    between atoms: O_2  and  C_3
REMARK    3  A    between atoms: C_7  and  C_8
REMARK    4  A    between atoms: C_8  and  N_9
REMARK    5  A    between atoms: N_9  and  C_10
REMARK    6  A    between atoms: C_13  and  C_14
REMARK    7  A    between atoms: C_14  and  N_15
REMARK    8  A    between atoms: C_16  and  C_18
REMARK                            x       y       z     vdW  Elec       q    Type
REMARK                         _______ _______ _______ _____ _____    ______ ____
ROOT
ATOM      1  C   UNL     1      45.328   4.318   8.894  0.00  0.00    +0.000 A 
ATOM      2  C   UNL     1      44.728   3.223   9.534  0.00  0.00    +0.000 A 
ATOM      3  C   UNL     1      44.393   3.270  10.899  0.00  0.00    +0.000 A 
ATOM      4  C   UNL     1      44.673   4.410  11.660  0.00  0.00    +0.000 A 
ATOM      5  C   UNL     1      45.349   5.466  11.049  0.00  0.00    +0.000 A 
ATOM      6  C   UNL     1      45.678   5.413   9.692  0.00  0.00    +0.000 A 
ENDROOT
BRANCH   1   7
ATOM      7  N   UNL     1      45.689   4.223   7.537  0.00  0.00    +0.000 N 
ATOM      8  H   UNL     1      45.548   5.113   7.059  0.00  0.00    +0.000 HD
BRANCH   7   9
ATOM      9  C   UNL     1      47.035   3.708   7.259  0.00  0.00    +0.000 C 
BRANCH   9  14
ATOM     10  C   UNL     1      47.179   0.899   4.889  0.00  0.00    +0.000 A 
ATOM     11  C   UNL     1      47.079  -0.241   5.668  0.00  0.00    +0.000 A 
ATOM     12  C   UNL     1      46.929  -0.084   7.042  0.00  0.00    +0.000 A 
ATOM     13  C   UNL     1      46.893   1.198   7.585  0.00  0.00    +0.000 A 
ATOM     14  C   UNL     1      46.998   2.292   6.728  0.00  0.00    +0.000 A 
ATOM     15  N   UNL     1      47.134   2.149   5.389  0.00  0.00    +0.000 NA
BRANCH  10  17
ATOM     16  C   UNL     1      47.026  -0.591   3.109  0.00  0.00    +0.000 C 
ATOM     17  O   UNL     1      47.360   0.730   3.532  0.00  0.00    +0.000 OA
ENDBRANCH  10  17
ENDBRANCH   9  14
ENDBRANCH   7   9
ENDBRANCH   1   7
BRANCH   4  18
ATOM     18  C   UNL     1      44.292   4.520  13.113  0.00  0.00    +0.000 C 
BRANCH  18  19
ATOM     19  N   UNL     1      45.334   5.127  13.901  0.00  0.00    +0.000 N 
ATOM     20  C   UNL     1      46.460   4.418  14.243  0.00  0.00    +0.000 C 
ATOM     21  O   UNL     1      46.650   3.270  13.861  0.00  0.00    +0.000 OA
ATOM     22  H   UNL     1      45.086   5.958  14.433  0.00  0.00    +0.000 HD
BRANCH  20  23
ATOM     23  C   UNL     1      47.463   5.139  15.042  0.00  0.00    +0.000 A 
ATOM     24  C   UNL     1      48.189   6.172  14.463  0.00  0.00    +0.000 A 
ATOM     25  S   UNL     1      49.278   6.926  15.537  0.00  0.00    +0.000 S 
ATOM     26  C   UNL     1      48.857   5.864  16.798  0.00  0.00    +0.000 A 
ATOM     27  N   UNL     1      49.460   5.949  18.014  0.00  0.00    +0.000 NA
ATOM     28  C   UNL     1      49.060   5.066  18.869  0.00  0.00    +0.000 A 
ATOM     29  N   UNL     1      48.108   4.113  18.620  0.00  0.00    +0.000 N 
ATOM     30  C   UNL     1      47.453   4.005  17.415  0.00  0.00    +0.000 A 
ATOM     31  O   UNL     1      46.574   3.169  17.238  0.00  0.00    +0.000 OA
ATOM     32  C   UNL     1      47.876   4.966  16.413  0.00  0.00    +0.000 A 
ATOM     33  H   UNL     1      47.830   3.460  19.337  0.00  0.00    +0.000 HD
ENDBRANCH  20  23
ENDBRANCH  18  19
ENDBRANCH   4  18
TORSDOF 7
ENDMDL
MODEL 6
REMARK VINA RESULT:    -7.451      4.018      6.843
REMARK INTER + INTRA:         -11.515
REMARK INTER:                 -10.480
REMARK INTRA:                  -1.035
REMARK UNBOUND:                -1.015
REMARK  Name = 
REMARK  8 active torsions:
REMARK  status: ('A' for Active; 'I' for Inactive)
REMARK    1  A    between atoms: C_1  and  O_2
REMARK    2  A    between atoms: O_2  and  C_3
REMARK    3  A    between atoms: C_7  and  C_8
REMARK    4  A    between atoms: C_8  and  N_9
REMARK    5  A    between atoms: N_9  and  C_10
REMARK    6  A    between atoms: C_13  and  C_14
REMARK    7  A    between atoms: C_14  and  N_15
REMARK    8  A    between atoms: C_16  and  C_18
REMARK                            x       y       z     vdW  Elec       q    Type
REMARK                         _______ _______ _______ _____ _____    ______ ____
ROOT
ATOM      1  C   UNL     1      44.944   4.883  12.299  0.00  0.00    +0.000 A 
ATOM      2  C   UNL     1      45.830   4.051  13.000  0.00  0.00    +0.000 A 
ATOM      3  C   UNL     1      46.943   4.578  13.678  0.00  0.00    +0.000 A 
ATOM      4  C   UNL     1      47.207   5.952  13.650  0.00  0.00    +0.000 A 
ATOM      5  C   UNL     1      46.379   6.770  12.882  0.00  0.00    +0.000 A 
ATOM      6  C   UNL     1      45.273   6.240  12.212  0.00  0.00    +0.000 A 
ENDROOT
BRANCH   1   7
ATOM      7  N   UNL     1      43.863   4.318  11.596  0.00  0.00    +0.000 N 
ATOM      8  H   UNL     1      42.981   4.505  12.072  0.00  0.00    +0.000 HD
BRANCH   7   9
ATOM      9  C   UNL     1      43.757   4.675  10.176  0.00  0.00    +0.000 C 
BRANCH   9  14
ATOM     10  C   UNL     1      45.964   3.494   7.482  0.00  0.00    +0.000 A 
ATOM     11  C   UNL     1      46.127   2.139   7.711  0.00  0.00    +0.000 A 
ATOM     12  C   UNL     1      45.457   1.572   8.791  0.00  0.00    +0.000 A 
ATOM     13  C   UNL     1      44.660   2.378   9.601  0.00  0.00    +0.000 A 
ATOM     14  C   UNL     1      44.550   3.733   9.297  0.00  0.00    +0.000 A 
ATOM     15  N   UNL     1      45.189   4.290   8.243  0.00  0.00    +0.000 NA
BRANCH  10  17
ATOM     16  C   UNL     1      47.040   3.070   5.463  0.00  0.00    +0.000 C 
ATOM     17  O   UNL     1      46.659   4.050   6.428  0.00  0.00    +0.000 OA
ENDBRANCH  10  17
ENDBRANCH   9  14
ENDBRANCH   7   9
ENDBRANCH   1   7
BRANCH   4  18
ATOM     18  C   UNL     1      48.362   6.564  14.397  0.00  0.00    +0.000 C 
BRANCH  18  19
ATOM     19  N   UNL     1      48.071   6.736  15.798  0.00  0.00    +0.000 N 
ATOM     20  C   UNL     1      48.805   6.079  16.754  0.00  0.00    +0.000 C 
ATOM     21  O   UNL     1      49.758   5.363  16.469  0.00  0.00    +0.000 OA
ATOM     22  H   UNL     1      47.151   7.099  16.037  0.00  0.00    +0.000 HD
BRANCH  20  23
ATOM     23  C   UNL     1      48.427   6.334  18.153  0.00  0.00    +0.000 A 
ATOM     24  C   UNL     1      48.420   5.287  19.064  0.00  0.00    +0.000 A 
ATOM     25  S   UNL     1      47.999   5.763  20.647  0.00  0.00    +0.000 S 
ATOM     26  C   UNL     1      47.758   7.376  20.158  0.00  0.00    +0.000 A 
ATOM     27  N   UNL     1      47.349   8.322  21.045  0.00  0.00    +0.000 NA
ATOM     28  C   UNL     1      47.185   9.496  20.532  0.00  0.00    +0.000 A 
ATOM     29  N   UNL     1      47.400   9.811  19.216  0.00  0.00    +0.000 N 
ATOM     30  C   UNL     1      47.840   8.894  18.289  0.00  0.00    +0.000 A 
ATOM     31  O   UNL     1      48.066   9.218  17.129  0.00  0.00    +0.000 OA
ATOM     32  C   UNL     1      48.026   7.553  18.811  0.00  0.00    +0.000 A 
ATOM     33  H   UNL     1      47.267  10.754  18.881  0.00  0.00    +0.000 HD
ENDBRANCH  20  23
ENDBRANCH  18  19
ENDBRANCH   4  18
TORSDOF 7
ENDMDL
MODEL 7
REMARK VINA RESULT:    -7.154      3.904      7.037
REMARK INTER + INTRA:         -11.096
REMARK INTER:                 -10.001
REMARK INTRA:                  -1.095
REMARK UNBOUND:                -1.015
REMARK  Name = 
REMARK  8 active torsions:
REMARK  status: ('A' for Active; 'I' for Inactive)
REMARK    1  A    between atoms: C_1  and  O_2
REMARK    2  A    between atoms: O_2  and  C_3
REMARK    3  A    between atoms: C_7  and  C_8
REMARK    4  A    between atoms: C_8  and  N_9
REMARK    5  A    between atoms: N_9  and  C_10
REMARK    6  A    between atoms: C_13  and  C_14
REMARK    7  A    between atoms: C_14  and  N_15
REMARK    8  A    between atoms: C_16  and  C_18
REMARK                            x       y       z     vdW  Elec       q    Type
REMARK                         _______ _______ _______ _____ _____    ______ ____
ROOT
ATOM      1  C   UNL     1      45.617   7.131  11.480  0.00  0.00    +0.000 A 
ATOM      2  C   UNL     1      45.362   8.262  12.270  0.00  0.00    +0.000 A 
ATOM      3  C   UNL     1      46.343   8.790  13.127  0.00  0.00    +0.000 A 
ATOM      4  C   UNL     1      47.599   8.183  13.229  0.00  0.00    +0.000 A 
ATOM      5  C   UNL     1      47.827   7.008  12.513  0.00  0.00    +0.000 A 
ATOM      6  C   UNL     1      46.848   6.489  11.661  0.00  0.00    +0.000 A 
ENDROOT
BRANCH   1   7
ATOM      7  N   UNL     1      44.599   6.603  10.664  0.00  0.00    +0.000 N 
ATOM      8  H   UNL     1      44.864   6.642   9.680  0.00  0.00    +0.000 HD
BRANCH   7   9
ATOM      9  C   UNL     1      44.128   5.256  11.007  0.00  0.00    +0.000 C 
BRANCH   9  14
ATOM     10  C   UNL     1      45.712   3.802   8.024  0.00  0.00    +0.000 A 
ATOM     11  C   UNL     1      45.475   2.441   8.112  0.00  0.00    +0.000 A 
ATOM     12  C   UNL     1      44.733   1.974   9.192  0.00  0.00    +0.000 A 
ATOM     13  C   UNL     1      44.265   2.878  10.143  0.00  0.00    +0.000 A 
ATOM     14  C   UNL     1      44.547   4.232   9.976  0.00  0.00    +0.000 A 
ATOM     15  N   UNL     1      45.258   4.697   8.923  0.00  0.00    +0.000 NA
BRANCH  10  17
ATOM     16  C   UNL     1      46.821   3.192   6.071  0.00  0.00    +0.000 C 
ATOM     17  O   UNL     1      46.476   4.250   6.965  0.00  0.00    +0.000 OA
ENDBRANCH  10  17
ENDBRANCH   9  14
ENDBRANCH   7   9
ENDBRANCH   1   7
BRANCH   4  18
ATOM     18  C   UNL     1      48.693   8.740  14.101  0.00  0.00    +0.000 C 
BRANCH  18  19
ATOM     19  N   UNL     1      48.942   7.910  15.252  0.00  0.00    +0.000 N 
ATOM     20  C   UNL     1      48.516   8.294  16.500  0.00  0.00    +0.000 C 
ATOM     21  O   UNL     1      47.872   9.319  16.684  0.00  0.00    +0.000 OA
ATOM     22  H   UNL     1      49.678   7.213  15.169  0.00  0.00    +0.000 HD
BRANCH  20  23
ATOM     23  C   UNL     1      48.816   7.367  17.602  0.00  0.00    +0.000 A 
ATOM     24  C   UNL     1      49.277   7.866  18.813  0.00  0.00    +0.000 A 
ATOM     25  S   UNL     1      49.537   6.662  19.993  0.00  0.00    +0.000 S 
ATOM     26  C   UNL     1      49.093   5.426  18.911  0.00  0.00    +0.000 A 
ATOM     27  N   UNL     1      49.126   4.121  19.288  0.00  0.00    +0.000 NA
ATOM     28  C   UNL     1      48.787   3.289  18.359  0.00  0.00    +0.000 A 
ATOM     29  N   UNL     1      48.411   3.645  17.091  0.00  0.00    +0.000 N 
ATOM     30  C   UNL     1      48.337   4.954  16.672  0.00  0.00    +0.000 A 
ATOM     31  O   UNL     1      47.954   5.242  15.544  0.00  0.00    +0.000 OA
ATOM     32  C   UNL     1      48.723   5.929  17.675  0.00  0.00    +0.000 A 
ATOM     33  H   UNL     1      48.143   2.946  16.415  0.00  0.00    +0.000 HD
ENDBRANCH  20  23
ENDBRANCH  18  19
ENDBRANCH   4  18
TORSDOF 7
ENDMDL
MODEL 8
REMARK VINA RESULT:    -7.013      4.252     10.246
REMARK INTER + INTRA:         -10.899
REMARK INTER:                  -9.619
REMARK INTRA:                  -1.280
REMARK UNBOUND:                -1.015
REMARK  Name = 
REMARK  8 active torsions:
REMARK  status: ('A' for Active; 'I' for Inactive)
REMARK    1  A    between atoms: C_1  and  O_2
REMARK    2  A    between atoms: O_2  and  C_3
REMARK    3  A    between atoms: C_7  and  C_8
REMARK    4  A    between atoms: C_8  and  N_9
REMARK    5  A    between atoms: N_9  and  C_10
REMARK    6  A    between atoms: C_13  and  C_14
REMARK    7  A    between atoms: C_14  and  N_15
REMARK    8  A    between atoms: C_16  and  C_18
REMARK                            x       y       z     vdW  Elec       q    Type
REMARK                         _______ _______ _______ _____ _____    ______ ____
ROOT
ATOM      1  C   UNL     1      49.559   8.370  15.566  0.00  0.00    +0.000 A 
ATOM      2  C   UNL     1      50.202   7.679  14.528  0.00  0.00    +0.000 A 
ATOM      3  C   UNL     1      49.590   7.513  13.273  0.00  0.00    +0.000 A 
ATOM      4  C   UNL     1      48.307   8.019  13.035  0.00  0.00    +0.000 A 
ATOM      5  C   UNL     1      47.630   8.629  14.092  0.00  0.00    +0.000 A 
ATOM      6  C   UNL     1      48.245   8.791  15.336  0.00  0.00    +0.000 A 
ENDROOT
BRANCH   1   7
ATOM      7  N   UNL     1      50.182   8.481  16.823  0.00  0.00    +0.000 N 
ATOM      8  H   UNL     1      49.605   9.018  17.470  0.00  0.00    +0.000 HD
BRANCH   7   9
ATOM      9  C   UNL     1      50.606   7.223  17.449  0.00  0.00    +0.000 C 
BRANCH   9  14
ATOM     10  C   UNL     1      48.576   4.188  17.004  0.00  0.00    +0.000 A 
ATOM     11  C   UNL     1      47.497   4.343  17.856  0.00  0.00    +0.000 A 
ATOM     12  C   UNL     1      47.411   5.517  18.598  0.00  0.00    +0.000 A 
ATOM     13  C   UNL     1      48.407   6.483  18.468  0.00  0.00    +0.000 A 
ATOM     14  C   UNL     1      49.458   6.247  17.586  0.00  0.00    +0.000 A 
ATOM     15  N   UNL     1      49.544   5.114  16.852  0.00  0.00    +0.000 NA
BRANCH  10  17
ATOM     16  C   UNL     1      49.608   2.107  16.880  0.00  0.00    +0.000 C 
ATOM     17  O   UNL     1      48.667   3.007  16.297  0.00  0.00    +0.000 OA
ENDBRANCH  10  17
ENDBRANCH   9  14
ENDBRANCH   7   9
ENDBRANCH   1   7
BRANCH   4  18
ATOM     18  C   UNL     1      47.633   7.903  11.695  0.00  0.00    +0.000 C 
BRANCH  18  19
ATOM     19  N   UNL     1      46.933   6.652  11.548  0.00  0.00    +0.000 N 
ATOM     20  C   UNL     1      45.562   6.602  11.615  0.00  0.00    +0.000 C 
ATOM     21  O   UNL     1      44.877   7.609  11.752  0.00  0.00    +0.000 OA
ATOM     22  H   UNL     1      47.471   5.801  11.696  0.00  0.00    +0.000 HD
BRANCH  20  23
ATOM     23  C   UNL     1      44.951   5.275  11.443  0.00  0.00    +0.000 A 
ATOM     24  C   UNL     1      44.251   4.700  12.495  0.00  0.00    +0.000 A 
ATOM     25  S   UNL     1      43.573   3.182  12.115  0.00  0.00    +0.000 S 
ATOM     26  C   UNL     1      44.238   3.215  10.549  0.00  0.00    +0.000 A 
ATOM     27  N   UNL     1      44.058   2.175   9.691  0.00  0.00    +0.000 NA
ATOM     28  C   UNL     1      44.637   2.324   8.545  0.00  0.00    +0.000 A 
ATOM     29  N   UNL     1      45.373   3.420   8.179  0.00  0.00    +0.000 N 
ATOM     30  C   UNL     1      45.561   4.506   9.003  0.00  0.00    +0.000 A 
ATOM     31  O   UNL     1      46.188   5.491   8.629  0.00  0.00    +0.000 OA
ATOM     32  C   UNL     1      44.942   4.383  10.310  0.00  0.00    +0.000 A 
ATOM     33  H   UNL     1      45.789   3.481   7.262  0.00  0.00    +0.000 HD
ENDBRANCH  20  23
ENDBRANCH  18  19
ENDBRANCH   4  18
TORSDOF 7
ENDMDL
MODEL 9
REMARK VINA RESULT:    -6.774      6.281     10.246
REMARK INTER + INTRA:         -10.561
REMARK INTER:                  -9.231
REMARK INTRA:                  -1.330
REMARK UNBOUND:                -1.015
REMARK  Name = 
REMARK  8 active torsions:
REMARK  status: ('A' for Active; 'I' for Inactive)
REMARK    1  A    between atoms: C_1  and  O_2
REMARK    2  A    between atoms: O_2  and  C_3
REMARK    3  A    between atoms: C_7  and  C_8
REMARK    4  A    between atoms: C_8  and  N_9
REMARK    5  A    between atoms: N_9  and  C_10
REMARK    6  A    between atoms: C_13  and  C_14
REMARK    7  A    between atoms: C_14  and  N_15
REMARK    8  A    between atoms: C_16  and  C_18
REMARK                            x       y       z     vdW  Elec       q    Type
REMARK                         _______ _______ _______ _____ _____    ______ ____
ROOT
ATOM      1  C   UNL     1      51.261   6.755  16.517  0.00  0.00    +0.000 A 
ATOM      2  C   UNL     1      49.987   6.824  17.101  0.00  0.00    +0.000 A 
ATOM      3  C   UNL     1      48.951   7.564  16.506  0.00  0.00    +0.000 A 
ATOM      4  C   UNL     1      49.173   8.272  15.320  0.00  0.00    +0.000 A 
ATOM      5  C   UNL     1      50.461   8.278  14.784  0.00  0.00    +0.000 A 
ATOM      6  C   UNL     1      51.486   7.539  15.379  0.00  0.00    +0.000 A 
ENDROOT
BRANCH   1   7
ATOM      7  N   UNL     1      52.289   6.040  17.160  0.00  0.00    +0.000 N 
ATOM      8  H   UNL     1      53.070   6.654  17.391  0.00  0.00    +0.000 HD
BRANCH   7   9
ATOM      9  C   UNL     1      51.894   5.259  18.338  0.00  0.00    +0.000 C 
BRANCH   9  14
ATOM     10  C   UNL     1      50.706   2.036  17.023  0.00  0.00    +0.000 A 
ATOM     11  C   UNL     1      51.704   1.128  17.329  0.00  0.00    +0.000 A 
ATOM     12  C   UNL     1      52.816   1.586  18.028  0.00  0.00    +0.000 A 
ATOM     13  C   UNL     1      52.893   2.930  18.386  0.00  0.00    +0.000 A 
ATOM     14  C   UNL     1      51.842   3.777  18.040  0.00  0.00    +0.000 A 
ATOM     15  N   UNL     1      50.752   3.338  17.371  0.00  0.00    +0.000 NA
BRANCH  10  17
ATOM     16  C   UNL     1      48.538   2.503  16.321  0.00  0.00    +0.000 C 
ATOM     17  O   UNL     1      49.623   1.576  16.303  0.00  0.00    +0.000 OA
ENDBRANCH  10  17
ENDBRANCH   9  14
ENDBRANCH   7   9
ENDBRANCH   1   7
BRANCH   4  18
ATOM     18  C   UNL     1      48.080   9.041  14.626  0.00  0.00    +0.000 C 
BRANCH  18  19
ATOM     19  N   UNL     1      47.055   8.173  14.104  0.00  0.00    +0.000 N 
ATOM     20  C   UNL     1      46.940   7.958  12.753  0.00  0.00    +0.000 C 
ATOM     21  O   UNL     1      47.719   8.447  11.944  0.00  0.00    +0.000 OA
ATOM     22  H   UNL     1      46.263   7.977  14.711  0.00  0.00    +0.000 HD
BRANCH  20  23
ATOM     23  C   UNL     1      45.864   7.047  12.331  0.00  0.00    +0.000 A 
ATOM     24  C   UNL     1      44.752   7.556  11.673  0.00  0.00    +0.000 A 
ATOM     25  S   UNL     1      43.622   6.362  11.218  0.00  0.00    +0.000 S 
ATOM     26  C   UNL     1      44.554   5.129  11.932  0.00  0.00    +0.000 A 
ATOM     27  N   UNL     1      44.129   3.838  11.924  0.00  0.00    +0.000 NA
ATOM     28  C   UNL     1      44.923   3.012  12.521  0.00  0.00    +0.000 A 
ATOM     29  N   UNL     1      46.106   3.360  13.118  0.00  0.00    +0.000 N 
ATOM     30  C   UNL     1      46.589   4.648  13.129  0.00  0.00    +0.000 A 
ATOM     31  O   UNL     1      47.673   4.919  13.633  0.00  0.00    +0.000 OA
ATOM     32  C   UNL     1      45.726   5.619  12.483  0.00  0.00    +0.000 A 
ATOM     33  H   UNL     1      46.689   2.663  13.557  0.00  0.00    +0.000 HD
ENDBRANCH  20  23
ENDBRANCH  18  19
ENDBRANCH   4  18
TORSDOF 7
ENDMDL
