MODEL 1
REMARK VINA RESULT:    -8.576      0.000      0.000
REMARK INTER + INTRA:         -11.695
REMARK INTER:                 -11.082
REMARK INTRA:                  -0.613
REMARK UNBOUND:                -0.613
REMARK  Name = 
REMARK  5 active torsions:
REMARK  status: ('A' for Active; 'I' for Inactive)
REMARK    1  A    between atoms: C_2  and  C_18
REMARK    2  A    between atoms: N_3  and  C_4
REMARK    3  A    between atoms: C_4  and  C_5
REMARK    4  A    between atoms: C_8  and  C_9
REMARK    5  A    between atoms: C_9  and  C_10
REMARK                            x       y       z     vdW  Elec       q    Type
REMARK                         _______ _______ _______ _____ _____    ______ ____
ROOT
ATOM      1  O   UNL     1      48.807   6.483  12.949  0.00  0.00    +0.000 OA
ATOM      2  C   UNL     1      48.110   6.568  13.956  0.00  0.00    +0.000 C 
ATOM      3  N   UNL     1      46.798   6.967  13.912  0.00  0.00    +0.000 N 
ATOM      4  H   UNL     1      46.321   7.182  14.781  0.00  0.00    +0.000 HD
ENDROOT
BRANCH   2   5
ATOM      5  C   UNL     1      48.613   6.178  15.279  0.00  0.00    +0.000 A 
ATOM      6  C   UNL     1      49.610   6.918  15.897  0.00  0.00    +0.000 A 
ATOM      7  S   UNL     1      50.083   6.290  17.413  0.00  0.00    +0.000 S 
ATOM      8  C   UNL     1      48.936   5.032  17.318  0.00  0.00    +0.000 A 
ATOM      9  N   UNL     1      48.796   4.125  18.315  0.00  0.00    +0.000 NA
ATOM     10  C   UNL     1      47.862   3.255  18.122  0.00  0.00    +0.000 A 
ATOM     11  N   UNL     1      47.055   3.209  17.017  0.00  0.00    +0.000 N 
ATOM     12  C   UNL     1      47.212   4.055  15.947  0.00  0.00    +0.000 A 
ATOM     13  O   UNL     1      46.573   3.891  14.914  0.00  0.00    +0.000 OA
ATOM     14  C   UNL     1      48.220   5.080  16.132  0.00  0.00    +0.000 A 
ATOM     15  H   UNL     1      46.361   2.480  16.908  0.00  0.00    +0.000 HD
ENDBRANCH   2   5
BRANCH   3  16
ATOM     16  C   UNL     1      46.144   7.395  12.705  0.00  0.00    +0.000 C 
BRANCH  16  17
ATOM     17  C   UNL     1      45.672   6.242  11.871  0.00  0.00    +0.000 A 
ATOM     18  C   UNL     1      44.868   5.228  12.398  0.00  0.00    +0.000 A 
ATOM     19  C   UNL     1      44.466   4.166  11.588  0.00  0.00    +0.000 A 
ATOM     20  C   UNL     1      44.867   4.145  10.253  0.00  0.00    +0.000 A 
ATOM     21  N   UNL     1      45.644   5.122   9.720  0.00  0.00    +0.000 NA
ATOM     22  C   UNL     1      46.017   6.142  10.528  0.00  0.00    +0.000 A 
BRANCH  20  23
ATOM     23  C   UNL     1      44.409   3.039   9.325  0.00  0.00    +0.000 C 
BRANCH  23  24
ATOM     24  C   UNL     1      45.439   2.642   8.287  0.00  0.00    +0.000 A 
ATOM     25  C   UNL     1      46.078   1.395   8.363  0.00  0.00    +0.000 A 
ATOM     26  C   UNL     1      47.054   1.035   7.433  0.00  0.00    +0.000 A 
ATOM     27  C   UNL     1      47.391   1.911   6.404  0.00  0.00    +0.000 A 
ATOM     28  C   UNL     1      46.739   3.139   6.295  0.00  0.00    +0.000 A 
ATOM     29  C   UNL     1      45.768   3.503   7.230  0.00  0.00    +0.000 A 
ENDBRANCH  23  24
ENDBRANCH  20  23
ENDBRANCH  16  17
ENDBRANCH   3  16
TORSDOF 5
ENDMDL
MODEL 2
REMARK VINA RESULT:    -8.471      0.644      1.002
REMARK INTER + INTRA:         -11.559
REMARK INTER:                 -11.126
REMARK INTRA:                  -0.433
REMARK UNBOUND:                -0.613
REMARK  Name = 
REMARK  5 active torsions:
REMARK  status: ('A' for Active; 'I' for Inactive)
REMARK    1  A    between atoms: C_2  and  C_18
REMARK    2  A    between atoms: N_3  and  C_4
REMARK    3  A    between atoms: C_4  and  C_5
REMARK    4  A    between atoms: C_8  and  C_9
REMARK    5  A    between atoms: C_9  and  C_10
REMARK                            x       y       z     vdW  Elec       q    Type
REMARK                         _______ _______ _______ _____ _____    ______ ____
ROOT
ATOM      1  O   UNL     1      48.545   6.833  12.699  0.00  0.00    +0.000 OA
ATOM      2  C   UNL     1      47.845   6.720  13.701  0.00  0.00    +0.000 C 
ATOM      3  N   UNL     1      46.481   6.857  13.667  0.00  0.00    +0.000 N 
ATOM      4  H   UNL     1      45.971   6.922  14.541  0.00  0.00    +0.000 HD
ENDROOT
BRANCH   2   5
ATOM      5  C   UNL     1      48.416   6.358  15.006  0.00  0.00    +0.000 A 
ATOM      6  C   UNL     1      49.367   7.169  15.605  0.00  0.00    +0.000 A 
ATOM      7  S   UNL     1      49.931   6.567  17.100  0.00  0.00    +0.000 S 
ATOM      8  C   UNL     1      48.888   5.220  17.020  0.00  0.00    +0.000 A 
ATOM      9  N   UNL     1      48.851   4.294  18.008  0.00  0.00    +0.000 NA
ATOM     10  C   UNL     1      47.985   3.353  17.830  0.00  0.00    +0.000 A 
ATOM     11  N   UNL     1      47.154   3.253  16.746  0.00  0.00    +0.000 N 
ATOM     12  C   UNL     1      47.210   4.121  15.684  0.00  0.00    +0.000 A 
ATOM     13  O   UNL     1      46.559   3.916  14.667  0.00  0.00    +0.000 OA
ATOM     14  C   UNL     1      48.137   5.222  15.855  0.00  0.00    +0.000 A 
ATOM     15  H   UNL     1      46.518   2.471  16.647  0.00  0.00    +0.000 HD
ENDBRANCH   2   5
BRANCH   3  16
ATOM     16  C   UNL     1      45.755   7.220  12.479  0.00  0.00    +0.000 C 
BRANCH  16  17
ATOM     17  C   UNL     1      45.495   6.044  11.586  0.00  0.00    +0.000 A 
ATOM     18  C   UNL     1      45.861   6.042  10.238  0.00  0.00    +0.000 A 
ATOM     19  C   UNL     1      45.583   4.931   9.442  0.00  0.00    +0.000 A 
ATOM     20  C   UNL     1      44.952   3.829  10.017  0.00  0.00    +0.000 A 
ATOM     21  N   UNL     1      44.592   3.808  11.325  0.00  0.00    +0.000 NA
ATOM     22  C   UNL     1      44.877   4.899  12.075  0.00  0.00    +0.000 A 
BRANCH  20  23
ATOM     23  C   UNL     1      44.680   2.580   9.202  0.00  0.00    +0.000 C 
BRANCH  23  24
ATOM     24  C   UNL     1      45.680   2.344   8.089  0.00  0.00    +0.000 A 
ATOM     25  C   UNL     1      46.422   1.154   8.043  0.00  0.00    +0.000 A 
ATOM     26  C   UNL     1      47.372   0.943   7.042  0.00  0.00    +0.000 A 
ATOM     27  C   UNL     1      47.578   1.912   6.063  0.00  0.00    +0.000 A 
ATOM     28  C   UNL     1      46.823   3.083   6.075  0.00  0.00    +0.000 A 
ATOM     29  C   UNL     1      45.878   3.300   7.082  0.00  0.00    +0.000 A 
ENDBRANCH  23  24
ENDBRANCH  20  23
ENDBRANCH  16  17
ENDBRANCH   3  16
TORSDOF 5
ENDMDL
MODEL 3
REMARK VINA RESULT:    -8.170      1.627      2.427
REMARK INTER + INTRA:         -11.170
REMARK INTER:                 -10.538
REMARK INTRA:                  -0.633
REMARK UNBOUND:                -0.613
REMARK  Name = 
REMARK  5 active torsions:
REMARK  status: ('A' for Active; 'I' for Inactive)
REMARK    1  A    between atoms: C_2  and  C_18
REMARK    2  A    between atoms: N_3  and  C_4
REMARK    3  A    between atoms: C_4  and  C_5
REMARK    4  A    between atoms: C_8  and  C_9
REMARK    5  A    between atoms: C_9  and  C_10
REMARK                            x       y       z     vdW  Elec       q    Type
REMARK                         _______ _______ _______ _____ _____    ______ ____
ROOT
ATOM      1  O   UNL     1      48.706   6.144  14.048  0.00  0.00    +0.000 OA
ATOM      2  C   UNL     1      47.752   5.669  14.659  0.00  0.00    +0.000 C 
ATOM      3  N   UNL     1      46.464   5.754  14.195  0.00  0.00    +0.000 N 
ATOM      4  H   UNL     1      45.701   5.498  14.812  0.00  0.00    +0.000 HD
ENDROOT
BRANCH   2   5
ATOM      5  C   UNL     1      47.931   4.910  15.903  0.00  0.00    +0.000 A 
ATOM      6  C   UNL     1      47.680   3.547  15.936  0.00  0.00    +0.000 A 
ATOM      7  S   UNL     1      47.916   2.848  17.476  0.00  0.00    +0.000 S 
ATOM      8  C   UNL     1      48.408   4.338  18.144  0.00  0.00    +0.000 A 
ATOM      9  N   UNL     1      48.775   4.445  19.444  0.00  0.00    +0.000 NA
ATOM     10  C   UNL     1      49.161   5.625  19.798  0.00  0.00    +0.000 A 
ATOM     11  N   UNL     1      49.209   6.712  18.967  0.00  0.00    +0.000 N 
ATOM     12  C   UNL     1      48.772   6.672  17.666  0.00  0.00    +0.000 A 
ATOM     13  O   UNL     1      48.688   7.695  16.997  0.00  0.00    +0.000 OA
ATOM     14  C   UNL     1      48.369   5.358  17.206  0.00  0.00    +0.000 A 
ATOM     15  H   UNL     1      49.489   7.621  19.313  0.00  0.00    +0.000 HD
ENDBRANCH   2   5
BRANCH   3  16
ATOM     16  C   UNL     1      46.103   6.468  12.999  0.00  0.00    +0.000 C 
BRANCH  16  17
ATOM     17  C   UNL     1      45.713   5.550  11.880  0.00  0.00    +0.000 A 
ATOM     18  C   UNL     1      45.830   5.926  10.539  0.00  0.00    +0.000 A 
ATOM     19  C   UNL     1      45.439   5.043   9.532  0.00  0.00    +0.000 A 
ATOM     20  C   UNL     1      44.948   3.788   9.887  0.00  0.00    +0.000 A 
ATOM     21  N   UNL     1      44.831   3.401  11.183  0.00  0.00    +0.000 NA
ATOM     22  C   UNL     1      45.220   4.276  12.139  0.00  0.00    +0.000 A 
BRANCH  20  23
ATOM     23  C   UNL     1      44.563   2.779   8.824  0.00  0.00    +0.000 C 
BRANCH  23  24
ATOM     24  C   UNL     1      45.680   2.453   7.854  0.00  0.00    +0.000 A 
ATOM     25  C   UNL     1      45.959   3.311   6.780  0.00  0.00    +0.000 A 
ATOM     26  C   UNL     1      46.962   3.001   5.860  0.00  0.00    +0.000 A 
ATOM     27  C   UNL     1      47.712   1.838   6.014  0.00  0.00    +0.000 A 
ATOM     28  C   UNL     1      47.470   0.994   7.097  0.00  0.00    +0.000 A 
ATOM     29  C   UNL     1      46.460   1.299   8.013  0.00  0.00    +0.000 A 
ENDBRANCH  23  24
ENDBRANCH  20  23
ENDBRANCH  16  17
ENDBRANCH   3  16
TORSDOF 5
ENDMDL
MODEL 4
REMARK VINA RESULT:    -7.768      2.157      3.053
REMARK INTER + INTRA:         -10.651
REMARK INTER:                  -9.934
REMARK INTRA:                  -0.717
REMARK UNBOUND:                -0.613
REMARK  Name = 
REMARK  5 active torsions:
REMARK  status: ('A' for Active; 'I' for Inactive)
REMARK    1  A    between atoms: C_2  and  C_18
REMARK    2  A    between atoms: N_3  and  C_4
REMARK    3  A    between atoms: C_4  and  C_5
REMARK    4  A    between atoms: C_8  and  C_9
REMARK    5  A    between atoms: C_9  and  C_10
REMARK                            x       y       z     vdW  Elec       q    Type
REMARK                         _______ _______ _______ _____ _____    ______ ____
ROOT
ATOM      1  O   UNL     1      47.740   4.830  13.722  0.00  0.00    +0.000 OA
ATOM      2  C   UNL     1      47.618   6.048  13.620  0.00  0.00    +0.000 C 
ATOM      3  N   UNL     1      46.402   6.654  13.432  0.00  0.00    +0.000 N 
ATOM      4  H   UNL     1      46.376   7.637  13.187  0.00  0.00    +0.000 HD
ENDROOT
BRANCH   2   5
ATOM      5  C   UNL     1      48.766   6.954  13.762  0.00  0.00    +0.000 A 
ATOM      6  C   UNL     1      49.106   7.823  12.737  0.00  0.00    +0.000 A 
ATOM      7  S   UNL     1      50.484   8.771  13.077  0.00  0.00    +0.000 S 
ATOM      8  C   UNL     1      50.648   8.085  14.630  0.00  0.00    +0.000 A 
ATOM      9  N   UNL     1      51.636   8.471  15.473  0.00  0.00    +0.000 NA
ATOM     10  C   UNL     1      51.611   7.894  16.627  0.00  0.00    +0.000 A 
ATOM     11  N   UNL     1      50.687   6.960  17.014  0.00  0.00    +0.000 N 
ATOM     12  C   UNL     1      49.718   6.480  16.168  0.00  0.00    +0.000 A 
ATOM     13  O   UNL     1      49.003   5.540  16.496  0.00  0.00    +0.000 OA
ATOM     14  C   UNL     1      49.675   7.128  14.872  0.00  0.00    +0.000 A 
ATOM     15  H   UNL     1      50.741   6.518  17.923  0.00  0.00    +0.000 HD
ENDBRANCH   2   5
BRANCH   3  16
ATOM     16  C   UNL     1      45.176   5.922  13.261  0.00  0.00    +0.000 C 
BRANCH  16  17
ATOM     17  C   UNL     1      45.024   5.379  11.872  0.00  0.00    +0.000 A 
ATOM     18  C   UNL     1      45.782   5.860  10.801  0.00  0.00    +0.000 A 
ATOM     19  C   UNL     1      45.594   5.334   9.523  0.00  0.00    +0.000 A 
ATOM     20  C   UNL     1      44.654   4.322   9.341  0.00  0.00    +0.000 A 
ATOM     21  N   UNL     1      43.910   3.837  10.367  0.00  0.00    +0.000 NA
ATOM     22  C   UNL     1      44.116   4.363  11.598  0.00  0.00    +0.000 A 
BRANCH  20  23
ATOM     23  C   UNL     1      44.456   3.685   7.979  0.00  0.00    +0.000 C 
BRANCH  23  24
ATOM     24  C   UNL     1      45.651   2.890   7.494  0.00  0.00    +0.000 A 
ATOM     25  C   UNL     1      46.445   3.374   6.443  0.00  0.00    +0.000 A 
ATOM     26  C   UNL     1      47.526   2.632   5.965  0.00  0.00    +0.000 A 
ATOM     27  C   UNL     1      47.839   1.405   6.545  0.00  0.00    +0.000 A 
ATOM     28  C   UNL     1      47.081   0.929   7.614  0.00  0.00    +0.000 A 
ATOM     29  C   UNL     1      45.993   1.667   8.088  0.00  0.00    +0.000 A 
ENDBRANCH  23  24
ENDBRANCH  20  23
ENDBRANCH  16  17
ENDBRANCH   3  16
TORSDOF 5
ENDMDL
MODEL 5
REMARK VINA RESULT:    -7.718      1.146      1.726
REMARK INTER + INTRA:         -10.586
REMARK INTER:                  -9.820
REMARK INTRA:                  -0.766
REMARK UNBOUND:                -0.613
REMARK  Name = 
REMARK  5 active torsions:
REMARK  status: ('A' for Active; 'I' for Inactive)
REMARK    1  A    between atoms: C_2  and  C_18
REMARK    2  A    between atoms: N_3  and  C_4
REMARK    3  A    between atoms: C_4  and  C_5
REMARK    4  A    between atoms: C_8  and  C_9
REMARK    5  A    between atoms: C_9  and  C_10
REMARK                            x       y       z     vdW  Elec       q    Type
REMARK                         _______ _______ _______ _____ _____    ______ ____
ROOT
ATOM      1  O   UNL     1      49.813   6.971  14.350  0.00  0.00    +0.000 OA
ATOM      2  C   UNL     1      48.860   6.876  15.118  0.00  0.00    +0.000 C 
ATOM      3  N   UNL     1      47.588   7.245  14.763  0.00  0.00    +0.000 N 
ATOM      4  H   UNL     1      46.876   7.307  15.482  0.00  0.00    +0.000 HD
ENDROOT
BRANCH   2   5
ATOM      5  C   UNL     1      49.003   6.291  16.458  0.00  0.00    +0.000 A 
ATOM      6  C   UNL     1      49.645   6.994  17.466  0.00  0.00    +0.000 A 
ATOM      7  S   UNL     1      49.739   6.137  18.940  0.00  0.00    +0.000 S 
ATOM      8  C   UNL     1      48.881   4.812  18.294  0.00  0.00    +0.000 A 
ATOM      9  N   UNL     1      48.595   3.721  19.045  0.00  0.00    +0.000 NA
ATOM     10  C   UNL     1      47.906   2.816  18.435  0.00  0.00    +0.000 A 
ATOM     11  N   UNL     1      47.480   2.902  17.136  0.00  0.00    +0.000 N 
ATOM     12  C   UNL     1      47.813   3.950  16.313  0.00  0.00    +0.000 A 
ATOM     13  O   UNL     1      47.543   3.925  15.119  0.00  0.00    +0.000 OA
ATOM     14  C   UNL     1      48.549   5.016  16.964  0.00  0.00    +0.000 A 
ATOM     15  H   UNL     1      46.971   2.143  16.702  0.00  0.00    +0.000 HD
ENDBRANCH   2   5
BRANCH   3  16
ATOM     16  C   UNL     1      47.266   7.846  13.496  0.00  0.00    +0.000 C 
BRANCH  16  17
ATOM     17  C   UNL     1      46.467   6.932  12.617  0.00  0.00    +0.000 A 
ATOM     18  C   UNL     1      45.703   7.412  11.550  0.00  0.00    +0.000 A 
ATOM     19  C   UNL     1      44.962   6.525  10.769  0.00  0.00    +0.000 A 
ATOM     20  C   UNL     1      45.010   5.164  11.064  0.00  0.00    +0.000 A 
ATOM     21  N   UNL     1      45.749   4.676  12.092  0.00  0.00    +0.000 NA
ATOM     22  C   UNL     1      46.461   5.559  12.831  0.00  0.00    +0.000 A 
BRANCH  20  23
ATOM     23  C   UNL     1      44.264   4.160  10.208  0.00  0.00    +0.000 C 
BRANCH  23  24
ATOM     24  C   UNL     1      45.132   3.466   9.179  0.00  0.00    +0.000 A 
ATOM     25  C   UNL     1      45.776   4.208   8.178  0.00  0.00    +0.000 A 
ATOM     26  C   UNL     1      46.549   3.574   7.204  0.00  0.00    +0.000 A 
ATOM     27  C   UNL     1      46.702   2.190   7.229  0.00  0.00    +0.000 A 
ATOM     28  C   UNL     1      46.097   1.443   8.239  0.00  0.00    +0.000 A 
ATOM     29  C   UNL     1      45.316   2.076   9.210  0.00  0.00    +0.000 A 
ENDBRANCH  23  24
ENDBRANCH  20  23
ENDBRANCH  16  17
ENDBRANCH   3  16
TORSDOF 5
ENDMDL
MODEL 6
REMARK VINA RESULT:    -7.469      3.158      7.982
REMARK INTER + INTRA:         -10.265
REMARK INTER:                  -9.447
REMARK INTRA:                  -0.818
REMARK UNBOUND:                -0.613
REMARK  Name = 
REMARK  5 active torsions:
REMARK  status: ('A' for Active; 'I' for Inactive)
REMARK    1  A    between atoms: C_2  and  C_18
REMARK    2  A    between atoms: N_3  and  C_4
REMARK    3  A    between atoms: C_4  and  C_5
REMARK    4  A    between atoms: C_8  and  C_9
REMARK    5  A    between atoms: C_9  and  C_10
REMARK                            x       y       z     vdW  Elec       q    Type
REMARK                         _______ _______ _______ _____ _____    ______ ____
ROOT
ATOM      1  O   UNL     1      45.764   7.875  11.701  0.00  0.00    +0.000 OA
ATOM      2  C   UNL     1      46.309   6.781  11.588  0.00  0.00    +0.000 C 
ATOM      3  N   UNL     1      47.515   6.494  12.177  0.00  0.00    +0.000 N 
ATOM      4  H   UNL     1      47.999   5.643  11.916  0.00  0.00    +0.000 HD
ENDROOT
BRANCH   2   5
ATOM      5  C   UNL     1      45.672   5.670  10.869  0.00  0.00    +0.000 A 
ATOM      6  C   UNL     1      45.839   5.532   9.499  0.00  0.00    +0.000 A 
ATOM      7  S   UNL     1      44.998   4.201   8.841  0.00  0.00    +0.000 S 
ATOM      8  C   UNL     1      44.416   3.732  10.374  0.00  0.00    +0.000 A 
ATOM      9  N   UNL     1      43.632   2.639  10.530  0.00  0.00    +0.000 NA
ATOM     10  C   UNL     1      43.301   2.385  11.752  0.00  0.00    +0.000 A 
ATOM     11  N   UNL     1      43.682   3.132  12.835  0.00  0.00    +0.000 N 
ATOM     12  C   UNL     1      44.408   4.292  12.718  0.00  0.00    +0.000 A 
ATOM     13  O   UNL     1      44.603   5.014  13.689  0.00  0.00    +0.000 OA
ATOM     14  C   UNL     1      44.842   4.598  11.370  0.00  0.00    +0.000 A 
ATOM     15  H   UNL     1      43.361   2.901  13.766  0.00  0.00    +0.000 HD
ENDBRANCH   2   5
BRANCH   3  16
ATOM     16  C   UNL     1      48.284   7.464  12.909  0.00  0.00    +0.000 C 
BRANCH  16  17
ATOM     17  C   UNL     1      48.797   6.923  14.210  0.00  0.00    +0.000 A 
ATOM     18  C   UNL     1      49.996   7.367  14.775  0.00  0.00    +0.000 A 
ATOM     19  C   UNL     1      50.441   6.822  15.980  0.00  0.00    +0.000 A 
ATOM     20  C   UNL     1      49.667   5.848  16.607  0.00  0.00    +0.000 A 
ATOM     21  N   UNL     1      48.497   5.407  16.079  0.00  0.00    +0.000 NA
ATOM     22  C   UNL     1      48.088   5.955  14.910  0.00  0.00    +0.000 A 
BRANCH  20  23
ATOM     23  C   UNL     1      50.086   5.269  17.944  0.00  0.00    +0.000 C 
BRANCH  23  24
ATOM     24  C   UNL     1      50.870   3.977  17.834  0.00  0.00    +0.000 A 
ATOM     25  C   UNL     1      50.237   2.796  17.421  0.00  0.00    +0.000 A 
ATOM     26  C   UNL     1      50.943   1.594  17.353  0.00  0.00    +0.000 A 
ATOM     27  C   UNL     1      52.296   1.562  17.678  0.00  0.00    +0.000 A 
ATOM     28  C   UNL     1      52.948   2.735  18.055  0.00  0.00    +0.000 A 
ATOM     29  C   UNL     1      52.240   3.938  18.133  0.00  0.00    +0.000 A 
ENDBRANCH  23  24
ENDBRANCH  20  23
ENDBRANCH  16  17
ENDBRANCH   3  16
TORSDOF 5
ENDMDL
MODEL 7
REMARK VINA RESULT:    -7.161      3.753      9.511
REMARK INTER + INTRA:          -9.867
REMARK INTER:                  -8.807
REMARK INTRA:                  -1.061
REMARK UNBOUND:                -0.613
REMARK  Name = 
REMARK  5 active torsions:
REMARK  status: ('A' for Active; 'I' for Inactive)
REMARK    1  A    between atoms: C_2  and  C_18
REMARK    2  A    between atoms: N_3  and  C_4
REMARK    3  A    between atoms: C_4  and  C_5
REMARK    4  A    between atoms: C_8  and  C_9
REMARK    5  A    between atoms: C_9  and  C_10
REMARK                            x       y       z     vdW  Elec       q    Type
REMARK                         _______ _______ _______ _____ _____    ______ ____
ROOT
ATOM      1  O   UNL     1      48.554   5.837  13.986  0.00  0.00    +0.000 OA
ATOM      2  C   UNL     1      47.381   5.499  14.126  0.00  0.00    +0.000 C 
ATOM      3  N   UNL     1      46.956   4.731  15.179  0.00  0.00    +0.000 N 
ATOM      4  H   UNL     1      46.020   4.342  15.157  0.00  0.00    +0.000 HD
ENDROOT
BRANCH   2   5
ATOM      5  C   UNL     1      46.331   5.956  13.206  0.00  0.00    +0.000 A 
ATOM      6  C   UNL     1      46.143   7.310  12.972  0.00  0.00    +0.000 A 
ATOM      7  S   UNL     1      44.857   7.643  11.899  0.00  0.00    +0.000 S 
ATOM      8  C   UNL     1      44.536   5.984  11.672  0.00  0.00    +0.000 A 
ATOM      9  N   UNL     1      43.550   5.561  10.844  0.00  0.00    +0.000 NA
ATOM     10  C   UNL     1      43.450   4.278  10.742  0.00  0.00    +0.000 A 
ATOM     11  N   UNL     1      44.246   3.377  11.398  0.00  0.00    +0.000 N 
ATOM     12  C   UNL     1      45.204   3.757  12.306  0.00  0.00    +0.000 A 
ATOM     13  O   UNL     1      45.794   2.925  12.985  0.00  0.00    +0.000 OA
ATOM     14  C   UNL     1      45.387   5.190  12.426  0.00  0.00    +0.000 A 
ATOM     15  H   UNL     1      44.096   2.381  11.302  0.00  0.00    +0.000 HD
ENDBRANCH   2   5
BRANCH   3  16
ATOM     16  C   UNL     1      47.848   4.187  16.169  0.00  0.00    +0.000 C 
BRANCH  16  17
ATOM     17  C   UNL     1      48.014   5.097  17.349  0.00  0.00    +0.000 A 
ATOM     18  C   UNL     1      49.173   5.852  17.544  0.00  0.00    +0.000 A 
ATOM     19  C   UNL     1      49.290   6.672  18.666  0.00  0.00    +0.000 A 
ATOM     20  C   UNL     1      48.232   6.731  19.572  0.00  0.00    +0.000 A 
ATOM     21  N   UNL     1      47.096   6.010  19.399  0.00  0.00    +0.000 NA
ATOM     22  C   UNL     1      47.008   5.225  18.300  0.00  0.00    +0.000 A 
BRANCH  20  23
ATOM     23  C   UNL     1      48.295   7.650  20.776  0.00  0.00    +0.000 C 
BRANCH  23  24
ATOM     24  C   UNL     1      47.482   8.919  20.622  0.00  0.00    +0.000 A 
ATOM     25  C   UNL     1      46.638   9.351  21.657  0.00  0.00    +0.000 A 
ATOM     26  C   UNL     1      45.858  10.499  21.510  0.00  0.00    +0.000 A 
ATOM     27  C   UNL     1      45.926  11.241  20.334  0.00  0.00    +0.000 A 
ATOM     28  C   UNL     1      46.787  10.845  19.311  0.00  0.00    +0.000 A 
ATOM     29  C   UNL     1      47.562   9.690  19.453  0.00  0.00    +0.000 A 
ENDBRANCH  23  24
ENDBRANCH  20  23
ENDBRANCH  16  17
ENDBRANCH   3  16
TORSDOF 5
ENDMDL
MODEL 8
REMARK VINA RESULT:    -7.151      2.860      4.400
REMARK INTER + INTRA:          -9.854
REMARK INTER:                  -8.852
REMARK INTRA:                  -1.003
REMARK UNBOUND:                -0.613
REMARK  Name = 
REMARK  5 active torsions:
REMARK  status: ('A' for Active; 'I' for Inactive)
REMARK    1  A    between atoms: C_2  and  C_18
REMARK    2  A    between atoms: N_3  and  C_4
REMARK    3  A    between atoms: C_4  and  C_5
REMARK    4  A    between atoms: C_8  and  C_9
REMARK    5  A    between atoms: C_9  and  C_10
REMARK                            x       y       z     vdW  Elec       q    Type
REMARK                         _______ _______ _______ _____ _____    ______ ____
ROOT
ATOM      1  O   UNL     1      48.657   7.005  15.576  0.00  0.00    +0.000 OA
ATOM      2  C   UNL     1      48.336   7.617  14.561  0.00  0.00    +0.000 C 
ATOM      3  N   UNL     1      47.327   7.194  13.733  0.00  0.00    +0.000 N 
ATOM      4  H   UNL     1      47.216   7.638  12.828  0.00  0.00    +0.000 HD
ENDROOT
BRANCH   2   5
ATOM      5  C   UNL     1      48.966   8.893  14.196  0.00  0.00    +0.000 A 
ATOM      6  C   UNL     1      48.844   9.998  15.025  0.00  0.00    +0.000 A 
ATOM      7  S   UNL     1      49.618  11.393  14.417  0.00  0.00    +0.000 S 
ATOM      8  C   UNL     1      50.185  10.555  13.045  0.00  0.00    +0.000 A 
ATOM      9  N   UNL     1      50.945  11.168  12.104  0.00  0.00    +0.000 NA
ATOM     10  C   UNL     1      51.333  10.399  11.143  0.00  0.00    +0.000 A 
ATOM     11  N   UNL     1      51.026   9.068  11.036  0.00  0.00    +0.000 N 
ATOM     12  C   UNL     1      50.196   8.424  11.919  0.00  0.00    +0.000 A 
ATOM     13  O   UNL     1      49.823   7.275  11.711  0.00  0.00    +0.000 OA
ATOM     14  C   UNL     1      49.767   9.233  13.043  0.00  0.00    +0.000 A 
ATOM     15  H   UNL     1      51.334   8.525  10.239  0.00  0.00    +0.000 HD
ENDBRANCH   2   5
BRANCH   3  16
ATOM     16  C   UNL     1      46.609   5.964  13.931  0.00  0.00    +0.000 C 
BRANCH  16  17
ATOM     17  C   UNL     1      46.100   5.386  12.645  0.00  0.00    +0.000 A 
ATOM     18  C   UNL     1      45.511   4.120  12.584  0.00  0.00    +0.000 A 
ATOM     19  C   UNL     1      45.066   3.617  11.361  0.00  0.00    +0.000 A 
ATOM     20  C   UNL     1      45.207   4.400  10.217  0.00  0.00    +0.000 A 
ATOM     21  N   UNL     1      45.771   5.634  10.255  0.00  0.00    +0.000 NA
ATOM     22  C   UNL     1      46.191   6.098  11.455  0.00  0.00    +0.000 A 
BRANCH  20  23
ATOM     23  C   UNL     1      44.688   3.915   8.878  0.00  0.00    +0.000 C 
BRANCH  23  24
ATOM     24  C   UNL     1      45.663   3.033   8.126  0.00  0.00    +0.000 A 
ATOM     25  C   UNL     1      45.770   1.669   8.436  0.00  0.00    +0.000 A 
ATOM     26  C   UNL     1      46.691   0.856   7.773  0.00  0.00    +0.000 A 
ATOM     27  C   UNL     1      47.504   1.394   6.778  0.00  0.00    +0.000 A 
ATOM     28  C   UNL     1      47.383   2.739   6.434  0.00  0.00    +0.000 A 
ATOM     29  C   UNL     1      46.468   3.556   7.103  0.00  0.00    +0.000 A 
ENDBRANCH  23  24
ENDBRANCH  20  23
ENDBRANCH  16  17
ENDBRANCH   3  16
TORSDOF 5
ENDMDL
MODEL 9
REMARK VINA RESULT:    -7.047      1.968      2.786
REMARK INTER + INTRA:          -9.720
REMARK INTER:                  -8.921
REMARK INTRA:                  -0.799
REMARK UNBOUND:                -0.613
REMARK  Name = 
REMARK  5 active torsions:
REMARK  status: ('A' for Active; 'I' for Inactive)
REMARK    1  A    between atoms: C_2  and  C_18
REMARK    2  A    between atoms: N_3  and  C_4
REMARK    3  A    between atoms: C_4  and  C_5
REMARK    4  A    between atoms: C_8  and  C_9
REMARK    5  A    between atoms: C_9  and  C_10
REMARK                            x       y       z     vdW  Elec       q    Type
REMARK                         _______ _______ _______ _____ _____    ______ ____
ROOT
ATOM      1  O   UNL     1      50.616   6.549  15.848  0.00  0.00    +0.000 OA
ATOM      2  C   UNL     1      49.514   6.944  16.219  0.00  0.00    +0.000 C 
ATOM      3  N   UNL     1      48.539   7.338  15.339  0.00  0.00    +0.000 N 
ATOM      4  H   UNL     1      47.717   7.812  15.697  0.00  0.00    +0.000 HD
ENDROOT
BRANCH   2   5
ATOM      5  C   UNL     1      49.135   6.957  17.638  0.00  0.00    +0.000 A 
ATOM      6  C   UNL     1      48.888   8.157  18.287  0.00  0.00    +0.000 A 
ATOM      7  S   UNL     1      48.491   7.969  19.937  0.00  0.00    +0.000 S 
ATOM      8  C   UNL     1      48.591   6.270  19.830  0.00  0.00    +0.000 A 
ATOM      9  N   UNL     1      48.346   5.478  20.902  0.00  0.00    +0.000 NA
ATOM     10  C   UNL     1      48.421   4.212  20.661  0.00  0.00    +0.000 A 
ATOM     11  N   UNL     1      48.723   3.665  19.443  0.00  0.00    +0.000 N 
ATOM     12  C   UNL     1      49.057   4.427  18.350  0.00  0.00    +0.000 A 
ATOM     13  O   UNL     1      49.466   3.905  17.319  0.00  0.00    +0.000 OA
ATOM     14  C   UNL     1      48.945   5.857  18.555  0.00  0.00    +0.000 A 
ATOM     15  H   UNL     1      48.799   2.663  19.325  0.00  0.00    +0.000 HD
ENDBRANCH   2   5
BRANCH   3  16
ATOM     16  C   UNL     1      48.739   7.399  13.916  0.00  0.00    +0.000 C 
BRANCH  16  17
ATOM     17  C   UNL     1      47.581   6.832  13.151  0.00  0.00    +0.000 A 
ATOM     18  C   UNL     1      46.832   7.606  12.261  0.00  0.00    +0.000 A 
ATOM     19  C   UNL     1      45.752   7.039  11.583  0.00  0.00    +0.000 A 
ATOM     20  C   UNL     1      45.449   5.696  11.800  0.00  0.00    +0.000 A 
ATOM     21  N   UNL     1      46.167   4.925  12.656  0.00  0.00    +0.000 NA
ATOM     22  C   UNL     1      47.211   5.500  13.298  0.00  0.00    +0.000 A 
BRANCH  20  23
ATOM     23  C   UNL     1      44.319   5.026  11.044  0.00  0.00    +0.000 C 
BRANCH  23  24
ATOM     24  C   UNL     1      44.783   4.124   9.919  0.00  0.00    +0.000 A 
ATOM     25  C   UNL     1      44.517   2.747   9.958  0.00  0.00    +0.000 A 
ATOM     26  C   UNL     1      44.972   1.902   8.945  0.00  0.00    +0.000 A 
ATOM     27  C   UNL     1      45.683   2.427   7.869  0.00  0.00    +0.000 A 
ATOM     28  C   UNL     1      45.924   3.798   7.798  0.00  0.00    +0.000 A 
ATOM     29  C   UNL     1      45.476   4.644   8.817  0.00  0.00    +0.000 A 
ENDBRANCH  23  24
ENDBRANCH  20  23
ENDBRANCH  16  17
ENDBRANCH   3  16
TORSDOF 5
ENDMDL
