MODEL 1
REMARK VINA RESULT:    -8.022      0.000      0.000
REMARK INTER + INTRA:         -11.861
REMARK INTER:                 -10.836
REMARK INTRA:                  -1.025
REMARK UNBOUND:                -1.025
REMARK  Name = 
REMARK  6 active torsions:
REMARK  status: ('A' for Active; 'I' for Inactive)
REMARK    1  A    between atoms: C_2  and  C_20
REMARK    2  A    between atoms: N_3  and  C_4
REMARK    3  A    between atoms: C_4  and  C_5
REMARK    4  A    between atoms: C_8  and  C_9
REMARK    5  A    between atoms: C_9  and  C_10
REMARK    6  A    between atoms: C_10  and  N_11
REMARK                            x       y       z     vdW  Elec       q    Type
REMARK                         _______ _______ _______ _____ _____    ______ ____
ROOT
ATOM      1  C   UNL     1      46.516   7.587  12.996  0.00  0.00    +0.000 C 
ENDROOT
BRANCH   1   2
ATOM      2  C   UNL     1      45.892   6.382  12.346  0.00  0.00    +0.000 A 
ATOM      3  C   UNL     1      45.192   5.464  13.131  0.00  0.00    +0.000 A 
ATOM      4  C   UNL     1      44.590   4.346  12.552  0.00  0.00    +0.000 A 
ATOM      5  C   UNL     1      44.680   4.105  11.174  0.00  0.00    +0.000 A 
ATOM      6  C   UNL     1      45.408   5.014  10.392  0.00  0.00    +0.000 A 
ATOM      7  C   UNL     1      46.015   6.136  10.972  0.00  0.00    +0.000 A 
BRANCH   5   8
ATOM      8  C   UNL     1      44.024   2.910  10.502  0.00  0.00    +0.000 C 
BRANCH   8   9
ATOM      9  C   UNL     1      44.422   2.703   9.035  0.00  0.00    +0.000 C 
BRANCH   9  10
ATOM     10  N   UNL     1      45.498   1.719   8.882  0.00  0.00    +0.000 N 
ATOM     11  C   UNL     1      46.254   1.958   7.709  0.00  0.00    +0.000 A 
ATOM     12  C   UNL     1      47.330   1.124   7.386  0.00  0.00    +0.000 A 
ATOM     13  N   UNL     1      48.104   1.281   6.280  0.00  0.00    +0.000 NA
ATOM     14  C   UNL     1      47.771   2.331   5.498  0.00  0.00    +0.000 A 
ATOM     15  C   UNL     1      46.722   3.172   5.806  0.00  0.00    +0.000 A 
ATOM     16  N   UNL     1      45.955   3.004   6.907  0.00  0.00    +0.000 NA
ATOM     17  H   UNL     1      45.144   0.766   8.847  0.00  0.00    +0.000 HD
ENDBRANCH   9  10
ENDBRANCH   8   9
ENDBRANCH   5   8
ENDBRANCH   1   2
BRANCH   1  20
ATOM     18  O   UNL     1      49.135   6.529  13.241  0.00  0.00    +0.000 OA
ATOM     19  C   UNL     1      48.490   6.784  14.251  0.00  0.00    +0.000 C 
ATOM     20  N   UNL     1      47.196   7.239  14.214  0.00  0.00    +0.000 N 
ATOM     21  H   UNL     1      46.790   7.621  15.061  0.00  0.00    +0.000 HD
BRANCH  19  22
ATOM     22  C   UNL     1      49.036   6.549  15.595  0.00  0.00    +0.000 A 
ATOM     23  C   UNL     1      50.035   7.373  16.094  0.00  0.00    +0.000 A 
ATOM     24  S   UNL     1      50.581   6.918  17.646  0.00  0.00    +0.000 S 
ATOM     25  C   UNL     1      49.465   5.637  17.725  0.00  0.00    +0.000 A 
ATOM     26  N   UNL     1      49.391   4.836  18.822  0.00  0.00    +0.000 NA
ATOM     27  C   UNL     1      48.468   3.934  18.764  0.00  0.00    +0.000 A 
ATOM     28  N   UNL     1      47.616   3.756  17.706  0.00  0.00    +0.000 N 
ATOM     29  C   UNL     1      47.705   4.487  16.549  0.00  0.00    +0.000 A 
ATOM     30  O   UNL     1      47.015   4.211  15.573  0.00  0.00    +0.000 OA
ATOM     31  C   UNL     1      48.699   5.546  16.576  0.00  0.00    +0.000 A 
ATOM     32  H   UNL     1      46.933   3.013  17.709  0.00  0.00    +0.000 HD
ENDBRANCH  19  22
ENDBRANCH   1  20
TORSDOF 6
ENDMDL
MODEL 2
REMARK VINA RESULT:    -7.529      2.077      2.405
REMARK INTER + INTRA:         -11.196
REMARK INTER:                 -10.358
REMARK INTRA:                  -0.837
REMARK UNBOUND:                -1.025
REMARK  Name = 
REMARK  6 active torsions:
REMARK  status: ('A' for Active; 'I' for Inactive)
REMARK    1  A    between atoms: C_2  and  C_20
REMARK    2  A    between atoms: N_3  and  C_4
REMARK    3  A    between atoms: C_4  and  C_5
REMARK    4  A    between atoms: C_8  and  C_9
REMARK    5  A    between atoms: C_9  and  C_10
REMARK    6  A    between atoms: C_10  and  N_11
REMARK                            x       y       z     vdW  Elec       q    Type
REMARK                         _______ _______ _______ _____ _____    ______ ____
ROOT
ATOM      1  C   UNL     1      47.850   6.742  13.799  0.00  0.00    +0.000 C 
ENDROOT
BRANCH   1   2
ATOM      2  C   UNL     1      46.896   5.861  13.038  0.00  0.00    +0.000 A 
ATOM      3  C   UNL     1      46.561   4.607  13.552  0.00  0.00    +0.000 A 
ATOM      4  C   UNL     1      45.668   3.776  12.875  0.00  0.00    +0.000 A 
ATOM      5  C   UNL     1      45.091   4.168  11.659  0.00  0.00    +0.000 A 
ATOM      6  C   UNL     1      45.451   5.417  11.131  0.00  0.00    +0.000 A 
ATOM      7  C   UNL     1      46.351   6.251  11.807  0.00  0.00    +0.000 A 
BRANCH   5   8
ATOM      8  C   UNL     1      44.100   3.302  10.899  0.00  0.00    +0.000 C 
BRANCH   8   9
ATOM      9  C   UNL     1      44.436   3.093   9.418  0.00  0.00    +0.000 C 
BRANCH   9  10
ATOM     10  N   UNL     1      45.288   1.920   9.198  0.00  0.00    +0.000 N 
ATOM     11  C   UNL     1      46.067   2.059   8.024  0.00  0.00    +0.000 A 
ATOM     12  C   UNL     1      46.948   1.042   7.642  0.00  0.00    +0.000 A 
ATOM     13  N   UNL     1      47.728   1.094   6.530  0.00  0.00    +0.000 NA
ATOM     14  C   UNL     1      47.608   2.227   5.804  0.00  0.00    +0.000 A 
ATOM     15  C   UNL     1      46.755   3.247   6.171  0.00  0.00    +0.000 A 
ATOM     16  N   UNL     1      45.979   3.182   7.278  0.00  0.00    +0.000 NA
ATOM     17  H   UNL     1      44.748   1.061   9.125  0.00  0.00    +0.000 HD
ENDBRANCH   9  10
ENDBRANCH   8   9
ENDBRANCH   5   8
ENDBRANCH   1   2
BRANCH   1  20
ATOM     18  O   UNL     1      50.140   6.528  15.457  0.00  0.00    +0.000 OA
ATOM     19  C   UNL     1      49.025   6.383  15.945  0.00  0.00    +0.000 C 
ATOM     20  N   UNL     1      47.874   6.411  15.198  0.00  0.00    +0.000 N 
ATOM     21  H   UNL     1      46.985   6.488  15.677  0.00  0.00    +0.000 HD
BRANCH  19  22
ATOM     22  C   UNL     1      48.841   6.094  17.373  0.00  0.00    +0.000 A 
ATOM     23  C   UNL     1      49.171   4.844  17.879  0.00  0.00    +0.000 A 
ATOM     24  S   UNL     1      48.841   4.675  19.545  0.00  0.00    +0.000 S 
ATOM     25  C   UNL     1      48.296   6.283  19.659  0.00  0.00    +0.000 A 
ATOM     26  N   UNL     1      47.873   6.799  20.844  0.00  0.00    +0.000 NA
ATOM     27  C   UNL     1      47.531   8.043  20.792  0.00  0.00    +0.000 A 
ATOM     28  N   UNL     1      47.567   8.817  19.663  0.00  0.00    +0.000 N 
ATOM     29  C   UNL     1      47.911   8.319  18.431  0.00  0.00    +0.000 A 
ATOM     30  O   UNL     1      47.803   9.004  17.420  0.00  0.00    +0.000 OA
ATOM     31  C   UNL     1      48.347   6.934  18.439  0.00  0.00    +0.000 A 
ATOM     32  H   UNL     1      47.260   9.778  19.681  0.00  0.00    +0.000 HD
ENDBRANCH  19  22
ENDBRANCH   1  20
TORSDOF 6
ENDMDL
MODEL 3
REMARK VINA RESULT:    -7.306      3.270      5.671
REMARK INTER + INTRA:         -10.894
REMARK INTER:                 -10.010
REMARK INTRA:                  -0.884
REMARK UNBOUND:                -1.025
REMARK  Name = 
REMARK  6 active torsions:
REMARK  status: ('A' for Active; 'I' for Inactive)
REMARK    1  A    between atoms: C_2  and  C_20
REMARK    2  A    between atoms: N_3  and  C_4
REMARK    3  A    between atoms: C_4  and  C_5
REMARK    4  A    between atoms: C_8  and  C_9
REMARK    5  A    between atoms: C_9  and  C_10
REMARK    6  A    between atoms: C_10  and  N_11
REMARK                            x       y       z     vdW  Elec       q    Type
REMARK                         _______ _______ _______ _____ _____    ______ ____
ROOT
ATOM      1  C   UNL     1      44.819   2.769   9.993  0.00  0.00    +0.000 C 
ENDROOT
BRANCH   1   2
ATOM      2  C   UNL     1      45.494   2.473   8.681  0.00  0.00    +0.000 A 
ATOM      3  C   UNL     1      45.567   3.470   7.707  0.00  0.00    +0.000 A 
ATOM      4  C   UNL     1      46.199   3.228   6.487  0.00  0.00    +0.000 A 
ATOM      5  C   UNL     1      46.769   1.980   6.199  0.00  0.00    +0.000 A 
ATOM      6  C   UNL     1      46.669   0.971   7.169  0.00  0.00    +0.000 A 
ATOM      7  C   UNL     1      46.031   1.211   8.394  0.00  0.00    +0.000 A 
BRANCH   5   8
ATOM      8  C   UNL     1      47.483   1.681   4.892  0.00  0.00    +0.000 C 
BRANCH   8   9
ATOM      9  C   UNL     1      46.615   0.993   3.831  0.00  0.00    +0.000 C 
BRANCH   9  10
ATOM     10  N   UNL     1      47.414   0.251   2.850  0.00  0.00    +0.000 N 
ATOM     11  C   UNL     1      47.319  -1.147   3.058  0.00  0.00    +0.000 A 
ATOM     12  C   UNL     1      48.010  -2.028   2.222  0.00  0.00    +0.000 A 
ATOM     13  N   UNL     1      47.977  -3.381   2.354  0.00  0.00    +0.000 NA
ATOM     14  C   UNL     1      47.200  -3.834   3.361  0.00  0.00    +0.000 A 
ATOM     15  C   UNL     1      46.500  -2.982   4.189  0.00  0.00    +0.000 A 
ATOM     16  N   UNL     1      46.544  -1.637   4.051  0.00  0.00    +0.000 NA
ATOM     17  H   UNL     1      48.396   0.513   2.877  0.00  0.00    +0.000 HD
ENDBRANCH   9  10
ENDBRANCH   8   9
ENDBRANCH   5   8
ENDBRANCH   1   2
BRANCH   1  20
ATOM     18  O   UNL     1      43.308   4.806  11.260  0.00  0.00    +0.000 OA
ATOM     19  C   UNL     1      44.530   4.888  11.235  0.00  0.00    +0.000 C 
ATOM     20  N   UNL     1      45.326   3.976  10.588  0.00  0.00    +0.000 N 
ATOM     21  H   UNL     1      46.323   3.983  10.772  0.00  0.00    +0.000 HD
BRANCH  19  22
ATOM     22  C   UNL     1      45.240   6.022  11.842  0.00  0.00    +0.000 A 
ATOM     23  C   UNL     1      45.008   7.313  11.386  0.00  0.00    +0.000 A 
ATOM     24  S   UNL     1      45.958   8.494  12.172  0.00  0.00    +0.000 S 
ATOM     25  C   UNL     1      46.673   7.327  13.184  0.00  0.00    +0.000 A 
ATOM     26  N   UNL     1      47.588   7.680  14.126  0.00  0.00    +0.000 NA
ATOM     27  C   UNL     1      48.012   6.700  14.852  0.00  0.00    +0.000 A 
ATOM     28  N   UNL     1      47.609   5.398  14.719  0.00  0.00    +0.000 N 
ATOM     29  C   UNL     1      46.749   4.983  13.733  0.00  0.00    +0.000 A 
ATOM     30  O   UNL     1      46.515   3.792  13.559  0.00  0.00    +0.000 OA
ATOM     31  C   UNL     1      46.207   6.052  12.914  0.00  0.00    +0.000 A 
ATOM     32  H   UNL     1      47.999   4.671  15.300  0.00  0.00    +0.000 HD
ENDBRANCH  19  22
ENDBRANCH   1  20
TORSDOF 6
ENDMDL
MODEL 4
REMARK VINA RESULT:    -7.286      2.884      8.617
REMARK INTER + INTRA:         -10.867
REMARK INTER:                  -9.591
REMARK INTRA:                  -1.276
REMARK UNBOUND:                -1.025
REMARK  Name = 
REMARK  6 active torsions:
REMARK  status: ('A' for Active; 'I' for Inactive)
REMARK    1  A    between atoms: C_2  and  C_20
REMARK    2  A    between atoms: N_3  and  C_4
REMARK    3  A    between atoms: C_4  and  C_5
REMARK    4  A    between atoms: C_8  and  C_9
REMARK    5  A    between atoms: C_9  and  C_10
REMARK    6  A    between atoms: C_10  and  N_11
REMARK                            x       y       z     vdW  Elec       q    Type
REMARK                         _______ _______ _______ _____ _____    ______ ____
ROOT
ATOM      1  C   UNL     1      47.784   7.665  11.795  0.00  0.00    +0.000 C 
ENDROOT
BRANCH   1   2
ATOM      2  C   UNL     1      48.232   7.876  13.216  0.00  0.00    +0.000 A 
ATOM      3  C   UNL     1      49.243   7.071  13.743  0.00  0.00    +0.000 A 
ATOM      4  C   UNL     1      49.688   7.254  15.053  0.00  0.00    +0.000 A 
ATOM      5  C   UNL     1      49.130   8.240  15.879  0.00  0.00    +0.000 A 
ATOM      6  C   UNL     1      48.094   9.029  15.355  0.00  0.00    +0.000 A 
ATOM      7  C   UNL     1      47.643   8.844  14.041  0.00  0.00    +0.000 A 
BRANCH   5   8
ATOM      8  C   UNL     1      49.598   8.485  17.303  0.00  0.00    +0.000 C 
BRANCH   8   9
ATOM      9  C   UNL     1      49.402   7.298  18.255  0.00  0.00    +0.000 C 
BRANCH   9  10
ATOM     10  N   UNL     1      48.066   6.704  18.139  0.00  0.00    +0.000 N 
ATOM     11  C   UNL     1      48.139   5.327  17.817  0.00  0.00    +0.000 A 
ATOM     12  C   UNL     1      46.967   4.580  17.665  0.00  0.00    +0.000 A 
ATOM     13  N   UNL     1      46.948   3.257  17.354  0.00  0.00    +0.000 NA
ATOM     14  C   UNL     1      48.165   2.688  17.212  0.00  0.00    +0.000 A 
ATOM     15  C   UNL     1      49.332   3.405  17.371  0.00  0.00    +0.000 A 
ATOM     16  N   UNL     1      49.340   4.723  17.677  0.00  0.00    +0.000 NA
ATOM     17  H   UNL     1      47.499   7.169  17.435  0.00  0.00    +0.000 HD
ENDBRANCH   9  10
ENDBRANCH   8   9
ENDBRANCH   5   8
ENDBRANCH   1   2
BRANCH   1  20
ATOM     18  O   UNL     1      44.952   7.536  11.825  0.00  0.00    +0.000 OA
ATOM     19  C   UNL     1      45.601   6.515  11.632  0.00  0.00    +0.000 C 
ATOM     20  N   UNL     1      46.973   6.485  11.665  0.00  0.00    +0.000 N 
ATOM     21  H   UNL     1      47.451   5.668  11.302  0.00  0.00    +0.000 HD
BRANCH  19  22
ATOM     22  C   UNL     1      44.949   5.215  11.421  0.00  0.00    +0.000 A 
ATOM     23  C   UNL     1      44.191   4.643  12.434  0.00  0.00    +0.000 A 
ATOM     24  S   UNL     1      43.556   3.112  12.028  0.00  0.00    +0.000 S 
ATOM     25  C   UNL     1      44.227   3.185  10.466  0.00  0.00    +0.000 A 
ATOM     26  N   UNL     1      44.041   2.176   9.574  0.00  0.00    +0.000 NA
ATOM     27  C   UNL     1      44.567   2.385   8.413  0.00  0.00    +0.000 A 
ATOM     28  N   UNL     1      45.268   3.509   8.065  0.00  0.00    +0.000 N 
ATOM     29  C   UNL     1      45.547   4.516   8.954  0.00  0.00    +0.000 A 
ATOM     30  O   UNL     1      46.290   5.443   8.646  0.00  0.00    +0.000 OA
ATOM     31  C   UNL     1      44.942   4.352  10.264  0.00  0.00    +0.000 A 
ATOM     32  H   UNL     1      45.680   3.601   7.148  0.00  0.00    +0.000 HD
ENDBRANCH  19  22
ENDBRANCH   1  20
TORSDOF 6
ENDMDL
MODEL 5
REMARK VINA RESULT:    -7.243      4.872      9.281
REMARK INTER + INTRA:         -10.809
REMARK INTER:                 -10.082
REMARK INTRA:                  -0.727
REMARK UNBOUND:                -1.025
REMARK  Name = 
REMARK  6 active torsions:
REMARK  status: ('A' for Active; 'I' for Inactive)
REMARK    1  A    between atoms: C_2  and  C_20
REMARK    2  A    between atoms: N_3  and  C_4
REMARK    3  A    between atoms: C_4  and  C_5
REMARK    4  A    between atoms: C_8  and  C_9
REMARK    5  A    between atoms: C_9  and  C_10
REMARK    6  A    between atoms: C_10  and  N_11
REMARK                            x       y       z     vdW  Elec       q    Type
REMARK                         _______ _______ _______ _____ _____    ______ ____
ROOT
ATOM      1  C   UNL     1      47.230   3.383  16.944  0.00  0.00    +0.000 C 
ENDROOT
BRANCH   1   2
ATOM      2  C   UNL     1      48.708   3.294  17.218  0.00  0.00    +0.000 A 
ATOM      3  C   UNL     1      49.372   4.395  17.760  0.00  0.00    +0.000 A 
ATOM      4  C   UNL     1      50.738   4.336  18.040  0.00  0.00    +0.000 A 
ATOM      5  C   UNL     1      51.483   3.178  17.776  0.00  0.00    +0.000 A 
ATOM      6  C   UNL     1      50.818   2.082  17.205  0.00  0.00    +0.000 A 
ATOM      7  C   UNL     1      49.447   2.142  16.921  0.00  0.00    +0.000 A 
BRANCH   5   8
ATOM      8  C   UNL     1      52.967   3.064  18.082  0.00  0.00    +0.000 C 
BRANCH   8   9
ATOM      9  C   UNL     1      53.635   1.792  17.547  0.00  0.00    +0.000 C 
BRANCH   9  10
ATOM     10  N   UNL     1      53.752   0.748  18.571  0.00  0.00    +0.000 N 
ATOM     11  C   UNL     1      54.248  -0.460  18.024  0.00  0.00    +0.000 A 
ATOM     12  C   UNL     1      54.432  -1.577  18.844  0.00  0.00    +0.000 A 
ATOM     13  N   UNL     1      54.899  -2.774  18.400  0.00  0.00    +0.000 NA
ATOM     14  C   UNL     1      55.198  -2.814  17.083  0.00  0.00    +0.000 A 
ATOM     15  C   UNL     1      55.036  -1.719  16.260  0.00  0.00    +0.000 A 
ATOM     16  N   UNL     1      54.566  -0.534  16.712  0.00  0.00    +0.000 NA
ATOM     17  H   UNL     1      52.862   0.554  19.024  0.00  0.00    +0.000 HD
ENDBRANCH   9  10
ENDBRANCH   8   9
ENDBRANCH   5   8
ENDBRANCH   1   2
BRANCH   1  20
ATOM     18  O   UNL     1      47.300   3.034  14.131  0.00  0.00    +0.000 OA
ATOM     19  C   UNL     1      46.938   4.107  14.597  0.00  0.00    +0.000 C 
ATOM     20  N   UNL     1      46.937   4.374  15.943  0.00  0.00    +0.000 N 
ATOM     21  H   UNL     1      46.443   5.193  16.277  0.00  0.00    +0.000 HD
BRANCH  19  22
ATOM     22  C   UNL     1      46.543   5.229  13.734  0.00  0.00    +0.000 A 
ATOM     23  C   UNL     1      47.402   6.304  13.552  0.00  0.00    +0.000 A 
ATOM     24  S   UNL     1      46.754   7.533  12.561  0.00  0.00    +0.000 S 
ATOM     25  C   UNL     1      45.325   6.647  12.299  0.00  0.00    +0.000 A 
ATOM     26  N   UNL     1      44.332   7.133  11.507  0.00  0.00    +0.000 NA
ATOM     27  C   UNL     1      43.327   6.335  11.359  0.00  0.00    +0.000 A 
ATOM     28  N   UNL     1      43.222   5.098  11.937  0.00  0.00    +0.000 N 
ATOM     29  C   UNL     1      44.161   4.600  12.804  0.00  0.00    +0.000 A 
ATOM     30  O   UNL     1      43.970   3.549  13.407  0.00  0.00    +0.000 OA
ATOM     31  C   UNL     1      45.334   5.439  12.972  0.00  0.00    +0.000 A 
ATOM     32  H   UNL     1      42.396   4.532  11.806  0.00  0.00    +0.000 HD
ENDBRANCH  19  22
ENDBRANCH   1  20
TORSDOF 6
ENDMDL
MODEL 6
REMARK VINA RESULT:    -7.029      4.200      8.684
REMARK INTER + INTRA:         -10.520
REMARK INTER:                  -9.512
REMARK INTRA:                  -1.008
REMARK UNBOUND:                -1.025
REMARK  Name = 
REMARK  6 active torsions:
REMARK  status: ('A' for Active; 'I' for Inactive)
REMARK    1  A    between atoms: C_2  and  C_20
REMARK    2  A    between atoms: N_3  and  C_4
REMARK    3  A    between atoms: C_4  and  C_5
REMARK    4  A    between atoms: C_8  and  C_9
REMARK    5  A    between atoms: C_9  and  C_10
REMARK    6  A    between atoms: C_10  and  N_11
REMARK                            x       y       z     vdW  Elec       q    Type
REMARK                         _______ _______ _______ _____ _____    ______ ____
ROOT
ATOM      1  C   UNL     1      47.166   3.505  16.827  0.00  0.00    +0.000 C 
ENDROOT
BRANCH   1   2
ATOM      2  C   UNL     1      48.643   3.537  17.114  0.00  0.00    +0.000 A 
ATOM      3  C   UNL     1      49.251   4.749  17.443  0.00  0.00    +0.000 A 
ATOM      4  C   UNL     1      50.616   4.807  17.729  0.00  0.00    +0.000 A 
ATOM      5  C   UNL     1      51.416   3.657  17.682  0.00  0.00    +0.000 A 
ATOM      6  C   UNL     1      50.807   2.444  17.323  0.00  0.00    +0.000 A 
ATOM      7  C   UNL     1      49.437   2.386  17.033  0.00  0.00    +0.000 A 
BRANCH   5   8
ATOM      8  C   UNL     1      52.901   3.671  18.004  0.00  0.00    +0.000 C 
BRANCH   8   9
ATOM      9  C   UNL     1      53.566   5.049  17.894  0.00  0.00    +0.000 C 
BRANCH   9  10
ATOM     10  N   UNL     1      54.493   5.133  16.761  0.00  0.00    +0.000 N 
ATOM     11  C   UNL     1      54.112   6.154  15.856  0.00  0.00    +0.000 A 
ATOM     12  C   UNL     1      54.873   6.393  14.708  0.00  0.00    +0.000 A 
ATOM     13  N   UNL     1      54.576   7.348  13.788  0.00  0.00    +0.000 NA
ATOM     14  C   UNL     1      53.478   8.084  14.067  0.00  0.00    +0.000 A 
ATOM     15  C   UNL     1      52.722   7.872  15.201  0.00  0.00    +0.000 A 
ATOM     16  N   UNL     1      53.024   6.915  16.108  0.00  0.00    +0.000 NA
ATOM     17  H   UNL     1      54.555   4.257  16.249  0.00  0.00    +0.000 HD
ENDBRANCH   9  10
ENDBRANCH   8   9
ENDBRANCH   5   8
ENDBRANCH   1   2
BRANCH   1  20
ATOM     18  O   UNL     1      47.238   3.078  14.026  0.00  0.00    +0.000 OA
ATOM     19  C   UNL     1      46.814   4.140  14.464  0.00  0.00    +0.000 C 
ATOM     20  N   UNL     1      46.805   4.445  15.802  0.00  0.00    +0.000 N 
ATOM     21  H   UNL     1      46.262   5.242  16.116  0.00  0.00    +0.000 HD
BRANCH  19  22
ATOM     22  C   UNL     1      46.343   5.210  13.572  0.00  0.00    +0.000 A 
ATOM     23  C   UNL     1      47.162   6.295  13.294  0.00  0.00    +0.000 A 
ATOM     24  S   UNL     1      46.430   7.460  12.284  0.00  0.00    +0.000 S 
ATOM     25  C   UNL     1      45.014   6.528  12.141  0.00  0.00    +0.000 A 
ATOM     26  N   UNL     1      43.968   6.951  11.382  0.00  0.00    +0.000 NA
ATOM     27  C   UNL     1      42.978   6.123  11.326  0.00  0.00    +0.000 A 
ATOM     28  N   UNL     1      42.936   4.913  11.965  0.00  0.00    +0.000 N 
ATOM     29  C   UNL     1      43.933   4.479  12.803  0.00  0.00    +0.000 A 
ATOM     30  O   UNL     1      43.802   3.454  13.463  0.00  0.00    +0.000 OA
ATOM     31  C   UNL     1      45.091   5.353  12.868  0.00  0.00    +0.000 A 
ATOM     32  H   UNL     1      42.120   4.321  11.905  0.00  0.00    +0.000 HD
ENDBRANCH  19  22
ENDBRANCH   1  20
TORSDOF 6
ENDMDL
MODEL 7
REMARK VINA RESULT:    -6.866      3.843      8.061
REMARK INTER + INTRA:         -10.300
REMARK INTER:                  -8.807
REMARK INTRA:                  -1.492
REMARK UNBOUND:                -1.025
REMARK  Name = 
REMARK  6 active torsions:
REMARK  status: ('A' for Active; 'I' for Inactive)
REMARK    1  A    between atoms: C_2  and  C_20
REMARK    2  A    between atoms: N_3  and  C_4
REMARK    3  A    between atoms: C_4  and  C_5
REMARK    4  A    between atoms: C_8  and  C_9
REMARK    5  A    between atoms: C_9  and  C_10
REMARK    6  A    between atoms: C_10  and  N_11
REMARK                            x       y       z     vdW  Elec       q    Type
REMARK                         _______ _______ _______ _____ _____    ______ ____
ROOT
ATOM      1  C   UNL     1      48.194   9.553  15.568  0.00  0.00    +0.000 C 
ENDROOT
BRANCH   1   2
ATOM      2  C   UNL     1      48.744   8.744  16.713  0.00  0.00    +0.000 A 
ATOM      3  C   UNL     1      48.127   8.817  17.962  0.00  0.00    +0.000 A 
ATOM      4  C   UNL     1      48.605   8.066  19.037  0.00  0.00    +0.000 A 
ATOM      5  C   UNL     1      49.722   7.230  18.899  0.00  0.00    +0.000 A 
ATOM      6  C   UNL     1      50.357   7.181  17.649  0.00  0.00    +0.000 A 
ATOM      7  C   UNL     1      49.879   7.936  16.569  0.00  0.00    +0.000 A 
BRANCH   5   8
ATOM      8  C   UNL     1      50.264   6.382  20.037  0.00  0.00    +0.000 C 
BRANCH   8   9
ATOM      9  C   UNL     1      49.768   4.931  20.047  0.00  0.00    +0.000 C 
BRANCH   9  10
ATOM     10  N   UNL     1      50.577   4.059  19.189  0.00  0.00    +0.000 N 
ATOM     11  C   UNL     1      49.783   3.427  18.200  0.00  0.00    +0.000 A 
ATOM     12  C   UNL     1      50.373   2.555  17.280  0.00  0.00    +0.000 A 
ATOM     13  N   UNL     1      49.685   1.907  16.304  0.00  0.00    +0.000 NA
ATOM     14  C   UNL     1      48.362   2.177  16.265  0.00  0.00    +0.000 A 
ATOM     15  C   UNL     1      47.764   3.045  17.155  0.00  0.00    +0.000 A 
ATOM     16  N   UNL     1      48.458   3.681  18.126  0.00  0.00    +0.000 NA
ATOM     17  H   UNL     1      51.061   3.339  19.720  0.00  0.00    +0.000 HD
ENDBRANCH   9  10
ENDBRANCH   8   9
ENDBRANCH   5   8
ENDBRANCH   1   2
BRANCH   1  20
ATOM     18  O   UNL     1      48.653   8.532  12.964  0.00  0.00    +0.000 OA
ATOM     19  C   UNL     1      47.600   8.277  13.535  0.00  0.00    +0.000 C 
ATOM     20  N   UNL     1      47.279   8.784  14.769  0.00  0.00    +0.000 N 
ATOM     21  H   UNL     1      46.496   8.381  15.272  0.00  0.00    +0.000 HD
BRANCH  19  22
ATOM     22  C   UNL     1      46.559   7.456  12.902  0.00  0.00    +0.000 A 
ATOM     23  C   UNL     1      45.623   8.044  12.063  0.00  0.00    +0.000 A 
ATOM     24  S   UNL     1      44.461   6.947  11.462  0.00  0.00    +0.000 S 
ATOM     25  C   UNL     1      45.201   5.639  12.260  0.00  0.00    +0.000 A 
ATOM     26  N   UNL     1      44.706   4.378  12.148  0.00  0.00    +0.000 NA
ATOM     27  C   UNL     1      45.394   3.478  12.769  0.00  0.00    +0.000 A 
ATOM     28  N   UNL     1      46.527   3.725  13.497  0.00  0.00    +0.000 N 
ATOM     29  C   UNL     1      47.018   4.990  13.702  0.00  0.00    +0.000 A 
ATOM     30  O   UNL     1      47.955   5.187  14.468  0.00  0.00    +0.000 OA
ATOM     31  C   UNL     1      46.307   6.037  12.990  0.00  0.00    +0.000 A 
ATOM     32  H   UNL     1      47.005   2.980  13.983  0.00  0.00    +0.000 HD
ENDBRANCH  19  22
ENDBRANCH   1  20
TORSDOF 6
ENDMDL
MODEL 8
REMARK VINA RESULT:    -6.775      4.408      6.807
REMARK INTER + INTRA:         -10.176
REMARK INTER:                  -9.509
REMARK INTRA:                  -0.667
REMARK UNBOUND:                -1.025
REMARK  Name = 
REMARK  6 active torsions:
REMARK  status: ('A' for Active; 'I' for Inactive)
REMARK    1  A    between atoms: C_2  and  C_20
REMARK    2  A    between atoms: N_3  and  C_4
REMARK    3  A    between atoms: C_4  and  C_5
REMARK    4  A    between atoms: C_8  and  C_9
REMARK    5  A    between atoms: C_9  and  C_10
REMARK    6  A    between atoms: C_10  and  N_11
REMARK                            x       y       z     vdW  Elec       q    Type
REMARK                         _______ _______ _______ _____ _____    ______ ____
ROOT
ATOM      1  C   UNL     1      46.315   4.640  14.030  0.00  0.00    +0.000 C 
ENDROOT
BRANCH   1   2
ATOM      2  C   UNL     1      45.954   5.893  13.278  0.00  0.00    +0.000 A 
ATOM      3  C   UNL     1      44.783   5.923  12.518  0.00  0.00    +0.000 A 
ATOM      4  C   UNL     1      44.415   7.076  11.823  0.00  0.00    +0.000 A 
ATOM      5  C   UNL     1      45.211   8.229  11.857  0.00  0.00    +0.000 A 
ATOM      6  C   UNL     1      46.401   8.186  12.599  0.00  0.00    +0.000 A 
ATOM      7  C   UNL     1      46.774   7.029  13.295  0.00  0.00    +0.000 A 
BRANCH   5   8
ATOM      8  C   UNL     1      44.838   9.511  11.131  0.00  0.00    +0.000 C 
BRANCH   8   9
ATOM      9  C   UNL     1      43.330   9.729  10.952  0.00  0.00    +0.000 C 
BRANCH   9  10
ATOM     10  N   UNL     1      42.781  10.665  11.939  0.00  0.00    +0.000 N 
ATOM     11  C   UNL     1      41.416  10.944  11.683  0.00  0.00    +0.000 A 
ATOM     12  C   UNL     1      40.710  11.815  12.517  0.00  0.00    +0.000 A 
ATOM     13  N   UNL     1      39.402  12.139  12.341  0.00  0.00    +0.000 NA
ATOM     14  C   UNL     1      38.804  11.537  11.289  0.00  0.00    +0.000 A 
ATOM     15  C   UNL     1      39.480  10.664  10.462  0.00  0.00    +0.000 A 
ATOM     16  N   UNL     1      40.783  10.353  10.645  0.00  0.00    +0.000 NA
ATOM     17  H   UNL     1      43.290  11.545  11.959  0.00  0.00    +0.000 HD
ENDBRANCH   9  10
ENDBRANCH   8   9
ENDBRANCH   5   8
ENDBRANCH   1   2
BRANCH   1  20
ATOM     18  O   UNL     1      46.583   3.491  16.607  0.00  0.00    +0.000 OA
ATOM     19  C   UNL     1      47.460   4.234  16.184  0.00  0.00    +0.000 C 
ATOM     20  N   UNL     1      47.373   4.877  14.974  0.00  0.00    +0.000 N 
ATOM     21  H   UNL     1      48.206   5.310  14.593  0.00  0.00    +0.000 HD
BRANCH  19  22
ATOM     22  C   UNL     1      48.651   4.554  16.982  0.00  0.00    +0.000 A 
ATOM     23  C   UNL     1      48.777   5.802  17.577  0.00  0.00    +0.000 A 
ATOM     24  S   UNL     1      50.247   6.011  18.418  0.00  0.00    +0.000 S 
ATOM     25  C   UNL     1      50.742   4.423  18.061  0.00  0.00    +0.000 A 
ATOM     26  N   UNL     1      51.932   3.941  18.511  0.00  0.00    +0.000 NA
ATOM     27  C   UNL     1      52.158   2.707  18.205  0.00  0.00    +0.000 A 
ATOM     28  N   UNL     1      51.305   1.912  17.485  0.00  0.00    +0.000 N 
ATOM     29  C   UNL     1      50.133   2.378  16.945  0.00  0.00    +0.000 A 
ATOM     30  O   UNL     1      49.461   1.678  16.194  0.00  0.00    +0.000 OA
ATOM     31  C   UNL     1      49.808   3.749  17.295  0.00  0.00    +0.000 A 
ATOM     32  H   UNL     1      51.552   0.961  17.253  0.00  0.00    +0.000 HD
ENDBRANCH  19  22
ENDBRANCH   1  20
TORSDOF 6
ENDMDL
MODEL 9
REMARK VINA RESULT:    -6.738      4.210     10.430
REMARK INTER + INTRA:         -10.127
REMARK INTER:                  -9.333
REMARK INTRA:                  -0.794
REMARK UNBOUND:                -1.025
REMARK  Name = 
REMARK  6 active torsions:
REMARK  status: ('A' for Active; 'I' for Inactive)
REMARK    1  A    between atoms: C_2  and  C_20
REMARK    2  A    between atoms: N_3  and  C_4
REMARK    3  A    between atoms: C_4  and  C_5
REMARK    4  A    between atoms: C_8  and  C_9
REMARK    5  A    between atoms: C_9  and  C_10
REMARK    6  A    between atoms: C_10  and  N_11
REMARK                            x       y       z     vdW  Elec       q    Type
REMARK                         _______ _______ _______ _____ _____    ______ ____
ROOT
ATOM      1  C   UNL     1      47.547   3.614  16.582  0.00  0.00    +0.000 C 
ENDROOT
BRANCH   1   2
ATOM      2  C   UNL     1      47.725   4.275  17.922  0.00  0.00    +0.000 A 
ATOM      3  C   UNL     1      48.605   3.717  18.851  0.00  0.00    +0.000 A 
ATOM      4  C   UNL     1      48.801   4.317  20.095  0.00  0.00    +0.000 A 
ATOM      5  C   UNL     1      48.115   5.485  20.454  0.00  0.00    +0.000 A 
ATOM      6  C   UNL     1      47.210   6.028  19.529  0.00  0.00    +0.000 A 
ATOM      7  C   UNL     1      47.009   5.425  18.280  0.00  0.00    +0.000 A 
BRANCH   5   8
ATOM      8  C   UNL     1      48.313   6.181  21.791  0.00  0.00    +0.000 C 
BRANCH   8   9
ATOM      9  C   UNL     1      48.457   7.705  21.704  0.00  0.00    +0.000 C 
BRANCH   9  10
ATOM     10  N   UNL     1      47.300   8.409  22.266  0.00  0.00    +0.000 N 
ATOM     11  C   UNL     1      46.906   9.495  21.446  0.00  0.00    +0.000 A 
ATOM     12  C   UNL     1      45.817  10.290  21.812  0.00  0.00    +0.000 A 
ATOM     13  N   UNL     1      45.376  11.351  21.085  0.00  0.00    +0.000 NA
ATOM     14  C   UNL     1      46.065  11.585  19.947  0.00  0.00    +0.000 A 
ATOM     15  C   UNL     1      47.134  10.804  19.562  0.00  0.00    +0.000 A 
ATOM     16  N   UNL     1      47.567   9.753  20.296  0.00  0.00    +0.000 NA
ATOM     17  H   UNL     1      47.483   8.763  23.201  0.00  0.00    +0.000 HD
ENDBRANCH   9  10
ENDBRANCH   8   9
ENDBRANCH   5   8
ENDBRANCH   1   2
BRANCH   1  20
ATOM     18  O   UNL     1      47.194   3.142  13.809  0.00  0.00    +0.000 OA
ATOM     19  C   UNL     1      46.789   4.189  14.299  0.00  0.00    +0.000 C 
ATOM     20  N   UNL     1      46.978   4.517  15.618  0.00  0.00    +0.000 N 
ATOM     21  H   UNL     1      46.451   5.291  16.007  0.00  0.00    +0.000 HD
BRANCH  19  22
ATOM     22  C   UNL     1      46.127   5.216  13.484  0.00  0.00    +0.000 A 
ATOM     23  C   UNL     1      46.731   6.452  13.294  0.00  0.00    +0.000 A 
ATOM     24  S   UNL     1      45.793   7.534  12.365  0.00  0.00    +0.000 S 
ATOM     25  C   UNL     1      44.572   6.370  12.140  0.00  0.00    +0.000 A 
ATOM     26  N   UNL     1      43.463   6.649  11.403  0.00  0.00    +0.000 NA
ATOM     27  C   UNL     1      42.643   5.660  11.277  0.00  0.00    +0.000 A 
ATOM     28  N   UNL     1      42.827   4.418  11.825  0.00  0.00    +0.000 N 
ATOM     29  C   UNL     1      43.890   4.115  12.638  0.00  0.00    +0.000 A 
ATOM     30  O   UNL     1      43.952   3.037  13.220  0.00  0.00    +0.000 OA
ATOM     31  C   UNL     1      44.867   5.179  12.780  0.00  0.00    +0.000 A 
ATOM     32  H   UNL     1      42.134   3.693  11.713  0.00  0.00    +0.000 HD
ENDBRANCH  19  22
ENDBRANCH   1  20
TORSDOF 6
ENDMDL
