MODEL 1
REMARK VINA RESULT:    -8.469      0.000      0.000
REMARK INTER + INTRA:         -13.737
REMARK INTER:                 -12.677
REMARK INTRA:                  -1.060
REMARK UNBOUND:                -1.060
REMARK  Name = 
REMARK  9 active torsions:
REMARK  status: ('A' for Active; 'I' for Inactive)
REMARK    1  A    between atoms: N_1  and  C_2
REMARK    2  A    between atoms: C_2  and  C_3
REMARK    3  A    between atoms: C_3  and  N_4
REMARK    4  A    between atoms: C_3  and  C_12
REMARK    5  A    between atoms: N_4  and  C_5
REMARK    6  A    between atoms: C_5  and  C_6
REMARK    7  A    between atoms: C_15  and  C_16
REMARK    8  A    between atoms: C_16  and  N_17
REMARK    9  A    between atoms: C_18  and  C_20
REMARK                            x       y       z     vdW  Elec       q    Type
REMARK                         _______ _______ _______ _____ _____    ______ ____
ROOT
ATOM      1  C   UNL     1      45.194   4.798  11.944  0.00  0.00    +0.000 A 
ATOM      2  C   UNL     1      45.747   5.985  11.429  0.00  0.00    +0.000 A 
ATOM      3  C   UNL     1      46.803   6.635  12.077  0.00  0.00    +0.000 A 
ATOM      4  C   UNL     1      47.373   6.085  13.229  0.00  0.00    +0.000 A 
ATOM      5  C   UNL     1      46.829   4.905  13.748  0.00  0.00    +0.000 A 
ATOM      6  C   UNL     1      45.748   4.276  13.122  0.00  0.00    +0.000 A 
ENDROOT
BRANCH   1   7
ATOM      7  C   UNL     1      43.975   4.171  11.255  0.00  0.00    +0.000 C 
BRANCH   7   8
ATOM      8  N   UNL     1      44.184   3.969   9.807  0.00  0.00    +0.000 NA
ATOM      9  H   UNL     1      44.923   4.585   9.478  0.00  0.00    +0.000 HD
BRANCH   8  10
ATOM     10  C   UNL     1      44.489   2.588   9.444  0.00  0.00    +0.000 C 
BRANCH  10  11
ATOM     11  C   UNL     1      45.568   2.487   8.393  0.00  0.00    +0.000 A 
ATOM     12  C   UNL     1      45.955   3.628   7.670  0.00  0.00    +0.000 A 
ATOM     13  C   UNL     1      47.000   3.559   6.747  0.00  0.00    +0.000 A 
ATOM     14  C   UNL     1      47.664   2.353   6.537  0.00  0.00    +0.000 A 
ATOM     15  C   UNL     1      47.278   1.212   7.239  0.00  0.00    +0.000 A 
ATOM     16  C   UNL     1      46.233   1.277   8.162  0.00  0.00    +0.000 A 
ENDBRANCH  10  11
ENDBRANCH   8  10
ENDBRANCH   7   8
BRANCH   7  17
ATOM     17  C   UNL     1      42.667   5.006  11.512  0.00  0.00    +0.000 C 
BRANCH  17  18
ATOM     18  N   UNL     1      42.464   5.473  12.889  0.00  0.00    +0.000 NA
ATOM     19  H   UNL     1      43.200   6.133  13.133  0.00  0.00    +0.000 HD
ATOM     20  H   UNL     1      42.540   4.689  13.533  0.00  0.00    +0.000 HD
ENDBRANCH  17  18
ENDBRANCH   7  17
ENDBRANCH   1   7
BRANCH   4  21
ATOM     21  C   UNL     1      48.535   6.752  13.915  0.00  0.00    +0.000 C 
BRANCH  21  22
ATOM     22  N   UNL     1      48.286   6.965  15.319  0.00  0.00    +0.000 N 
ATOM     23  C   UNL     1      49.227   6.608  16.252  0.00  0.00    +0.000 C 
ATOM     24  O   UNL     1      50.318   6.146  15.925  0.00  0.00    +0.000 OA
ATOM     25  H   UNL     1      47.327   7.133  15.609  0.00  0.00    +0.000 HD
BRANCH  23  26
ATOM     26  C   UNL     1      48.898   6.854  17.661  0.00  0.00    +0.000 A 
ATOM     27  C   UNL     1      48.716   8.159  18.101  0.00  0.00    +0.000 A 
ATOM     28  S   UNL     1      48.318   8.277  19.753  0.00  0.00    +0.000 S 
ATOM     29  C   UNL     1      48.425   6.591  19.955  0.00  0.00    +0.000 A 
ATOM     30  N   UNL     1      48.229   6.019  21.172  0.00  0.00    +0.000 NA
ATOM     31  C   UNL     1      48.375   4.736  21.189  0.00  0.00    +0.000 A 
ATOM     32  N   UNL     1      48.687   3.973  20.092  0.00  0.00    +0.000 N 
ATOM     33  C   UNL     1      48.852   4.502  18.834  0.00  0.00    +0.000 A 
ATOM     34  O   UNL     1      49.066   3.783  17.862  0.00  0.00    +0.000 OA
ATOM     35  C   UNL     1      48.727   5.946  18.768  0.00  0.00    +0.000 A 
ATOM     36  H   UNL     1      48.766   2.970  20.171  0.00  0.00    +0.000 HD
ENDBRANCH  23  26
ENDBRANCH  21  22
ENDBRANCH   4  21
TORSDOF 9
ENDMDL
MODEL 2
REMARK VINA RESULT:    -7.956      2.142      2.795
REMARK INTER + INTRA:         -12.969
REMARK INTER:                 -11.503
REMARK INTRA:                  -1.466
REMARK UNBOUND:                -1.060
REMARK  Name = 
REMARK  9 active torsions:
REMARK  status: ('A' for Active; 'I' for Inactive)
REMARK    1  A    between atoms: N_1  and  C_2
REMARK    2  A    between atoms: C_2  and  C_3
REMARK    3  A    between atoms: C_3  and  N_4
REMARK    4  A    between atoms: C_3  and  C_12
REMARK    5  A    between atoms: N_4  and  C_5
REMARK    6  A    between atoms: C_5  and  C_6
REMARK    7  A    between atoms: C_15  and  C_16
REMARK    8  A    between atoms: C_16  and  N_17
REMARK    9  A    between atoms: C_18  and  C_20
REMARK                            x       y       z     vdW  Elec       q    Type
REMARK                         _______ _______ _______ _____ _____    ______ ____
ROOT
ATOM      1  C   UNL     1      45.439   4.913  12.244  0.00  0.00    +0.000 A 
ATOM      2  C   UNL     1      46.224   4.790  13.405  0.00  0.00    +0.000 A 
ATOM      3  C   UNL     1      47.333   5.614  13.624  0.00  0.00    +0.000 A 
ATOM      4  C   UNL     1      47.656   6.624  12.713  0.00  0.00    +0.000 A 
ATOM      5  C   UNL     1      46.881   6.754  11.554  0.00  0.00    +0.000 A 
ATOM      6  C   UNL     1      45.796   5.904  11.317  0.00  0.00    +0.000 A 
ENDROOT
BRANCH   1   7
ATOM      7  C   UNL     1      44.291   3.926  11.998  0.00  0.00    +0.000 C 
BRANCH   7   8
ATOM      8  N   UNL     1      44.711   2.759  11.194  0.00  0.00    +0.000 NA
ATOM      9  H   UNL     1      44.415   1.902  11.655  0.00  0.00    +0.000 HD
BRANCH   8  10
ATOM     10  C   UNL     1      44.214   2.783   9.821  0.00  0.00    +0.000 C 
BRANCH  10  11
ATOM     11  C   UNL     1      45.325   2.736   8.799  0.00  0.00    +0.000 A 
ATOM     12  C   UNL     1      45.928   1.510   8.471  0.00  0.00    +0.000 A 
ATOM     13  C   UNL     1      46.905   1.447   7.477  0.00  0.00    +0.000 A 
ATOM     14  C   UNL     1      47.290   2.605   6.805  0.00  0.00    +0.000 A 
ATOM     15  C   UNL     1      46.707   3.828   7.134  0.00  0.00    +0.000 A 
ATOM     16  C   UNL     1      45.731   3.895   8.128  0.00  0.00    +0.000 A 
ENDBRANCH  10  11
ENDBRANCH   8  10
ENDBRANCH   7   8
BRANCH   7  17
ATOM     17  C   UNL     1      43.047   4.629  11.341  0.00  0.00    +0.000 C 
BRANCH  17  18
ATOM     18  N   UNL     1      42.400   5.672  12.147  0.00  0.00    +0.000 NA
ATOM     19  H   UNL     1      41.757   5.238  12.807  0.00  0.00    +0.000 HD
ATOM     20  H   UNL     1      41.845   6.276  11.545  0.00  0.00    +0.000 HD
ENDBRANCH  17  18
ENDBRANCH   7  17
ENDBRANCH   1   7
BRANCH   4  21
ATOM     21  C   UNL     1      48.822   7.544  12.954  0.00  0.00    +0.000 C 
BRANCH  21  22
ATOM     22  N   UNL     1      49.762   6.991  13.898  0.00  0.00    +0.000 N 
ATOM     23  C   UNL     1      50.460   7.816  14.744  0.00  0.00    +0.000 C 
ATOM     24  O   UNL     1      50.275   9.031  14.761  0.00  0.00    +0.000 OA
ATOM     25  H   UNL     1      50.080   6.039  13.745  0.00  0.00    +0.000 HD
BRANCH  23  26
ATOM     26  C   UNL     1      51.401   7.178  15.673  0.00  0.00    +0.000 A 
ATOM     27  C   UNL     1      52.751   7.500  15.606  0.00  0.00    +0.000 A 
ATOM     28  S   UNL     1      53.707   6.693  16.762  0.00  0.00    +0.000 S 
ATOM     29  C   UNL     1      52.360   5.845  17.363  0.00  0.00    +0.000 A 
ATOM     30  N   UNL     1      52.496   4.936  18.364  0.00  0.00    +0.000 NA
ATOM     31  C   UNL     1      51.400   4.340  18.699  0.00  0.00    +0.000 A 
ATOM     32  N   UNL     1      50.177   4.583  18.128  0.00  0.00    +0.000 N 
ATOM     33  C   UNL     1      49.983   5.522  17.143  0.00  0.00    +0.000 A 
ATOM     34  O   UNL     1      48.863   5.761  16.699  0.00  0.00    +0.000 OA
ATOM     35  C   UNL     1      51.191   6.198  16.711  0.00  0.00    +0.000 A 
ATOM     36  H   UNL     1      49.354   4.096  18.452  0.00  0.00    +0.000 HD
ENDBRANCH  23  26
ENDBRANCH  21  22
ENDBRANCH   4  21
TORSDOF 9
ENDMDL
MODEL 3
REMARK VINA RESULT:    -7.485      4.080      6.045
REMARK INTER + INTRA:         -12.264
REMARK INTER:                 -11.272
REMARK INTRA:                  -0.992
REMARK UNBOUND:                -1.060
REMARK  Name = 
REMARK  9 active torsions:
REMARK  status: ('A' for Active; 'I' for Inactive)
REMARK    1  A    between atoms: N_1  and  C_2
REMARK    2  A    between atoms: C_2  and  C_3
REMARK    3  A    between atoms: C_3  and  N_4
REMARK    4  A    between atoms: C_3  and  C_12
REMARK    5  A    between atoms: N_4  and  C_5
REMARK    6  A    between atoms: C_5  and  C_6
REMARK    7  A    between atoms: C_15  and  C_16
REMARK    8  A    between atoms: C_16  and  N_17
REMARK    9  A    between atoms: C_18  and  C_20
REMARK                            x       y       z     vdW  Elec       q    Type
REMARK                         _______ _______ _______ _____ _____    ______ ____
ROOT
ATOM      1  C   UNL     1      45.290   4.733  12.113  0.00  0.00    +0.000 A 
ATOM      2  C   UNL     1      45.720   5.951  11.555  0.00  0.00    +0.000 A 
ATOM      3  C   UNL     1      46.781   6.672  12.112  0.00  0.00    +0.000 A 
ATOM      4  C   UNL     1      47.480   6.167  13.212  0.00  0.00    +0.000 A 
ATOM      5  C   UNL     1      47.059   4.957  13.775  0.00  0.00    +0.000 A 
ATOM      6  C   UNL     1      45.974   4.255  13.241  0.00  0.00    +0.000 A 
ENDROOT
BRANCH   1   7
ATOM      7  C   UNL     1      44.061   4.025  11.529  0.00  0.00    +0.000 C 
BRANCH   7   8
ATOM      8  N   UNL     1      44.139   3.874  10.062  0.00  0.00    +0.000 NA
ATOM      9  H   UNL     1      44.825   4.524   9.686  0.00  0.00    +0.000 HD
BRANCH   8  10
ATOM     10  C   UNL     1      44.450   2.516   9.626  0.00  0.00    +0.000 C 
BRANCH  10  11
ATOM     11  C   UNL     1      45.484   2.479   8.526  0.00  0.00    +0.000 A 
ATOM     12  C   UNL     1      45.794   3.649   7.813  0.00  0.00    +0.000 A 
ATOM     13  C   UNL     1      46.798   3.641   6.843  0.00  0.00    +0.000 A 
ATOM     14  C   UNL     1      47.498   2.466   6.577  0.00  0.00    +0.000 A 
ATOM     15  C   UNL     1      47.187   1.297   7.270  0.00  0.00    +0.000 A 
ATOM     16  C   UNL     1      46.184   1.301   8.239  0.00  0.00    +0.000 A 
ENDBRANCH  10  11
ENDBRANCH   8  10
ENDBRANCH   7   8
BRANCH   7  17
ATOM     17  C   UNL     1      42.723   4.743  11.939  0.00  0.00    +0.000 C 
BRANCH  17  18
ATOM     18  N   UNL     1      42.689   5.310  13.293  0.00  0.00    +0.000 NA
ATOM     19  H   UNL     1      41.847   4.994  13.771  0.00  0.00    +0.000 HD
ATOM     20  H   UNL     1      42.637   6.325  13.239  0.00  0.00    +0.000 HD
ENDBRANCH  17  18
ENDBRANCH   7  17
ENDBRANCH   1   7
BRANCH   4  21
ATOM     21  C   UNL     1      48.649   6.912  13.798  0.00  0.00    +0.000 C 
BRANCH  21  22
ATOM     22  N   UNL     1      48.888   8.164  13.123  0.00  0.00    +0.000 N 
ATOM     23  C   UNL     1      49.723   8.216  12.035  0.00  0.00    +0.000 C 
ATOM     24  O   UNL     1      50.249   7.206  11.576  0.00  0.00    +0.000 OA
ATOM     25  H   UNL     1      48.644   9.019  13.614  0.00  0.00    +0.000 HD
BRANCH  23  26
ATOM     26  C   UNL     1      49.917   9.528  11.405  0.00  0.00    +0.000 A 
ATOM     27  C   UNL     1      51.190   9.907  10.998  0.00  0.00    +0.000 A 
ATOM     28  S   UNL     1      51.246  11.445  10.266  0.00  0.00    +0.000 S 
ATOM     29  C   UNL     1      49.580  11.683  10.513  0.00  0.00    +0.000 A 
ATOM     30  N   UNL     1      48.977  12.843  10.141  0.00  0.00    +0.000 NA
ATOM     31  C   UNL     1      47.717  12.904  10.420  0.00  0.00    +0.000 A 
ATOM     32  N   UNL     1      47.004  11.901  11.026  0.00  0.00    +0.000 N 
ATOM     33  C   UNL     1      47.562  10.695  11.381  0.00  0.00    +0.000 A 
ATOM     34  O   UNL     1      46.880   9.794  11.862  0.00  0.00    +0.000 OA
ATOM     35  C   UNL     1      48.984  10.588  11.116  0.00  0.00    +0.000 A 
ATOM     36  H   UNL     1      46.015  12.005  11.195  0.00  0.00    +0.000 HD
ENDBRANCH  23  26
ENDBRANCH  21  22
ENDBRANCH   4  21
TORSDOF 9
ENDMDL
MODEL 4
REMARK VINA RESULT:    -7.368      4.268      6.354
REMARK INTER + INTRA:         -12.090
REMARK INTER:                 -10.927
REMARK INTRA:                  -1.163
REMARK UNBOUND:                -1.060
REMARK  Name = 
REMARK  9 active torsions:
REMARK  status: ('A' for Active; 'I' for Inactive)
REMARK    1  A    between atoms: N_1  and  C_2
REMARK    2  A    between atoms: C_2  and  C_3
REMARK    3  A    between atoms: C_3  and  N_4
REMARK    4  A    between atoms: C_3  and  C_12
REMARK    5  A    between atoms: N_4  and  C_5
REMARK    6  A    between atoms: C_5  and  C_6
REMARK    7  A    between atoms: C_15  and  C_16
REMARK    8  A    between atoms: C_16  and  N_17
REMARK    9  A    between atoms: C_18  and  C_20
REMARK                            x       y       z     vdW  Elec       q    Type
REMARK                         _______ _______ _______ _____ _____    ______ ____
ROOT
ATOM      1  C   UNL     1      45.478   4.946  11.931  0.00  0.00    +0.000 A 
ATOM      2  C   UNL     1      45.970   6.064  11.233  0.00  0.00    +0.000 A 
ATOM      3  C   UNL     1      47.072   6.787  11.704  0.00  0.00    +0.000 A 
ATOM      4  C   UNL     1      47.746   6.379  12.858  0.00  0.00    +0.000 A 
ATOM      5  C   UNL     1      47.262   5.268  13.560  0.00  0.00    +0.000 A 
ATOM      6  C   UNL     1      46.138   4.568  13.109  0.00  0.00    +0.000 A 
ENDROOT
BRANCH   1   7
ATOM      7  C   UNL     1      44.210   4.241  11.431  0.00  0.00    +0.000 C 
BRANCH   7   8
ATOM      8  N   UNL     1      44.180   4.105   9.960  0.00  0.00    +0.000 NA
ATOM      9  H   UNL     1      44.883   4.711   9.546  0.00  0.00    +0.000 HD
BRANCH   8  10
ATOM     10  C   UNL     1      44.365   2.735   9.493  0.00  0.00    +0.000 C 
BRANCH  10  11
ATOM     11  C   UNL     1      45.455   2.616   8.454  0.00  0.00    +0.000 A 
ATOM     12  C   UNL     1      45.822   3.736   7.689  0.00  0.00    +0.000 A 
ATOM     13  C   UNL     1      46.875   3.654   6.777  0.00  0.00    +0.000 A 
ATOM     14  C   UNL     1      47.568   2.455   6.620  0.00  0.00    +0.000 A 
ATOM     15  C   UNL     1      47.201   1.335   7.365  0.00  0.00    +0.000 A 
ATOM     16  C   UNL     1      46.148   1.413   8.276  0.00  0.00    +0.000 A 
ENDBRANCH  10  11
ENDBRANCH   8  10
ENDBRANCH   7   8
BRANCH   7  17
ATOM     17  C   UNL     1      42.905   4.952  11.946  0.00  0.00    +0.000 C 
BRANCH  17  18
ATOM     18  N   UNL     1      43.032   5.690  13.209  0.00  0.00    +0.000 NA
ATOM     19  H   UNL     1      42.288   5.406  13.843  0.00  0.00    +0.000 HD
ATOM     20  H   UNL     1      42.913   6.686  13.038  0.00  0.00    +0.000 HD
ENDBRANCH  17  18
ENDBRANCH   7  17
ENDBRANCH   1   7
BRANCH   4  21
ATOM     21  C   UNL     1      48.955   7.123  13.356  0.00  0.00    +0.000 C 
BRANCH  21  22
ATOM     22  N   UNL     1      49.536   7.958  12.333  0.00  0.00    +0.000 N 
ATOM     23  C   UNL     1      50.466   8.912  12.663  0.00  0.00    +0.000 C 
ATOM     24  O   UNL     1      50.866   9.053  13.816  0.00  0.00    +0.000 OA
ATOM     25  H   UNL     1      49.064   8.003  11.435  0.00  0.00    +0.000 HD
BRANCH  23  26
ATOM     26  C   UNL     1      51.008   9.724  11.566  0.00  0.00    +0.000 A 
ATOM     27  C   UNL     1      50.800  11.097  11.567  0.00  0.00    +0.000 A 
ATOM     28  S   UNL     1      51.509  11.899  10.241  0.00  0.00    +0.000 S 
ATOM     29  C   UNL     1      52.076  10.433   9.589  0.00  0.00    +0.000 A 
ATOM     30  N   UNL     1      52.751  10.408   8.410  0.00  0.00    +0.000 NA
ATOM     31  C   UNL     1      53.092   9.226   8.015  0.00  0.00    +0.000 A 
ATOM     32  N   UNL     1      52.829   8.069   8.702  0.00  0.00    +0.000 N 
ATOM     33  C   UNL     1      52.188   8.050   9.919  0.00  0.00    +0.000 A 
ATOM     34  O   UNL     1      52.027   7.002  10.539  0.00  0.00    +0.000 OA
ATOM     35  C   UNL     1      51.757   9.351  10.392  0.00  0.00    +0.000 A 
ATOM     36  H   UNL     1      53.144   7.178   8.347  0.00  0.00    +0.000 HD
ENDBRANCH  23  26
ENDBRANCH  21  22
ENDBRANCH   4  21
TORSDOF 9
ENDMDL
MODEL 5
REMARK VINA RESULT:    -7.236      5.021      5.930
REMARK INTER + INTRA:         -11.893
REMARK INTER:                 -10.909
REMARK INTRA:                  -0.984
REMARK UNBOUND:                -1.060
REMARK  Name = 
REMARK  9 active torsions:
REMARK  status: ('A' for Active; 'I' for Inactive)
REMARK    1  A    between atoms: N_1  and  C_2
REMARK    2  A    between atoms: C_2  and  C_3
REMARK    3  A    between atoms: C_3  and  N_4
REMARK    4  A    between atoms: C_3  and  C_12
REMARK    5  A    between atoms: N_4  and  C_5
REMARK    6  A    between atoms: C_5  and  C_6
REMARK    7  A    between atoms: C_15  and  C_16
REMARK    8  A    between atoms: C_16  and  N_17
REMARK    9  A    between atoms: C_18  and  C_20
REMARK                            x       y       z     vdW  Elec       q    Type
REMARK                         _______ _______ _______ _____ _____    ______ ____
ROOT
ATOM      1  C   UNL     1      44.983   5.145  11.525  0.00  0.00    +0.000 A 
ATOM      2  C   UNL     1      46.226   5.537  12.054  0.00  0.00    +0.000 A 
ATOM      3  C   UNL     1      46.513   6.882  12.314  0.00  0.00    +0.000 A 
ATOM      4  C   UNL     1      45.543   7.866  12.104  0.00  0.00    +0.000 A 
ATOM      5  C   UNL     1      44.304   7.485  11.577  0.00  0.00    +0.000 A 
ATOM      6  C   UNL     1      44.031   6.145  11.281  0.00  0.00    +0.000 A 
ENDROOT
BRANCH   1   7
ATOM      7  C   UNL     1      44.746   3.672  11.164  0.00  0.00    +0.000 C 
BRANCH   7   8
ATOM      8  N   UNL     1      44.320   3.495   9.760  0.00  0.00    +0.000 NA
ATOM      9  H   UNL     1      43.382   3.868   9.637  0.00  0.00    +0.000 HD
BRANCH   8  10
ATOM     10  C   UNL     1      45.228   4.100   8.790  0.00  0.00    +0.000 C 
BRANCH  10  11
ATOM     11  C   UNL     1      45.923   3.076   7.925  0.00  0.00    +0.000 A 
ATOM     12  C   UNL     1      46.467   3.455   6.686  0.00  0.00    +0.000 A 
ATOM     13  C   UNL     1      47.173   2.533   5.913  0.00  0.00    +0.000 A 
ATOM     14  C   UNL     1      47.339   1.226   6.367  0.00  0.00    +0.000 A 
ATOM     15  C   UNL     1      46.790   0.837   7.588  0.00  0.00    +0.000 A 
ATOM     16  C   UNL     1      46.083   1.757   8.363  0.00  0.00    +0.000 A 
ENDBRANCH  10  11
ENDBRANCH   8  10
ENDBRANCH   7   8
BRANCH   7  17
ATOM     17  C   UNL     1      43.719   2.990  12.141  0.00  0.00    +0.000 C 
BRANCH  17  18
ATOM     18  N   UNL     1      42.927   1.891  11.573  0.00  0.00    +0.000 NA
ATOM     19  H   UNL     1      42.531   2.185  10.683  0.00  0.00    +0.000 HD
ATOM     20  H   UNL     1      42.147   1.676  12.190  0.00  0.00    +0.000 HD
ENDBRANCH  17  18
ENDBRANCH   7  17
ENDBRANCH   1   7
BRANCH   4  21
ATOM     21  C   UNL     1      45.824   9.312  12.416  0.00  0.00    +0.000 C 
BRANCH  21  22
ATOM     22  N   UNL     1      47.062   9.763  11.829  0.00  0.00    +0.000 N 
ATOM     23  C   UNL     1      48.168   9.964  12.615  0.00  0.00    +0.000 C 
ATOM     24  O   UNL     1      48.157   9.725  13.820  0.00  0.00    +0.000 OA
ATOM     25  H   UNL     1      47.023  10.167  10.898  0.00  0.00    +0.000 HD
BRANCH  23  26
ATOM     26  C   UNL     1      49.389  10.427  11.944  0.00  0.00    +0.000 A 
ATOM     27  C   UNL     1      49.596  11.789  11.767  0.00  0.00    +0.000 A 
ATOM     28  S   UNL     1      51.066  12.165  10.991  0.00  0.00    +0.000 S 
ATOM     29  C   UNL     1      51.457  10.519  10.817  0.00  0.00    +0.000 A 
ATOM     30  N   UNL     1      52.598  10.135  10.187  0.00  0.00    +0.000 NA
ATOM     31  C   UNL     1      52.753   8.856  10.093  0.00  0.00    +0.000 A 
ATOM     32  N   UNL     1      51.872   7.927  10.587  0.00  0.00    +0.000 N 
ATOM     33  C   UNL     1      50.728   8.268  11.268  0.00  0.00    +0.000 A 
ATOM     34  O   UNL     1      49.994   7.411  11.754  0.00  0.00    +0.000 OA
ATOM     35  C   UNL     1      50.493   9.695  11.374  0.00  0.00    +0.000 A 
ATOM     36  H   UNL     1      52.065   6.940  10.499  0.00  0.00    +0.000 HD
ENDBRANCH  23  26
ENDBRANCH  21  22
ENDBRANCH   4  21
TORSDOF 9
ENDMDL
MODEL 6
REMARK VINA RESULT:    -6.924      5.337      7.470
REMARK INTER + INTRA:         -11.426
REMARK INTER:                 -10.346
REMARK INTRA:                  -1.080
REMARK UNBOUND:                -1.060
REMARK  Name = 
REMARK  9 active torsions:
REMARK  status: ('A' for Active; 'I' for Inactive)
REMARK    1  A    between atoms: N_1  and  C_2
REMARK    2  A    between atoms: C_2  and  C_3
REMARK    3  A    between atoms: C_3  and  N_4
REMARK    4  A    between atoms: C_3  and  C_12
REMARK    5  A    between atoms: N_4  and  C_5
REMARK    6  A    between atoms: C_5  and  C_6
REMARK    7  A    between atoms: C_15  and  C_16
REMARK    8  A    between atoms: C_16  and  N_17
REMARK    9  A    between atoms: C_18  and  C_20
REMARK                            x       y       z     vdW  Elec       q    Type
REMARK                         _______ _______ _______ _____ _____    ______ ____
ROOT
ATOM      1  C   UNL     1      45.907   2.583   8.390  0.00  0.00    +0.000 A 
ATOM      2  C   UNL     1      46.031   3.976   8.240  0.00  0.00    +0.000 A 
ATOM      3  C   UNL     1      45.247   4.861   8.990  0.00  0.00    +0.000 A 
ATOM      4  C   UNL     1      44.356   4.376   9.951  0.00  0.00    +0.000 A 
ATOM      5  C   UNL     1      44.225   2.991  10.106  0.00  0.00    +0.000 A 
ATOM      6  C   UNL     1      44.981   2.107   9.330  0.00  0.00    +0.000 A 
ENDROOT
BRANCH   1   7
ATOM      7  C   UNL     1      46.715   1.649   7.480  0.00  0.00    +0.000 C 
BRANCH   7   8
ATOM      8  N   UNL     1      46.678   2.067   6.064  0.00  0.00    +0.000 NA
ATOM      9  H   UNL     1      46.853   3.067   5.997  0.00  0.00    +0.000 HD
BRANCH   8  10
ATOM     10  C   UNL     1      47.614   1.340   5.212  0.00  0.00    +0.000 C 
BRANCH  10  11
ATOM     11  C   UNL     1      46.924   0.564   4.116  0.00  0.00    +0.000 A 
ATOM     12  C   UNL     1      47.079  -0.831   4.037  0.00  0.00    +0.000 A 
ATOM     13  C   UNL     1      46.388  -1.564   3.071  0.00  0.00    +0.000 A 
ATOM     14  C   UNL     1      45.541  -0.914   2.177  0.00  0.00    +0.000 A 
ATOM     15  C   UNL     1      45.392   0.471   2.239  0.00  0.00    +0.000 A 
ATOM     16  C   UNL     1      46.082   1.208   3.202  0.00  0.00    +0.000 A 
ENDBRANCH  10  11
ENDBRANCH   8  10
ENDBRANCH   7   8
BRANCH   7  17
ATOM     17  C   UNL     1      46.256   0.152   7.625  0.00  0.00    +0.000 C 
BRANCH  17  18
ATOM     18  N   UNL     1      47.307  -0.810   7.982  0.00  0.00    +0.000 NA
ATOM     19  H   UNL     1      47.366  -1.529   7.264  0.00  0.00    +0.000 HD
ATOM     20  H   UNL     1      47.063  -1.277   8.853  0.00  0.00    +0.000 HD
ENDBRANCH  17  18
ENDBRANCH   7  17
ENDBRANCH   1   7
BRANCH   4  21
ATOM     21  C   UNL     1      43.535   5.316  10.792  0.00  0.00    +0.000 C 
BRANCH  21  22
ATOM     22  N   UNL     1      44.101   6.642  10.833  0.00  0.00    +0.000 N 
ATOM     23  C   UNL     1      44.781   7.071  11.946  0.00  0.00    +0.000 C 
ATOM     24  O   UNL     1      44.970   6.335  12.911  0.00  0.00    +0.000 OA
ATOM     25  H   UNL     1      43.769   7.319  10.153  0.00  0.00    +0.000 HD
BRANCH  23  26
ATOM     26  C   UNL     1      45.324   8.434  11.911  0.00  0.00    +0.000 A 
ATOM     27  C   UNL     1      46.627   8.660  12.338  0.00  0.00    +0.000 A 
ATOM     28  S   UNL     1      47.117  10.287  12.216  0.00  0.00    +0.000 S 
ATOM     29  C   UNL     1      45.588  10.760  11.637  0.00  0.00    +0.000 A 
ATOM     30  N   UNL     1      45.317  12.063  11.363  0.00  0.00    +0.000 NA
ATOM     31  C   UNL     1      44.109  12.286  10.965  0.00  0.00    +0.000 A 
ATOM     32  N   UNL     1      43.151  11.317  10.805  0.00  0.00    +0.000 N 
ATOM     33  C   UNL     1      43.391   9.982  11.029  0.00  0.00    +0.000 A 
ATOM     34  O   UNL     1      42.530   9.133  10.813  0.00  0.00    +0.000 OA
ATOM     35  C   UNL     1      44.727   9.683  11.507  0.00  0.00    +0.000 A 
ATOM     36  H   UNL     1      42.230  11.557  10.469  0.00  0.00    +0.000 HD
ENDBRANCH  23  26
ENDBRANCH  21  22
ENDBRANCH   4  21
TORSDOF 9
ENDMDL
MODEL 7
REMARK VINA RESULT:    -6.861      4.865      5.786
REMARK INTER + INTRA:         -11.331
REMARK INTER:                 -10.055
REMARK INTRA:                  -1.275
REMARK UNBOUND:                -1.060
REMARK  Name = 
REMARK  9 active torsions:
REMARK  status: ('A' for Active; 'I' for Inactive)
REMARK    1  A    between atoms: N_1  and  C_2
REMARK    2  A    between atoms: C_2  and  C_3
REMARK    3  A    between atoms: C_3  and  N_4
REMARK    4  A    between atoms: C_3  and  C_12
REMARK    5  A    between atoms: N_4  and  C_5
REMARK    6  A    between atoms: C_5  and  C_6
REMARK    7  A    between atoms: C_15  and  C_16
REMARK    8  A    between atoms: C_16  and  N_17
REMARK    9  A    between atoms: C_18  and  C_20
REMARK                            x       y       z     vdW  Elec       q    Type
REMARK                         _______ _______ _______ _____ _____    ______ ____
ROOT
ATOM      1  C   UNL     1      45.408   6.446  12.096  0.00  0.00    +0.000 A 
ATOM      2  C   UNL     1      46.768   6.088  12.064  0.00  0.00    +0.000 A 
ATOM      3  C   UNL     1      47.776   7.058  12.078  0.00  0.00    +0.000 A 
ATOM      4  C   UNL     1      47.452   8.414  12.180  0.00  0.00    +0.000 A 
ATOM      5  C   UNL     1      46.101   8.780  12.210  0.00  0.00    +0.000 A 
ATOM      6  C   UNL     1      45.093   7.811  12.158  0.00  0.00    +0.000 A 
ENDROOT
BRANCH   1   7
ATOM      7  C   UNL     1      44.335   5.355  11.981  0.00  0.00    +0.000 C 
BRANCH   7   8
ATOM      8  N   UNL     1      44.869   4.091  11.432  0.00  0.00    +0.000 NA
ATOM      9  H   UNL     1      44.859   3.374  12.153  0.00  0.00    +0.000 HD
BRANCH   8  10
ATOM     10  C   UNL     1      44.158   3.618  10.249  0.00  0.00    +0.000 C 
BRANCH  10  11
ATOM     11  C   UNL     1      45.090   3.226   9.127  0.00  0.00    +0.000 A 
ATOM     12  C   UNL     1      45.644   4.214   8.295  0.00  0.00    +0.000 A 
ATOM     13  C   UNL     1      46.561   3.868   7.302  0.00  0.00    +0.000 A 
ATOM     14  C   UNL     1      46.930   2.536   7.129  0.00  0.00    +0.000 A 
ATOM     15  C   UNL     1      46.375   1.548   7.940  0.00  0.00    +0.000 A 
ATOM     16  C   UNL     1      45.457   1.889   8.933  0.00  0.00    +0.000 A 
ENDBRANCH  10  11
ENDBRANCH   8  10
ENDBRANCH   7   8
BRANCH   7  17
ATOM     17  C   UNL     1      43.097   5.840  11.141  0.00  0.00    +0.000 C 
BRANCH  17  18
ATOM     18  N   UNL     1      41.903   6.208  11.913  0.00  0.00    +0.000 NA
ATOM     19  H   UNL     1      41.466   7.025  11.491  0.00  0.00    +0.000 HD
ATOM     20  H   UNL     1      42.172   6.469  12.859  0.00  0.00    +0.000 HD
ENDBRANCH  17  18
ENDBRANCH   7  17
ENDBRANCH   1   7
BRANCH   4  21
ATOM     21  C   UNL     1      48.525   9.467  12.235  0.00  0.00    +0.000 C 
BRANCH  21  22
ATOM     22  N   UNL     1      49.841   8.912  12.030  0.00  0.00    +0.000 N 
ATOM     23  C   UNL     1      50.771   9.591  11.284  0.00  0.00    +0.000 C 
ATOM     24  O   UNL     1      50.536  10.701  10.813  0.00  0.00    +0.000 OA
ATOM     25  H   UNL     1      49.971   7.923  12.220  0.00  0.00    +0.000 HD
BRANCH  23  26
ATOM     26  C   UNL     1      52.085   8.958  11.119  0.00  0.00    +0.000 A 
ATOM     27  C   UNL     1      52.635   8.848   9.848  0.00  0.00    +0.000 A 
ATOM     28  S   UNL     1      54.171   8.111   9.826  0.00  0.00    +0.000 S 
ATOM     29  C   UNL     1      54.137   7.865  11.509  0.00  0.00    +0.000 A 
ATOM     30  N   UNL     1      55.158   7.233  12.144  0.00  0.00    +0.000 NA
ATOM     31  C   UNL     1      54.986   7.082  13.415  0.00  0.00    +0.000 A 
ATOM     32  N   UNL     1      53.887   7.519  14.109  0.00  0.00    +0.000 N 
ATOM     33  C   UNL     1      52.850   8.200  13.517  0.00  0.00    +0.000 A 
ATOM     34  O   UNL     1      51.911   8.635  14.180  0.00  0.00    +0.000 OA
ATOM     35  C   UNL     1      52.982   8.369  12.083  0.00  0.00    +0.000 A 
ATOM     36  H   UNL     1      53.826   7.387  15.108  0.00  0.00    +0.000 HD
ENDBRANCH  23  26
ENDBRANCH  21  22
ENDBRANCH   4  21
TORSDOF 9
ENDMDL
MODEL 8
REMARK VINA RESULT:    -6.759      1.620      2.166
REMARK INTER + INTRA:         -11.179
REMARK INTER:                  -9.922
REMARK INTRA:                  -1.256
REMARK UNBOUND:                -1.060
REMARK  Name = 
REMARK  9 active torsions:
REMARK  status: ('A' for Active; 'I' for Inactive)
REMARK    1  A    between atoms: N_1  and  C_2
REMARK    2  A    between atoms: C_2  and  C_3
REMARK    3  A    between atoms: C_3  and  N_4
REMARK    4  A    between atoms: C_3  and  C_12
REMARK    5  A    between atoms: N_4  and  C_5
REMARK    6  A    between atoms: C_5  and  C_6
REMARK    7  A    between atoms: C_15  and  C_16
REMARK    8  A    between atoms: C_16  and  N_17
REMARK    9  A    between atoms: C_18  and  C_20
REMARK                            x       y       z     vdW  Elec       q    Type
REMARK                         _______ _______ _______ _____ _____    ______ ____
ROOT
ATOM      1  C   UNL     1      46.159   7.066  12.150  0.00  0.00    +0.000 A 
ATOM      2  C   UNL     1      46.929   5.980  12.604  0.00  0.00    +0.000 A 
ATOM      3  C   UNL     1      48.170   6.177  13.220  0.00  0.00    +0.000 A 
ATOM      4  C   UNL     1      48.651   7.469  13.449  0.00  0.00    +0.000 A 
ATOM      5  C   UNL     1      47.892   8.556  12.999  0.00  0.00    +0.000 A 
ATOM      6  C   UNL     1      46.669   8.358  12.349  0.00  0.00    +0.000 A 
ENDROOT
BRANCH   1   7
ATOM      7  C   UNL     1      44.850   6.802  11.394  0.00  0.00    +0.000 C 
BRANCH   7   8
ATOM      8  N   UNL     1      45.064   6.062  10.133  0.00  0.00    +0.000 NA
ATOM      9  H   UNL     1      46.058   6.028   9.921  0.00  0.00    +0.000 HD
BRANCH   8  10
ATOM     10  C   UNL     1      44.511   4.712  10.144  0.00  0.00    +0.000 C 
BRANCH  10  11
ATOM     11  C   UNL     1      45.196   3.794   9.160  0.00  0.00    +0.000 A 
ATOM     12  C   UNL     1      45.938   4.332   8.095  0.00  0.00    +0.000 A 
ATOM     13  C   UNL     1      46.633   3.492   7.223  0.00  0.00    +0.000 A 
ATOM     14  C   UNL     1      46.590   2.112   7.404  0.00  0.00    +0.000 A 
ATOM     15  C   UNL     1      45.845   1.568   8.449  0.00  0.00    +0.000 A 
ATOM     16  C   UNL     1      45.148   2.404   9.323  0.00  0.00    +0.000 A 
ENDBRANCH  10  11
ENDBRANCH   8  10
ENDBRANCH   7   8
BRANCH   7  17
ATOM     17  C   UNL     1      44.053   8.131  11.124  0.00  0.00    +0.000 C 
BRANCH  17  18
ATOM     18  N   UNL     1      42.593   7.998  11.044  0.00  0.00    +0.000 NA
ATOM     19  H   UNL     1      42.235   7.662  11.936  0.00  0.00    +0.000 HD
ATOM     20  H   UNL     1      42.349   7.302  10.343  0.00  0.00    +0.000 HD
ENDBRANCH  17  18
ENDBRANCH   7  17
ENDBRANCH   1   7
BRANCH   4  21
ATOM     21  C   UNL     1      49.965   7.697  14.145  0.00  0.00    +0.000 C 
BRANCH  21  22
ATOM     22  N   UNL     1      49.973   7.154  15.481  0.00  0.00    +0.000 N 
ATOM     23  C   UNL     1      49.485   7.890  16.531  0.00  0.00    +0.000 C 
ATOM     24  O   UNL     1      48.988   9.001  16.365  0.00  0.00    +0.000 OA
ATOM     25  H   UNL     1      50.568   6.351  15.661  0.00  0.00    +0.000 HD
BRANCH  23  26
ATOM     26  C   UNL     1      49.530   7.269  17.860  0.00  0.00    +0.000 A 
ATOM     27  C   UNL     1      50.183   7.923  18.897  0.00  0.00    +0.000 A 
ATOM     28  S   UNL     1      50.129   7.085  20.380  0.00  0.00    +0.000 S 
ATOM     29  C   UNL     1      49.276   5.791  19.678  0.00  0.00    +0.000 A 
ATOM     30  N   UNL     1      48.938   4.697  20.411  0.00  0.00    +0.000 NA
ATOM     31  C   UNL     1      48.325   3.776  19.745  0.00  0.00    +0.000 A 
ATOM     32  N   UNL     1      48.008   3.858  18.413  0.00  0.00    +0.000 N 
ATOM     33  C   UNL     1      48.291   4.961  17.643  0.00  0.00    +0.000 A 
ATOM     34  O   UNL     1      47.934   5.028  16.469  0.00  0.00    +0.000 OA
ATOM     35  C   UNL     1      49.007   6.013  18.338  0.00  0.00    +0.000 A 
ATOM     36  H   UNL     1      47.507   3.109  17.958  0.00  0.00    +0.000 HD
ENDBRANCH  23  26
ENDBRANCH  21  22
ENDBRANCH   4  21
TORSDOF 9
ENDMDL
MODEL 9
REMARK VINA RESULT:    -6.601      1.736      2.339
REMARK INTER + INTRA:         -10.941
REMARK INTER:                  -9.900
REMARK INTRA:                  -1.041
REMARK UNBOUND:                -1.060
REMARK  Name = 
REMARK  9 active torsions:
REMARK  status: ('A' for Active; 'I' for Inactive)
REMARK    1  A    between atoms: N_1  and  C_2
REMARK    2  A    between atoms: C_2  and  C_3
REMARK    3  A    between atoms: C_3  and  N_4
REMARK    4  A    between atoms: C_3  and  C_12
REMARK    5  A    between atoms: N_4  and  C_5
REMARK    6  A    between atoms: C_5  and  C_6
REMARK    7  A    between atoms: C_15  and  C_16
REMARK    8  A    between atoms: C_16  and  N_17
REMARK    9  A    between atoms: C_18  and  C_20
REMARK                            x       y       z     vdW  Elec       q    Type
REMARK                         _______ _______ _______ _____ _____    ______ ____
ROOT
ATOM      1  C   UNL     1      45.648   6.159  12.563  0.00  0.00    +0.000 A 
ATOM      2  C   UNL     1      45.656   4.938  13.261  0.00  0.00    +0.000 A 
ATOM      3  C   UNL     1      46.594   4.682  14.267  0.00  0.00    +0.000 A 
ATOM      4  C   UNL     1      47.516   5.664  14.642  0.00  0.00    +0.000 A 
ATOM      5  C   UNL     1      47.516   6.882  13.952  0.00  0.00    +0.000 A 
ATOM      6  C   UNL     1      46.603   7.122  12.920  0.00  0.00    +0.000 A 
ENDROOT
BRANCH   1   7
ATOM      7  C   UNL     1      44.665   6.360  11.402  0.00  0.00    +0.000 C 
BRANCH   7   8
ATOM      8  N   UNL     1      45.135   5.738  10.147  0.00  0.00    +0.000 NA
ATOM      9  H   UNL     1      46.133   5.550  10.212  0.00  0.00    +0.000 HD
BRANCH   8  10
ATOM     10  C   UNL     1      44.420   4.516   9.794  0.00  0.00    +0.000 C 
BRANCH  10  11
ATOM     11  C   UNL     1      45.223   3.611   8.891  0.00  0.00    +0.000 A 
ATOM     12  C   UNL     1      46.004   4.160   7.859  0.00  0.00    +0.000 A 
ATOM     13  C   UNL     1      46.805   3.338   7.065  0.00  0.00    +0.000 A 
ATOM     14  C   UNL     1      46.831   1.963   7.292  0.00  0.00    +0.000 A 
ATOM     15  C   UNL     1      46.048   1.408   8.303  0.00  0.00    +0.000 A 
ATOM     16  C   UNL     1      45.246   2.227   9.099  0.00  0.00    +0.000 A 
ENDBRANCH  10  11
ENDBRANCH   8  10
ENDBRANCH   7   8
BRANCH   7  17
ATOM     17  C   UNL     1      44.336   7.881  11.173  0.00  0.00    +0.000 C 
BRANCH  17  18
ATOM     18  N   UNL     1      42.956   8.186  10.772  0.00  0.00    +0.000 NA
ATOM     19  H   UNL     1      42.582   7.409  10.230  0.00  0.00    +0.000 HD
ATOM     20  H   UNL     1      42.947   9.004  10.167  0.00  0.00    +0.000 HD
ENDBRANCH  17  18
ENDBRANCH   7  17
ENDBRANCH   1   7
BRANCH   4  21
ATOM     21  C   UNL     1      48.506   5.418  15.748  0.00  0.00    +0.000 C 
BRANCH  21  22
ATOM     22  N   UNL     1      48.446   6.439  16.765  0.00  0.00    +0.000 N 
ATOM     23  C   UNL     1      49.551   6.722  17.529  0.00  0.00    +0.000 C 
ATOM     24  O   UNL     1      50.626   6.158  17.343  0.00  0.00    +0.000 OA
ATOM     25  H   UNL     1      47.529   6.748  17.072  0.00  0.00    +0.000 HD
BRANCH  23  26
ATOM     26  C   UNL     1      49.409   7.772  18.545  0.00  0.00    +0.000 A 
ATOM     27  C   UNL     1      50.126   8.954  18.409  0.00  0.00    +0.000 A 
ATOM     28  S   UNL     1      49.838  10.079  19.655  0.00  0.00    +0.000 S 
ATOM     29  C   UNL     1      48.783   9.008  20.451  0.00  0.00    +0.000 A 
ATOM     30  N   UNL     1      48.203   9.347  21.633  0.00  0.00    +0.000 NA
ATOM     31  C   UNL     1      47.454   8.427  22.144  0.00  0.00    +0.000 A 
ATOM     32  N   UNL     1      47.224   7.202  21.571  0.00  0.00    +0.000 N 
ATOM     33  C   UNL     1      47.754   6.832  20.358  0.00  0.00    +0.000 A 
ATOM     34  O   UNL     1      47.476   5.752  19.842  0.00  0.00    +0.000 OA
ATOM     35  C   UNL     1      48.628   7.820  19.756  0.00  0.00    +0.000 A 
ATOM     36  H   UNL     1      46.609   6.536  22.015  0.00  0.00    +0.000 HD
ENDBRANCH  23  26
ENDBRANCH  21  22
ENDBRANCH   4  21
TORSDOF 9
ENDMDL
