MODEL 1
REMARK VINA RESULT:    -8.445      0.000      0.000
REMARK INTER + INTRA:         -11.927
REMARK INTER:                 -10.914
REMARK INTRA:                  -1.013
REMARK UNBOUND:                -1.013
REMARK  Name = 
REMARK  5 active torsions:
REMARK  status: ('A' for Active; 'I' for Inactive)
REMARK    1  A    between atoms: C_2  and  C_5
REMARK    2  A    between atoms: C_8  and  O_9
REMARK    3  A    between atoms: O_9  and  C_10
REMARK    4  A    between atoms: C_10  and  C_11
REMARK    5  A    between atoms: C_15  and  C_16
REMARK                            x       y       z     vdW  Elec       q    Type
REMARK                         _______ _______ _______ _____ _____    ______ ____
ROOT
ATOM      1  C   UNL     1      43.774   4.867  11.272  0.00  0.00    +0.000 C 
ATOM      2  C   UNL     1      42.516   5.323  11.996  0.00  0.00    +0.000 C 
ATOM      3  C   UNL     1      43.170   6.228  11.004  0.00  0.00    +0.000 C 
ENDROOT
BRANCH   1   4
ATOM      4  C   UNL     1      45.073   4.744  12.052  0.00  0.00    +0.000 A 
ATOM      5  C   UNL     1      45.359   3.661  12.884  0.00  0.00    +0.000 A 
ATOM      6  N   UNL     1      46.478   3.527  13.635  0.00  0.00    +0.000 NA
ATOM      7  C   UNL     1      47.360   4.550  13.592  0.00  0.00    +0.000 A 
ATOM      8  C   UNL     1      47.204   5.707  12.828  0.00  0.00    +0.000 A 
ATOM      9  C   UNL     1      46.041   5.762  12.040  0.00  0.00    +0.000 A 
BRANCH   8  10
ATOM     10  C   UNL     1      48.170   6.821  12.872  0.00  0.00    +0.000 A 
ATOM     11  C   UNL     1      48.468   7.601  11.745  0.00  0.00    +0.000 A 
ATOM     12  C   UNL     1      49.415   8.624  11.819  0.00  0.00    +0.000 A 
ATOM     13  C   UNL     1      50.053   8.845  13.027  0.00  0.00    +0.000 A 
ATOM     14  N   UNL     1      49.800   8.132  14.141  0.00  0.00    +0.000 NA
ATOM     15  C   UNL     1      48.871   7.149  14.037  0.00  0.00    +0.000 A 
ENDBRANCH   8  10
ENDBRANCH   1   4
BRANCH   1  16
ATOM     16  O   UNL     1      43.437   3.785  10.370  0.00  0.00    +0.000 OA
BRANCH  16  20
ATOM     17  C   UNL     1      46.224   2.741   7.560  0.00  0.00    +0.000 A 
ATOM     18  C   UNL     1      45.749   1.781   8.449  0.00  0.00    +0.000 A 
ATOM     19  C   UNL     1      44.795   2.151   9.386  0.00  0.00    +0.000 A 
ATOM     20  C   UNL     1      44.355   3.459   9.397  0.00  0.00    +0.000 A 
ATOM     21  N   UNL     1      44.795   4.373   8.511  0.00  0.00    +0.000 NA
ATOM     22  N   UNL     1      45.743   4.011   7.587  0.00  0.00    +0.000 NA
BRANCH  17  24
ATOM     23  F   UNL     1      47.080   2.952   5.327  0.00  0.00    +0.000 F 
ATOM     24  C   UNL     1      47.306   2.406   6.561  0.00  0.00    +0.000 C 
ATOM     25  F   UNL     1      47.434   1.067   6.341  0.00  0.00    +0.000 F 
ATOM     26  F   UNL     1      48.541   2.852   6.929  0.00  0.00    +0.000 F 
ENDBRANCH  17  24
ENDBRANCH  16  20
ENDBRANCH   1  16
TORSDOF 5
ENDMDL
MODEL 2
REMARK VINA RESULT:    -8.221      4.374      7.337
REMARK INTER + INTRA:         -11.637
REMARK INTER:                 -10.825
REMARK INTRA:                  -0.811
REMARK UNBOUND:                -1.013
REMARK  Name = 
REMARK  5 active torsions:
REMARK  status: ('A' for Active; 'I' for Inactive)
REMARK    1  A    between atoms: C_2  and  C_5
REMARK    2  A    between atoms: C_8  and  O_9
REMARK    3  A    between atoms: O_9  and  C_10
REMARK    4  A    between atoms: C_10  and  C_11
REMARK    5  A    between atoms: C_15  and  C_16
REMARK                            x       y       z     vdW  Elec       q    Type
REMARK                         _______ _______ _______ _____ _____    ______ ____
ROOT
ATOM      1  C   UNL     1      45.291   5.545  11.897  0.00  0.00    +0.000 C 
ATOM      2  C   UNL     1      44.832   6.941  11.499  0.00  0.00    +0.000 C 
ATOM      3  C   UNL     1      44.258   6.290  12.714  0.00  0.00    +0.000 C 
ENDROOT
BRANCH   1   4
ATOM      4  C   UNL     1      44.881   4.359  11.039  0.00  0.00    +0.000 A 
ATOM      5  C   UNL     1      43.857   3.482  11.396  0.00  0.00    +0.000 A 
ATOM      6  N   UNL     1      43.485   2.387  10.692  0.00  0.00    +0.000 NA
ATOM      7  C   UNL     1      44.200   2.115   9.578  0.00  0.00    +0.000 A 
ATOM      8  C   UNL     1      45.264   2.882   9.105  0.00  0.00    +0.000 A 
ATOM      9  C   UNL     1      45.570   4.029   9.860  0.00  0.00    +0.000 A 
BRANCH   8  10
ATOM     10  C   UNL     1      46.050   2.499   7.917  0.00  0.00    +0.000 A 
ATOM     11  C   UNL     1      46.250   3.371   6.836  0.00  0.00    +0.000 A 
ATOM     12  C   UNL     1      46.971   2.959   5.713  0.00  0.00    +0.000 A 
ATOM     13  C   UNL     1      47.476   1.671   5.693  0.00  0.00    +0.000 A 
ATOM     14  N   UNL     1      47.320   0.795   6.704  0.00  0.00    +0.000 NA
ATOM     15  C   UNL     1      46.620   1.229   7.782  0.00  0.00    +0.000 A 
ENDBRANCH   8  10
ENDBRANCH   1   4
BRANCH   1  16
ATOM     16  O   UNL     1      46.672   5.605  12.330  0.00  0.00    +0.000 OA
BRANCH  16  20
ATOM     17  C   UNL     1      47.749   3.699  15.788  0.00  0.00    +0.000 A 
ATOM     18  C   UNL     1      47.704   5.090  15.754  0.00  0.00    +0.000 A 
ATOM     19  C   UNL     1      47.325   5.718  14.576  0.00  0.00    +0.000 A 
ATOM     20  C   UNL     1      47.006   4.934  13.485  0.00  0.00    +0.000 A 
ATOM     21  N   UNL     1      47.018   3.589  13.538  0.00  0.00    +0.000 NA
ATOM     22  N   UNL     1      47.399   2.966  14.701  0.00  0.00    +0.000 NA
BRANCH  17  24
ATOM     23  F   UNL     1      48.922   3.766  17.881  0.00  0.00    +0.000 F 
ATOM     24  C   UNL     1      48.213   2.968  17.026  0.00  0.00    +0.000 C 
ATOM     25  F   UNL     1      49.040   1.920  16.748  0.00  0.00    +0.000 F 
ATOM     26  F   UNL     1      47.191   2.461  17.772  0.00  0.00    +0.000 F 
ENDBRANCH  17  24
ENDBRANCH  16  20
ENDBRANCH   1  16
TORSDOF 5
ENDMDL
MODEL 3
REMARK VINA RESULT:    -7.731      4.237      7.300
REMARK INTER + INTRA:         -11.003
REMARK INTER:                 -10.214
REMARK INTRA:                  -0.789
REMARK UNBOUND:                -1.013
REMARK  Name = 
REMARK  5 active torsions:
REMARK  status: ('A' for Active; 'I' for Inactive)
REMARK    1  A    between atoms: C_2  and  C_5
REMARK    2  A    between atoms: C_8  and  O_9
REMARK    3  A    between atoms: O_9  and  C_10
REMARK    4  A    between atoms: C_10  and  C_11
REMARK    5  A    between atoms: C_15  and  C_16
REMARK                            x       y       z     vdW  Elec       q    Type
REMARK                         _______ _______ _______ _____ _____    ______ ____
ROOT
ATOM      1  C   UNL     1      46.311   7.251  12.339  0.00  0.00    +0.000 C 
ATOM      2  C   UNL     1      46.489   8.705  11.928  0.00  0.00    +0.000 C 
ATOM      3  C   UNL     1      45.746   8.375  13.180  0.00  0.00    +0.000 C 
ENDROOT
BRANCH   1   4
ATOM      4  C   UNL     1      45.386   6.360  11.527  0.00  0.00    +0.000 A 
ATOM      5  C   UNL     1      44.008   6.303  11.738  0.00  0.00    +0.000 A 
ATOM      6  N   UNL     1      43.149   5.494  11.075  0.00  0.00    +0.000 NA
ATOM      7  C   UNL     1      43.691   4.653  10.167  0.00  0.00    +0.000 A 
ATOM      8  C   UNL     1      45.050   4.576   9.862  0.00  0.00    +0.000 A 
ATOM      9  C   UNL     1      45.880   5.474  10.555  0.00  0.00    +0.000 A 
BRANCH   8  10
ATOM     10  C   UNL     1      45.591   3.591   8.907  0.00  0.00    +0.000 A 
ATOM     11  C   UNL     1      46.183   3.970   7.692  0.00  0.00    +0.000 A 
ATOM     12  C   UNL     1      46.652   3.005   6.798  0.00  0.00    +0.000 A 
ATOM     13  C   UNL     1      46.516   1.671   7.139  0.00  0.00    +0.000 A 
ATOM     14  N   UNL     1      45.965   1.252   8.294  0.00  0.00    +0.000 NA
ATOM     15  C   UNL     1      45.524   2.214   9.142  0.00  0.00    +0.000 A 
ENDBRANCH   8  10
ENDBRANCH   1   4
BRANCH   1  16
ATOM     16  O   UNL     1      47.599   6.703  12.715  0.00  0.00    +0.000 OA
BRANCH  16  20
ATOM     17  C   UNL     1      47.802   4.144  15.903  0.00  0.00    +0.000 A 
ATOM     18  C   UNL     1      48.202   5.469  16.056  0.00  0.00    +0.000 A 
ATOM     19  C   UNL     1      48.114   6.324  14.968  0.00  0.00    +0.000 A 
ATOM     20  C   UNL     1      47.631   5.825  13.775  0.00  0.00    +0.000 A 
ATOM     21  N   UNL     1      47.215   4.551  13.645  0.00  0.00    +0.000 NA
ATOM     22  N   UNL     1      47.307   3.701  14.719  0.00  0.00    +0.000 NA
BRANCH  17  24
ATOM     23  F   UNL     1      48.634   3.658  18.102  0.00  0.00    +0.000 F 
ATOM     24  C   UNL     1      47.935   3.157  17.038  0.00  0.00    +0.000 C 
ATOM     25  F   UNL     1      48.596   2.019  16.683  0.00  0.00    +0.000 F 
ATOM     26  F   UNL     1      46.737   2.758  17.553  0.00  0.00    +0.000 F 
ENDBRANCH  17  24
ENDBRANCH  16  20
ENDBRANCH   1  16
TORSDOF 5
ENDMDL
MODEL 4
REMARK VINA RESULT:    -7.132      1.860      2.950
REMARK INTER + INTRA:         -10.230
REMARK INTER:                 -11.022
REMARK INTRA:                   0.792
REMARK UNBOUND:                -1.013
REMARK  Name = 
REMARK  5 active torsions:
REMARK  status: ('A' for Active; 'I' for Inactive)
REMARK    1  A    between atoms: C_2  and  C_5
REMARK    2  A    between atoms: C_8  and  O_9
REMARK    3  A    between atoms: O_9  and  C_10
REMARK    4  A    between atoms: C_10  and  C_11
REMARK    5  A    between atoms: C_15  and  C_16
REMARK                            x       y       z     vdW  Elec       q    Type
REMARK                         _______ _______ _______ _____ _____    ______ ____
ROOT
ATOM      1  C   UNL     1      44.034   4.679  11.635  0.00  0.00    +0.000 C 
ATOM      2  C   UNL     1      43.622   3.295  12.113  0.00  0.00    +0.000 C 
ATOM      3  C   UNL     1      42.851   4.493  12.559  0.00  0.00    +0.000 C 
ENDROOT
BRANCH   1   4
ATOM      4  C   UNL     1      45.327   5.287  12.155  0.00  0.00    +0.000 A 
ATOM      5  C   UNL     1      46.122   6.146  11.395  0.00  0.00    +0.000 A 
ATOM      6  N   UNL     1      47.302   6.675  11.795  0.00  0.00    +0.000 NA
ATOM      7  C   UNL     1      47.750   6.301  13.013  0.00  0.00    +0.000 A 
ATOM      8  C   UNL     1      47.081   5.435  13.878  0.00  0.00    +0.000 A 
ATOM      9  C   UNL     1      45.841   4.956  13.420  0.00  0.00    +0.000 A 
BRANCH   8  10
ATOM     10  C   UNL     1      47.651   5.011  15.171  0.00  0.00    +0.000 A 
ATOM     11  C   UNL     1      47.356   3.768  15.750  0.00  0.00    +0.000 A 
ATOM     12  C   UNL     1      47.889   3.418  16.993  0.00  0.00    +0.000 A 
ATOM     13  C   UNL     1      48.707   4.329  17.638  0.00  0.00    +0.000 A 
ATOM     14  N   UNL     1      49.029   5.532  17.125  0.00  0.00    +0.000 NA
ATOM     15  C   UNL     1      48.500   5.838  15.914  0.00  0.00    +0.000 A 
ENDBRANCH   8  10
ENDBRANCH   1   4
BRANCH   1  16
ATOM     16  O   UNL     1      43.775   4.787  10.213  0.00  0.00    +0.000 OA
BRANCH  16  20
ATOM     17  C   UNL     1      46.327   2.722   7.769  0.00  0.00    +0.000 A 
ATOM     18  C   UNL     1      45.517   2.028   8.663  0.00  0.00    +0.000 A 
ATOM     19  C   UNL     1      44.649   2.744   9.475  0.00  0.00    +0.000 A 
ATOM     20  C   UNL     1      44.625   4.120   9.360  0.00  0.00    +0.000 A 
ATOM     21  N   UNL     1      45.388   4.781   8.468  0.00  0.00    +0.000 NA
ATOM     22  N   UNL     1      46.251   4.074   7.669  0.00  0.00    +0.000 NA
BRANCH  17  24
ATOM     23  F   UNL     1      47.690   0.777   7.417  0.00  0.00    +0.000 F 
ATOM     24  C   UNL     1      47.332   1.994   6.907  0.00  0.00    +0.000 C 
ATOM     25  F   UNL     1      48.503   2.677   6.760  0.00  0.00    +0.000 F 
ATOM     26  F   UNL     1      46.880   1.737   5.647  0.00  0.00    +0.000 F 
ENDBRANCH  17  24
ENDBRANCH  16  20
ENDBRANCH   1  16
TORSDOF 5
ENDMDL
MODEL 5
REMARK VINA RESULT:    -6.749      1.407      2.137
REMARK INTER + INTRA:          -9.734
REMARK INTER:                 -10.197
REMARK INTRA:                   0.463
REMARK UNBOUND:                -1.013
REMARK  Name = 
REMARK  5 active torsions:
REMARK  status: ('A' for Active; 'I' for Inactive)
REMARK    1  A    between atoms: C_2  and  C_5
REMARK    2  A    between atoms: C_8  and  O_9
REMARK    3  A    between atoms: O_9  and  C_10
REMARK    4  A    between atoms: C_10  and  C_11
REMARK    5  A    between atoms: C_15  and  C_16
REMARK                            x       y       z     vdW  Elec       q    Type
REMARK                         _______ _______ _______ _____ _____    ______ ____
ROOT
ATOM      1  C   UNL     1      44.426   4.588  11.636  0.00  0.00    +0.000 C 
ATOM      2  C   UNL     1      45.271   3.440  12.168  0.00  0.00    +0.000 C 
ATOM      3  C   UNL     1      44.016   3.829  12.878  0.00  0.00    +0.000 C 
ENDROOT
BRANCH   1   4
ATOM      4  C   UNL     1      44.955   6.009  11.744  0.00  0.00    +0.000 A 
ATOM      5  C   UNL     1      44.185   7.131  11.437  0.00  0.00    +0.000 A 
ATOM      6  N   UNL     1      44.622   8.412  11.472  0.00  0.00    +0.000 NA
ATOM      7  C   UNL     1      45.921   8.598  11.795  0.00  0.00    +0.000 A 
ATOM      8  C   UNL     1      46.820   7.577  12.104  0.00  0.00    +0.000 A 
ATOM      9  C   UNL     1      46.290   6.275  12.091  0.00  0.00    +0.000 A 
BRANCH   8  10
ATOM     10  C   UNL     1      48.245   7.837  12.386  0.00  0.00    +0.000 A 
ATOM     11  C   UNL     1      49.232   7.770  11.390  0.00  0.00    +0.000 A 
ATOM     12  C   UNL     1      50.574   7.988  11.704  0.00  0.00    +0.000 A 
ATOM     13  C   UNL     1      50.906   8.265  13.018  0.00  0.00    +0.000 A 
ATOM     14  N   UNL     1      50.000   8.349  14.011  0.00  0.00    +0.000 NA
ATOM     15  C   UNL     1      48.704   8.138  13.672  0.00  0.00    +0.000 A 
ENDBRANCH   8  10
ENDBRANCH   1   4
BRANCH   1  16
ATOM     16  O   UNL     1      43.833   4.195  10.373  0.00  0.00    +0.000 OA
BRANCH  16  20
ATOM     17  C   UNL     1      46.406   2.885   7.472  0.00  0.00    +0.000 A 
ATOM     18  C   UNL     1      45.750   1.960   8.280  0.00  0.00    +0.000 A 
ATOM     19  C   UNL     1      44.872   2.423   9.249  0.00  0.00    +0.000 A 
ATOM     20  C   UNL     1      44.685   3.785   9.372  0.00  0.00    +0.000 A 
ATOM     21  N   UNL     1      45.297   4.671   8.563  0.00  0.00    +0.000 NA
ATOM     22  N   UNL     1      46.171   4.215   7.607  0.00  0.00    +0.000 NA
BRANCH  17  24
ATOM     23  F   UNL     1      47.450   1.079   6.284  0.00  0.00    +0.000 F 
ATOM     24  C   UNL     1      47.417   2.437   6.443  0.00  0.00    +0.000 C 
ATOM     25  F   UNL     1      48.695   2.789   6.762  0.00  0.00    +0.000 F 
ATOM     26  F   UNL     1      47.182   2.939   5.198  0.00  0.00    +0.000 F 
ENDBRANCH  17  24
ENDBRANCH  16  20
ENDBRANCH   1  16
TORSDOF 5
ENDMDL
MODEL 6
REMARK VINA RESULT:    -6.627      4.717      7.908
REMARK INTER + INTRA:          -9.578
REMARK INTER:                  -8.757
REMARK INTRA:                  -0.821
REMARK UNBOUND:                -1.013
REMARK  Name = 
REMARK  5 active torsions:
REMARK  status: ('A' for Active; 'I' for Inactive)
REMARK    1  A    between atoms: C_2  and  C_5
REMARK    2  A    between atoms: C_8  and  O_9
REMARK    3  A    between atoms: O_9  and  C_10
REMARK    4  A    between atoms: C_10  and  C_11
REMARK    5  A    between atoms: C_15  and  C_16
REMARK                            x       y       z     vdW  Elec       q    Type
REMARK                         _______ _______ _______ _____ _____    ______ ____
ROOT
ATOM      1  C   UNL     1      48.600   8.201  12.666  0.00  0.00    +0.000 C 
ATOM      2  C   UNL     1      49.494   9.061  11.784  0.00  0.00    +0.000 C 
ATOM      3  C   UNL     1      48.974   9.610  13.072  0.00  0.00    +0.000 C 
ENDROOT
BRANCH   1   4
ATOM      4  C   UNL     1      47.187   7.885  12.203  0.00  0.00    +0.000 A 
ATOM      5  C   UNL     1      46.076   8.634  12.591  0.00  0.00    +0.000 A 
ATOM      6  N   UNL     1      44.795   8.367  12.245  0.00  0.00    +0.000 NA
ATOM      7  C   UNL     1      44.590   7.261  11.496  0.00  0.00    +0.000 A 
ATOM      8  C   UNL     1      45.594   6.401  11.051  0.00  0.00    +0.000 A 
ATOM      9  C   UNL     1      46.905   6.761  11.409  0.00  0.00    +0.000 A 
BRANCH   8  10
ATOM     10  C   UNL     1      45.303   5.171  10.290  0.00  0.00    +0.000 A 
ATOM     11  C   UNL     1      45.788   4.960   8.990  0.00  0.00    +0.000 A 
ATOM     12  C   UNL     1      45.461   3.797   8.290  0.00  0.00    +0.000 A 
ATOM     13  C   UNL     1      44.646   2.865   8.907  0.00  0.00    +0.000 A 
ATOM     14  N   UNL     1      44.160   3.012  10.154  0.00  0.00    +0.000 NA
ATOM     15  C   UNL     1      44.501   4.150  10.809  0.00  0.00    +0.000 A 
ENDBRANCH   8  10
ENDBRANCH   1   4
BRANCH   1  16
ATOM     16  O   UNL     1      49.381   7.108  13.210  0.00  0.00    +0.000 OA
BRANCH  16  20
ATOM     17  C   UNL     1      48.091   5.315  16.656  0.00  0.00    +0.000 A 
ATOM     18  C   UNL     1      48.901   6.444  16.729  0.00  0.00    +0.000 A 
ATOM     19  C   UNL     1      49.318   7.045  15.551  0.00  0.00    +0.000 A 
ATOM     20  C   UNL     1      48.910   6.497  14.351  0.00  0.00    +0.000 A 
ATOM     21  N   UNL     1      48.097   5.425  14.290  0.00  0.00    +0.000 NA
ATOM     22  N   UNL     1      47.689   4.824  15.455  0.00  0.00    +0.000 NA
BRANCH  17  24
ATOM     23  F   UNL     1      46.559   5.144  18.496  0.00  0.00    +0.000 F 
ATOM     24  C   UNL     1      47.660   4.586  17.907  0.00  0.00    +0.000 C 
ATOM     25  F   UNL     1      48.618   4.578  18.877  0.00  0.00    +0.000 F 
ATOM     26  F   UNL     1      47.327   3.282  17.688  0.00  0.00    +0.000 F 
ENDBRANCH  17  24
ENDBRANCH  16  20
ENDBRANCH   1  16
TORSDOF 5
ENDMDL
MODEL 7
REMARK VINA RESULT:    -6.233      4.603      7.309
REMARK INTER + INTRA:          -9.068
REMARK INTER:                  -8.281
REMARK INTRA:                  -0.787
REMARK UNBOUND:                -1.013
REMARK  Name = 
REMARK  5 active torsions:
REMARK  status: ('A' for Active; 'I' for Inactive)
REMARK    1  A    between atoms: C_2  and  C_5
REMARK    2  A    between atoms: C_8  and  O_9
REMARK    3  A    between atoms: O_9  and  C_10
REMARK    4  A    between atoms: C_10  and  C_11
REMARK    5  A    between atoms: C_15  and  C_16
REMARK                            x       y       z     vdW  Elec       q    Type
REMARK                         _______ _______ _______ _____ _____    ______ ____
ROOT
ATOM      1  C   UNL     1      45.823   6.137  12.366  0.00  0.00    +0.000 C 
ATOM      2  C   UNL     1      46.850   5.719  13.408  0.00  0.00    +0.000 C 
ATOM      3  C   UNL     1      47.294   6.435  12.175  0.00  0.00    +0.000 C 
ENDROOT
BRANCH   1   4
ATOM      4  C   UNL     1      45.141   5.067  11.529  0.00  0.00    +0.000 A 
ATOM      5  C   UNL     1      43.946   4.455  11.907  0.00  0.00    +0.000 A 
ATOM      6  N   UNL     1      43.324   3.466  11.222  0.00  0.00    +0.000 NA
ATOM      7  C   UNL     1      43.943   3.024  10.106  0.00  0.00    +0.000 A 
ATOM      8  C   UNL     1      45.150   3.519   9.613  0.00  0.00    +0.000 A 
ATOM      9  C   UNL     1      45.720   4.573  10.348  0.00  0.00    +0.000 A 
BRANCH   8  10
ATOM     10  C   UNL     1      45.812   2.951   8.423  0.00  0.00    +0.000 A 
ATOM     11  C   UNL     1      46.088   3.717   7.280  0.00  0.00    +0.000 A 
ATOM     12  C   UNL     1      46.685   3.134   6.161  0.00  0.00    +0.000 A 
ATOM     13  C   UNL     1      46.990   1.785   6.206  0.00  0.00    +0.000 A 
ATOM     14  N   UNL     1      46.755   1.005   7.278  0.00  0.00    +0.000 NA
ATOM     15  C   UNL     1      46.180   1.604   8.351  0.00  0.00    +0.000 A 
ENDBRANCH   8  10
ENDBRANCH   1   4
BRANCH   1  16
ATOM     16  O   UNL     1      44.985   7.183  12.918  0.00  0.00    +0.000 OA
BRANCH  16  20
ATOM     17  C   UNL     1      44.368  10.582  10.724  0.00  0.00    +0.000 A 
ATOM     18  C   UNL     1      45.279  10.598  11.776  0.00  0.00    +0.000 A 
ATOM     19  C   UNL     1      45.483   9.432  12.500  0.00  0.00    +0.000 A 
ATOM     20  C   UNL     1      44.774   8.303  12.145  0.00  0.00    +0.000 A 
ATOM     21  N   UNL     1      43.921   8.287  11.103  0.00  0.00    +0.000 NA
ATOM     22  N   UNL     1      43.712   9.441  10.389  0.00  0.00    +0.000 NA
BRANCH  17  24
ATOM     23  F   UNL     1      43.750  12.902  10.745  0.00  0.00    +0.000 F 
ATOM     24  C   UNL     1      44.063  11.839   9.943  0.00  0.00    +0.000 C 
ATOM     25  F   UNL     1      42.998  11.700   9.103  0.00  0.00    +0.000 F 
ATOM     26  F   UNL     1      45.104  12.265   9.172  0.00  0.00    +0.000 F 
ENDBRANCH  17  24
ENDBRANCH  16  20
ENDBRANCH   1  16
TORSDOF 5
ENDMDL
MODEL 8
REMARK VINA RESULT:    -6.067      5.501      8.661
REMARK INTER + INTRA:          -8.854
REMARK INTER:                  -7.948
REMARK INTRA:                  -0.906
REMARK UNBOUND:                -1.013
REMARK  Name = 
REMARK  5 active torsions:
REMARK  status: ('A' for Active; 'I' for Inactive)
REMARK    1  A    between atoms: C_2  and  C_5
REMARK    2  A    between atoms: C_8  and  O_9
REMARK    3  A    between atoms: O_9  and  C_10
REMARK    4  A    between atoms: C_10  and  C_11
REMARK    5  A    between atoms: C_15  and  C_16
REMARK                            x       y       z     vdW  Elec       q    Type
REMARK                         _______ _______ _______ _____ _____    ______ ____
ROOT
ATOM      1  C   UNL     1      49.180   7.840  12.652  0.00  0.00    +0.000 C 
ATOM      2  C   UNL     1      50.073   7.888  11.420  0.00  0.00    +0.000 C 
ATOM      3  C   UNL     1      49.958   9.089  12.300  0.00  0.00    +0.000 C 
ENDROOT
BRANCH   1   4
ATOM      4  C   UNL     1      47.671   7.798  12.472  0.00  0.00    +0.000 A 
ATOM      5  C   UNL     1      46.858   8.922  12.620  0.00  0.00    +0.000 A 
ATOM      6  N   UNL     1      45.508   8.929  12.517  0.00  0.00    +0.000 NA
ATOM      7  C   UNL     1      44.915   7.736  12.289  0.00  0.00    +0.000 A 
ATOM      8  C   UNL     1      45.589   6.524  12.141  0.00  0.00    +0.000 A 
ATOM      9  C   UNL     1      46.992   6.596  12.216  0.00  0.00    +0.000 A 
BRANCH   8  10
ATOM     10  C   UNL     1      44.882   5.242  11.958  0.00  0.00    +0.000 A 
ATOM     11  C   UNL     1      44.618   4.705  10.689  0.00  0.00    +0.000 A 
ATOM     12  C   UNL     1      43.915   3.506  10.558  0.00  0.00    +0.000 A 
ATOM     13  C   UNL     1      43.484   2.866  11.707  0.00  0.00    +0.000 A 
ATOM     14  N   UNL     1      43.717   3.332  12.948  0.00  0.00    +0.000 NA
ATOM     15  C   UNL     1      44.407   4.496  13.041  0.00  0.00    +0.000 A 
ENDBRANCH   8  10
ENDBRANCH   1   4
BRANCH   1  16
ATOM     16  O   UNL     1      49.758   6.930  13.621  0.00  0.00    +0.000 OA
BRANCH  16  20
ATOM     17  C   UNL     1      48.455   7.207  17.491  0.00  0.00    +0.000 A 
ATOM     18  C   UNL     1      48.953   8.338  16.849  0.00  0.00    +0.000 A 
ATOM     19  C   UNL     1      49.378   8.227  15.533  0.00  0.00    +0.000 A 
ATOM     20  C   UNL     1      49.288   6.997  14.914  0.00  0.00    +0.000 A 
ATOM     21  N   UNL     1      48.774   5.916  15.531  0.00  0.00    +0.000 NA
ATOM     22  N   UNL     1      48.358   6.022  16.835  0.00  0.00    +0.000 NA
BRANCH  17  24
ATOM     23  F   UNL     1      49.084   7.490  19.791  0.00  0.00    +0.000 F 
ATOM     24  C   UNL     1      48.036   7.259  18.941  0.00  0.00    +0.000 C 
ATOM     25  F   UNL     1      47.473   6.097  19.377  0.00  0.00    +0.000 F 
ATOM     26  F   UNL     1      47.134   8.245  19.210  0.00  0.00    +0.000 F 
ENDBRANCH  17  24
ENDBRANCH  16  20
ENDBRANCH   1  16
TORSDOF 5
ENDMDL
MODEL 9
REMARK VINA RESULT:    -6.030      5.038      6.944
REMARK INTER + INTRA:          -8.806
REMARK INTER:                  -8.216
REMARK INTRA:                  -0.589
REMARK UNBOUND:                -1.013
REMARK  Name = 
REMARK  5 active torsions:
REMARK  status: ('A' for Active; 'I' for Inactive)
REMARK    1  A    between atoms: C_2  and  C_5
REMARK    2  A    between atoms: C_8  and  O_9
REMARK    3  A    between atoms: O_9  and  C_10
REMARK    4  A    between atoms: C_10  and  C_11
REMARK    5  A    between atoms: C_15  and  C_16
REMARK                            x       y       z     vdW  Elec       q    Type
REMARK                         _______ _______ _______ _____ _____    ______ ____
ROOT
ATOM      1  C   UNL     1      47.946   4.018  16.263  0.00  0.00    +0.000 C 
ATOM      2  C   UNL     1      48.470   2.827  17.052  0.00  0.00    +0.000 C 
ATOM      3  C   UNL     1      47.013   3.155  17.084  0.00  0.00    +0.000 C 
ENDROOT
BRANCH   1   4
ATOM      4  C   UNL     1      48.297   5.423  16.725  0.00  0.00    +0.000 A 
ATOM      5  C   UNL     1      49.159   6.262  16.017  0.00  0.00    +0.000 A 
ATOM      6  N   UNL     1      49.539   7.501  16.408  0.00  0.00    +0.000 NA
ATOM      7  C   UNL     1      49.068   7.928  17.600  0.00  0.00    +0.000 A 
ATOM      8  C   UNL     1      48.219   7.198  18.431  0.00  0.00    +0.000 A 
ATOM      9  C   UNL     1      47.828   5.938  17.945  0.00  0.00    +0.000 A 
BRANCH   8  10
ATOM     10  C   UNL     1      47.789   7.691  19.754  0.00  0.00    +0.000 A 
ATOM     11  C   UNL     1      47.406   9.024  19.969  0.00  0.00    +0.000 A 
ATOM     12  C   UNL     1      47.038   9.460  21.244  0.00  0.00    +0.000 A 
ATOM     13  C   UNL     1      47.066   8.549  22.285  0.00  0.00    +0.000 A 
ATOM     14  N   UNL     1      47.418   7.258  22.133  0.00  0.00    +0.000 NA
ATOM     15  C   UNL     1      47.764   6.865  20.881  0.00  0.00    +0.000 A 
ENDBRANCH   8  10
ENDBRANCH   1   4
BRANCH   1  16
ATOM     16  O   UNL     1      48.061   3.737  14.846  0.00  0.00    +0.000 OA
BRANCH  16  20
ATOM     17  C   UNL     1      44.674   4.333  12.628  0.00  0.00    +0.000 A 
ATOM     18  C   UNL     1      45.242   5.400  13.318  0.00  0.00    +0.000 A 
ATOM     19  C   UNL     1      46.397   5.181  14.054  0.00  0.00    +0.000 A 
ATOM     20  C   UNL     1      46.937   3.911  14.071  0.00  0.00    +0.000 A 
ATOM     21  N   UNL     1      46.400   2.892  13.372  0.00  0.00    +0.000 NA
ATOM     22  N   UNL     1      45.254   3.105  12.648  0.00  0.00    +0.000 NA
BRANCH  17  24
ATOM     23  F   UNL     1      43.547   5.184  10.686  0.00  0.00    +0.000 F 
ATOM     24  C   UNL     1      43.384   4.503  11.861  0.00  0.00    +0.000 C 
ATOM     25  F   UNL     1      42.441   5.205  12.551  0.00  0.00    +0.000 F 
ATOM     26  F   UNL     1      42.800   3.321  11.513  0.00  0.00    +0.000 F 
ENDBRANCH  17  24
ENDBRANCH  16  20
ENDBRANCH   1  16
TORSDOF 5
ENDMDL
