MODEL 1
REMARK VINA RESULT:    -8.642      0.000      0.000
REMARK INTER + INTRA:         -13.054
REMARK INTER:                 -12.178
REMARK INTRA:                  -0.876
REMARK UNBOUND:                -0.876
REMARK  Name = 
REMARK  9 active torsions:
REMARK  status: ('A' for Active; 'I' for Inactive)
REMARK    1  A    between atoms: C_1  and  C_2
REMARK    2  A    between atoms: C_6  and  C_7
REMARK    3  A    between atoms: C_7  and  N_8
REMARK    4  A    between atoms: N_8  and  C_9
REMARK    5  A    between atoms: C_9  and  C_10
REMARK    6  A    between atoms: C_9  and  C_11
REMARK    7  A    between atoms: C_14  and  C_15
REMARK    8  A    between atoms: C_15  and  N_16
REMARK    9  A    between atoms: C_17  and  C_19
REMARK                            x       y       z     vdW  Elec       q    Type
REMARK                         _______ _______ _______ _____ _____    ______ ____
ROOT
ATOM      1  C   UNL     1      44.601   5.397  11.348  0.00  0.00    +0.000 A 
ATOM      2  C   UNL     1      44.521   6.791  11.246  0.00  0.00    +0.000 A 
ATOM      3  C   UNL     1      45.424   7.619  11.929  0.00  0.00    +0.000 A 
ATOM      4  C   UNL     1      46.450   7.068  12.710  0.00  0.00    +0.000 A 
ATOM      5  C   UNL     1      46.532   5.673  12.811  0.00  0.00    +0.000 A 
ATOM      6  C   UNL     1      45.625   4.847  12.139  0.00  0.00    +0.000 A 
ENDROOT
BRANCH   1   7
ATOM      7  C   UNL     1      43.559   4.528  10.646  0.00  0.00    +0.000 C 
ATOM      8  C   UNL     1      43.492   3.168  11.351  0.00  0.00    +0.000 C 
BRANCH   7   9
ATOM      9  N   UNL     1      43.856   4.433   9.210  0.00  0.00    +0.000 NA
ATOM     10  H   UNL     1      43.544   3.514   8.887  0.00  0.00    +0.000 HD
BRANCH   9  11
ATOM     11  C   UNL     1      45.279   4.571   8.881  0.00  0.00    +0.000 C 
BRANCH  11  17
ATOM     12  C   UNL     1      47.664   2.347   5.010  0.00  0.00    +0.000 C 
ATOM     13  C   UNL     1      46.989   2.273   6.341  0.00  0.00    +0.000 A 
ATOM     14  C   UNL     1      46.841   1.077   7.030  0.00  0.00    +0.000 A 
ATOM     15  N   UNL     1      46.237   0.964   8.234  0.00  0.00    +0.000 NA
ATOM     16  C   UNL     1      45.745   2.102   8.774  0.00  0.00    +0.000 A 
ATOM     17  C   UNL     1      45.819   3.355   8.172  0.00  0.00    +0.000 A 
ATOM     18  C   UNL     1      46.477   3.427   6.939  0.00  0.00    +0.000 A 
ENDBRANCH  11  17
ENDBRANCH   9  11
ENDBRANCH   7   9
ENDBRANCH   1   7
BRANCH   4  19
ATOM     19  C   UNL     1      47.443   7.934  13.447  0.00  0.00    +0.000 C 
BRANCH  19  20
ATOM     20  N   UNL     1      47.762   7.398  14.746  0.00  0.00    +0.000 N 
ATOM     21  C   UNL     1      49.042   7.012  15.070  0.00  0.00    +0.000 C 
ATOM     22  O   UNL     1      49.979   7.110  14.290  0.00  0.00    +0.000 OA
ATOM     23  H   UNL     1      46.992   6.992  15.267  0.00  0.00    +0.000 HD
BRANCH  21  24
ATOM     24  C   UNL     1      49.223   6.524  16.444  0.00  0.00    +0.000 A 
ATOM     25  C   UNL     1      49.908   7.296  17.372  0.00  0.00    +0.000 A 
ATOM     26  S   UNL     1      49.977   6.590  18.926  0.00  0.00    +0.000 S 
ATOM     27  C   UNL     1      49.141   5.206  18.395  0.00  0.00    +0.000 A 
ATOM     28  N   UNL     1      48.892   4.169  19.240  0.00  0.00    +0.000 NA
ATOM     29  C   UNL     1      48.283   3.171  18.692  0.00  0.00    +0.000 A 
ATOM     30  N   UNL     1      47.887   3.118  17.382  0.00  0.00    +0.000 N 
ATOM     31  C   UNL     1      48.063   4.166  16.509  0.00  0.00    +0.000 A 
ATOM     32  O   UNL     1      47.609   4.126  15.371  0.00  0.00    +0.000 OA
ATOM     33  C   UNL     1      48.785   5.295  17.062  0.00  0.00    +0.000 A 
ATOM     34  H   UNL     1      47.387   2.320  17.021  0.00  0.00    +0.000 HD
ENDBRANCH  21  24
ENDBRANCH  19  20
ENDBRANCH   4  19
TORSDOF 7
ENDMDL
MODEL 2
REMARK VINA RESULT:    -8.609      1.405      1.797
REMARK INTER + INTRA:         -13.007
REMARK INTER:                 -11.660
REMARK INTRA:                  -1.348
REMARK UNBOUND:                -0.876
REMARK  Name = 
REMARK  9 active torsions:
REMARK  status: ('A' for Active; 'I' for Inactive)
REMARK    1  A    between atoms: C_1  and  C_2
REMARK    2  A    between atoms: C_6  and  C_7
REMARK    3  A    between atoms: C_7  and  N_8
REMARK    4  A    between atoms: N_8  and  C_9
REMARK    5  A    between atoms: C_9  and  C_10
REMARK    6  A    between atoms: C_9  and  C_11
REMARK    7  A    between atoms: C_14  and  C_15
REMARK    8  A    between atoms: C_15  and  N_16
REMARK    9  A    between atoms: C_17  and  C_19
REMARK                            x       y       z     vdW  Elec       q    Type
REMARK                         _______ _______ _______ _____ _____    ______ ____
ROOT
ATOM      1  C   UNL     1      44.813   5.904  11.803  0.00  0.00    +0.000 A 
ATOM      2  C   UNL     1      45.747   6.740  11.180  0.00  0.00    +0.000 A 
ATOM      3  C   UNL     1      47.008   6.966  11.750  0.00  0.00    +0.000 A 
ATOM      4  C   UNL     1      47.375   6.337  12.948  0.00  0.00    +0.000 A 
ATOM      5  C   UNL     1      46.442   5.499  13.572  0.00  0.00    +0.000 A 
ATOM      6  C   UNL     1      45.180   5.281  13.009  0.00  0.00    +0.000 A 
ENDROOT
BRANCH   1   7
ATOM      7  C   UNL     1      43.425   5.734  11.190  0.00  0.00    +0.000 C 
ATOM      8  C   UNL     1      42.507   5.058  12.217  0.00  0.00    +0.000 C 
BRANCH   7   9
ATOM      9  N   UNL     1      43.514   5.009   9.914  0.00  0.00    +0.000 NA
ATOM     10  H   UNL     1      42.577   4.976   9.507  0.00  0.00    +0.000 HD
BRANCH   9  11
ATOM     11  C   UNL     1      44.003   3.631  10.041  0.00  0.00    +0.000 C 
BRANCH  11  17
ATOM     12  C   UNL     1      46.946   0.381   7.511  0.00  0.00    +0.000 C 
ATOM     13  C   UNL     1      46.481   1.774   7.789  0.00  0.00    +0.000 A 
ATOM     14  C   UNL     1      46.996   2.873   7.117  0.00  0.00    +0.000 A 
ATOM     15  N   UNL     1      46.606   4.149   7.339  0.00  0.00    +0.000 NA
ATOM     16  C   UNL     1      45.661   4.338   8.288  0.00  0.00    +0.000 A 
ATOM     17  C   UNL     1      45.084   3.317   9.038  0.00  0.00    +0.000 A 
ATOM     18  C   UNL     1      45.499   2.011   8.754  0.00  0.00    +0.000 A 
ENDBRANCH  11  17
ENDBRANCH   9  11
ENDBRANCH   7   9
ENDBRANCH   1   7
BRANCH   4  19
ATOM     19  C   UNL     1      48.730   6.554  13.579  0.00  0.00    +0.000 C 
BRANCH  19  20
ATOM     20  N   UNL     1      48.650   6.606  15.017  0.00  0.00    +0.000 N 
ATOM     21  C   UNL     1      49.728   6.979  15.784  0.00  0.00    +0.000 C 
ATOM     22  O   UNL     1      50.805   7.300  15.300  0.00  0.00    +0.000 OA
ATOM     23  H   UNL     1      47.928   6.037  15.448  0.00  0.00    +0.000 HD
BRANCH  21  24
ATOM     24  C   UNL     1      49.484   7.025  17.233  0.00  0.00    +0.000 A 
ATOM     25  C   UNL     1      49.466   8.243  17.897  0.00  0.00    +0.000 A 
ATOM     26  S   UNL     1      49.121   8.104  19.564  0.00  0.00    +0.000 S 
ATOM     27  C   UNL     1      49.038   6.408  19.462  0.00  0.00    +0.000 A 
ATOM     28  N   UNL     1      48.804   5.648  20.566  0.00  0.00    +0.000 NA
ATOM     29  C   UNL     1      48.805   4.375  20.347  0.00  0.00    +0.000 A 
ATOM     30  N   UNL     1      49.004   3.791  19.124  0.00  0.00    +0.000 N 
ATOM     31  C   UNL     1      49.183   4.520  17.972  0.00  0.00    +0.000 A 
ATOM     32  O   UNL     1      49.260   3.971  16.879  0.00  0.00    +0.000 OA
ATOM     33  C   UNL     1      49.237   5.956  18.170  0.00  0.00    +0.000 A 
ATOM     34  H   UNL     1      48.962   2.790  19.012  0.00  0.00    +0.000 HD
ENDBRANCH  21  24
ENDBRANCH  19  20
ENDBRANCH   4  19
TORSDOF 7
ENDMDL
MODEL 3
REMARK VINA RESULT:    -8.291      1.948      2.507
REMARK INTER + INTRA:         -12.560
REMARK INTER:                 -11.423
REMARK INTRA:                  -1.137
REMARK UNBOUND:                -0.876
REMARK  Name = 
REMARK  9 active torsions:
REMARK  status: ('A' for Active; 'I' for Inactive)
REMARK    1  A    between atoms: C_1  and  C_2
REMARK    2  A    between atoms: C_6  and  C_7
REMARK    3  A    between atoms: C_7  and  N_8
REMARK    4  A    between atoms: N_8  and  C_9
REMARK    5  A    between atoms: C_9  and  C_10
REMARK    6  A    between atoms: C_9  and  C_11
REMARK    7  A    between atoms: C_14  and  C_15
REMARK    8  A    between atoms: C_15  and  N_16
REMARK    9  A    between atoms: C_17  and  C_19
REMARK                            x       y       z     vdW  Elec       q    Type
REMARK                         _______ _______ _______ _____ _____    ______ ____
ROOT
ATOM      1  C   UNL     1      45.260   5.565  11.840  0.00  0.00    +0.000 A 
ATOM      2  C   UNL     1      46.035   6.673  11.474  0.00  0.00    +0.000 A 
ATOM      3  C   UNL     1      47.112   7.095  12.267  0.00  0.00    +0.000 A 
ATOM      4  C   UNL     1      47.458   6.399  13.434  0.00  0.00    +0.000 A 
ATOM      5  C   UNL     1      46.684   5.290  13.800  0.00  0.00    +0.000 A 
ATOM      6  C   UNL     1      45.603   4.875  13.015  0.00  0.00    +0.000 A 
ENDROOT
BRANCH   1   7
ATOM      7  C   UNL     1      44.053   5.175  10.990  0.00  0.00    +0.000 C 
ATOM      8  C   UNL     1      42.830   5.027  11.904  0.00  0.00    +0.000 C 
BRANCH   7   9
ATOM      9  N   UNL     1      44.349   3.970  10.203  0.00  0.00    +0.000 NA
ATOM     10  H   UNL     1      45.176   3.527  10.610  0.00  0.00    +0.000 HD
BRANCH   9  11
ATOM     11  C   UNL     1      44.626   4.233   8.786  0.00  0.00    +0.000 C 
BRANCH  11  17
ATOM     12  C   UNL     1      47.686   2.442   5.173  0.00  0.00    +0.000 C 
ATOM     13  C   UNL     1      46.925   2.258   6.446  0.00  0.00    +0.000 A 
ATOM     14  C   UNL     1      46.932   1.059   7.146  0.00  0.00    +0.000 A 
ATOM     15  N   UNL     1      46.257   0.849   8.298  0.00  0.00    +0.000 NA
ATOM     16  C   UNL     1      45.528   1.886   8.771  0.00  0.00    +0.000 A 
ATOM     17  C   UNL     1      45.430   3.128   8.150  0.00  0.00    +0.000 A 
ATOM     18  C   UNL     1      46.168   3.307   6.974  0.00  0.00    +0.000 A 
ENDBRANCH  11  17
ENDBRANCH   9  11
ENDBRANCH   7   9
ENDBRANCH   1   7
BRANCH   4  19
ATOM     19  C   UNL     1      48.619   6.824  14.300  0.00  0.00    +0.000 C 
BRANCH  19  20
ATOM     20  N   UNL     1      48.375   6.555  15.695  0.00  0.00    +0.000 N 
ATOM     21  C   UNL     1      49.390   6.180  16.543  0.00  0.00    +0.000 C 
ATOM     22  O   UNL     1      50.551   6.067  16.175  0.00  0.00    +0.000 OA
ATOM     23  H   UNL     1      47.424   6.305  15.945  0.00  0.00    +0.000 HD
BRANCH  21  24
ATOM     24  C   UNL     1      48.997   5.979  17.945  0.00  0.00    +0.000 A 
ATOM     25  C   UNL     1      49.171   4.741  18.547  0.00  0.00    +0.000 A 
ATOM     26  S   UNL     1      48.704   4.710  20.189  0.00  0.00    +0.000 S 
ATOM     27  C   UNL     1      48.203   6.335  20.134  0.00  0.00    +0.000 A 
ATOM     28  N   UNL     1      47.657   6.939  21.224  0.00  0.00    +0.000 NA
ATOM     29  C   UNL     1      47.289   8.161  21.027  0.00  0.00    +0.000 A 
ATOM     30  N   UNL     1      47.429   8.841  19.846  0.00  0.00    +0.000 N 
ATOM     31  C   UNL     1      48.031   8.292  18.739  0.00  0.00    +0.000 A 
ATOM     32  O   UNL     1      48.230   8.958  17.730  0.00  0.00    +0.000 OA
ATOM     33  C   UNL     1      48.421   6.903  18.892  0.00  0.00    +0.000 A 
ATOM     34  H   UNL     1      47.150   9.807  19.765  0.00  0.00    +0.000 HD
ENDBRANCH  21  24
ENDBRANCH  19  20
ENDBRANCH   4  19
TORSDOF 7
ENDMDL
MODEL 4
REMARK VINA RESULT:    -7.851      3.320      8.144
REMARK INTER + INTRA:         -11.939
REMARK INTER:                 -10.302
REMARK INTRA:                  -1.637
REMARK UNBOUND:                -0.876
REMARK  Name = 
REMARK  9 active torsions:
REMARK  status: ('A' for Active; 'I' for Inactive)
REMARK    1  A    between atoms: C_1  and  C_2
REMARK    2  A    between atoms: C_6  and  C_7
REMARK    3  A    between atoms: C_7  and  N_8
REMARK    4  A    between atoms: N_8  and  C_9
REMARK    5  A    between atoms: C_9  and  C_10
REMARK    6  A    between atoms: C_9  and  C_11
REMARK    7  A    between atoms: C_14  and  C_15
REMARK    8  A    between atoms: C_15  and  N_16
REMARK    9  A    between atoms: C_17  and  C_19
REMARK                            x       y       z     vdW  Elec       q    Type
REMARK                         _______ _______ _______ _____ _____    ______ ____
ROOT
ATOM      1  C   UNL     1      48.720   8.027  16.233  0.00  0.00    +0.000 A 
ATOM      2  C   UNL     1      49.192   6.948  15.476  0.00  0.00    +0.000 A 
ATOM      3  C   UNL     1      49.085   6.943  14.078  0.00  0.00    +0.000 A 
ATOM      4  C   UNL     1      48.525   8.035  13.400  0.00  0.00    +0.000 A 
ATOM      5  C   UNL     1      48.053   9.116  14.156  0.00  0.00    +0.000 A 
ATOM      6  C   UNL     1      48.152   9.117  15.551  0.00  0.00    +0.000 A 
ENDROOT
BRANCH   1   7
ATOM      7  C   UNL     1      48.791   7.969  17.757  0.00  0.00    +0.000 C 
ATOM      8  C   UNL     1      50.210   7.558  18.172  0.00  0.00    +0.000 C 
BRANCH   7   9
ATOM      9  N   UNL     1      47.744   7.083  18.285  0.00  0.00    +0.000 NA
ATOM     10  H   UNL     1      47.174   7.627  18.936  0.00  0.00    +0.000 HD
BRANCH   9  11
ATOM     11  C   UNL     1      48.256   5.910  19.002  0.00  0.00    +0.000 C 
BRANCH  11  17
ATOM     12  C   UNL     1      50.684   1.865  17.166  0.00  0.00    +0.000 C 
ATOM     13  C   UNL     1      49.467   2.729  17.249  0.00  0.00    +0.000 A 
ATOM     14  C   UNL     1      48.311   2.447  16.534  0.00  0.00    +0.000 A 
ATOM     15  N   UNL     1      47.190   3.202  16.578  0.00  0.00    +0.000 NA
ATOM     16  C   UNL     1      47.228   4.299  17.367  0.00  0.00    +0.000 A 
ATOM     17  C   UNL     1      48.334   4.692  18.116  0.00  0.00    +0.000 A 
ATOM     18  C   UNL     1      49.462   3.865  18.060  0.00  0.00    +0.000 A 
ENDBRANCH  11  17
ENDBRANCH   9  11
ENDBRANCH   7   9
ENDBRANCH   1   7
BRANCH   4  19
ATOM     19  C   UNL     1      48.406   8.062  11.895  0.00  0.00    +0.000 C 
BRANCH  19  20
ATOM     20  N   UNL     1      47.658   6.936  11.395  0.00  0.00    +0.000 N 
ATOM     21  C   UNL     1      46.284   6.945  11.359  0.00  0.00    +0.000 C 
ATOM     22  O   UNL     1      45.619   7.903  11.731  0.00  0.00    +0.000 OA
ATOM     23  H   UNL     1      48.132   6.039  11.410  0.00  0.00    +0.000 HD
BRANCH  21  24
ATOM     24  C   UNL     1      45.661   5.744  10.785  0.00  0.00    +0.000 A 
ATOM     25  C   UNL     1      45.794   5.470   9.431  0.00  0.00    +0.000 A 
ATOM     26  S   UNL     1      45.046   4.010   8.955  0.00  0.00    +0.000 S 
ATOM     27  C   UNL     1      44.474   3.725  10.531  0.00  0.00    +0.000 A 
ATOM     28  N   UNL     1      43.711   2.635  10.815  0.00  0.00    +0.000 NA
ATOM     29  C   UNL     1      43.317   2.566  12.043  0.00  0.00    +0.000 A 
ATOM     30  N   UNL     1      43.626   3.478  13.017  0.00  0.00    +0.000 N 
ATOM     31  C   UNL     1      44.443   4.560  12.791  0.00  0.00    +0.000 A 
ATOM     32  O   UNL     1      44.780   5.302  13.706  0.00  0.00    +0.000 OA
ATOM     33  C   UNL     1      44.876   4.710  11.415  0.00  0.00    +0.000 A 
ATOM     34  H   UNL     1      43.312   3.351  13.967  0.00  0.00    +0.000 HD
ENDBRANCH  21  24
ENDBRANCH  19  20
ENDBRANCH   4  19
TORSDOF 7
ENDMDL
MODEL 5
REMARK VINA RESULT:    -7.787      2.894      8.539
REMARK INTER + INTRA:         -11.849
REMARK INTER:                 -10.151
REMARK INTRA:                  -1.698
REMARK UNBOUND:                -0.876
REMARK  Name = 
REMARK  9 active torsions:
REMARK  status: ('A' for Active; 'I' for Inactive)
REMARK    1  A    between atoms: C_1  and  C_2
REMARK    2  A    between atoms: C_6  and  C_7
REMARK    3  A    between atoms: C_7  and  N_8
REMARK    4  A    between atoms: N_8  and  C_9
REMARK    5  A    between atoms: C_9  and  C_10
REMARK    6  A    between atoms: C_9  and  C_11
REMARK    7  A    between atoms: C_14  and  C_15
REMARK    8  A    between atoms: C_15  and  N_16
REMARK    9  A    between atoms: C_17  and  C_19
REMARK                            x       y       z     vdW  Elec       q    Type
REMARK                         _______ _______ _______ _____ _____    ______ ____
ROOT
ATOM      1  C   UNL     1      49.108   8.249  16.217  0.00  0.00    +0.000 A 
ATOM      2  C   UNL     1      48.119   9.077  15.669  0.00  0.00    +0.000 A 
ATOM      3  C   UNL     1      47.714   8.933  14.334  0.00  0.00    +0.000 A 
ATOM      4  C   UNL     1      48.271   7.936  13.521  0.00  0.00    +0.000 A 
ATOM      5  C   UNL     1      49.258   7.106  14.068  0.00  0.00    +0.000 A 
ATOM      6  C   UNL     1      49.670   7.256  15.396  0.00  0.00    +0.000 A 
ENDROOT
BRANCH   1   7
ATOM      7  C   UNL     1      49.573   8.478  17.653  0.00  0.00    +0.000 C 
ATOM      8  C   UNL     1      50.735   9.479  17.644  0.00  0.00    +0.000 C 
BRANCH   7   9
ATOM      9  N   UNL     1      49.904   7.198  18.294  0.00  0.00    +0.000 NA
ATOM     10  H   UNL     1      50.317   6.590  17.583  0.00  0.00    +0.000 HD
BRANCH   9  11
ATOM     11  C   UNL     1      48.750   6.501  18.873  0.00  0.00    +0.000 C 
BRANCH  11  17
ATOM     12  C   UNL     1      50.293   2.026  17.081  0.00  0.00    +0.000 C 
ATOM     13  C   UNL     1      49.206   3.010  17.370  0.00  0.00    +0.000 A 
ATOM     14  C   UNL     1      47.877   2.753  17.066  0.00  0.00    +0.000 A 
ATOM     15  N   UNL     1      46.863   3.615  17.307  0.00  0.00    +0.000 NA
ATOM     16  C   UNL     1      47.195   4.798  17.871  0.00  0.00    +0.000 A 
ATOM     17  C   UNL     1      48.493   5.175  18.204  0.00  0.00    +0.000 A 
ATOM     18  C   UNL     1      49.506   4.239  17.961  0.00  0.00    +0.000 A 
ENDBRANCH  11  17
ENDBRANCH   9  11
ENDBRANCH   7   9
ENDBRANCH   1   7
BRANCH   4  19
ATOM     19  C   UNL     1      47.846   7.751  12.084  0.00  0.00    +0.000 C 
BRANCH  19  20
ATOM     20  N   UNL     1      47.076   6.546  11.902  0.00  0.00    +0.000 N 
ATOM     21  C   UNL     1      45.706   6.544  12.015  0.00  0.00    +0.000 C 
ATOM     22  O   UNL     1      45.061   7.555  12.259  0.00  0.00    +0.000 OA
ATOM     23  H   UNL     1      47.570   5.671  12.044  0.00  0.00    +0.000 HD
BRANCH  21  24
ATOM     24  C   UNL     1      45.055   5.251  11.762  0.00  0.00    +0.000 A 
ATOM     25  C   UNL     1      44.361   4.610  12.779  0.00  0.00    +0.000 A 
ATOM     26  S   UNL     1      43.632   3.145  12.288  0.00  0.00    +0.000 S 
ATOM     27  C   UNL     1      44.266   3.293  10.716  0.00  0.00    +0.000 A 
ATOM     28  N   UNL     1      44.046   2.334   9.776  0.00  0.00    +0.000 NA
ATOM     29  C   UNL     1      44.618   2.559   8.641  0.00  0.00    +0.000 A 
ATOM     30  N   UNL     1      45.379   3.661   8.352  0.00  0.00    +0.000 N 
ATOM     31  C   UNL     1      45.577   4.683   9.249  0.00  0.00    +0.000 A 
ATOM     32  O   UNL     1      46.180   5.701   8.927  0.00  0.00    +0.000 OA
ATOM     33  C   UNL     1      44.994   4.458  10.558  0.00  0.00    +0.000 A 
ATOM     34  H   UNL     1      45.774   3.794   7.434  0.00  0.00    +0.000 HD
ENDBRANCH  21  24
ENDBRANCH  19  20
ENDBRANCH   4  19
TORSDOF 7
ENDMDL
MODEL 6
REMARK VINA RESULT:    -7.580      3.667      8.153
REMARK INTER + INTRA:         -11.557
REMARK INTER:                  -9.150
REMARK INTRA:                  -2.407
REMARK UNBOUND:                -0.876
REMARK  Name = 
REMARK  9 active torsions:
REMARK  status: ('A' for Active; 'I' for Inactive)
REMARK    1  A    between atoms: C_1  and  C_2
REMARK    2  A    between atoms: C_6  and  C_7
REMARK    3  A    between atoms: C_7  and  N_8
REMARK    4  A    between atoms: N_8  and  C_9
REMARK    5  A    between atoms: C_9  and  C_10
REMARK    6  A    between atoms: C_9  and  C_11
REMARK    7  A    between atoms: C_14  and  C_15
REMARK    8  A    between atoms: C_15  and  N_16
REMARK    9  A    between atoms: C_17  and  C_19
REMARK                            x       y       z     vdW  Elec       q    Type
REMARK                         _______ _______ _______ _____ _____    ______ ____
ROOT
ATOM      1  C   UNL     1      51.281   7.012  17.330  0.00  0.00    +0.000 A 
ATOM      2  C   UNL     1      51.406   7.141  15.941  0.00  0.00    +0.000 A 
ATOM      3  C   UNL     1      50.431   7.809  15.186  0.00  0.00    +0.000 A 
ATOM      4  C   UNL     1      49.317   8.389  15.809  0.00  0.00    +0.000 A 
ATOM      5  C   UNL     1      49.191   8.262  17.199  0.00  0.00    +0.000 A 
ATOM      6  C   UNL     1      50.159   7.587  17.951  0.00  0.00    +0.000 A 
ENDROOT
BRANCH   1   7
ATOM      7  C   UNL     1      52.326   6.220  18.111  0.00  0.00    +0.000 C 
ATOM      8  C   UNL     1      53.362   5.660  17.128  0.00  0.00    +0.000 C 
BRANCH   7   9
ATOM      9  N   UNL     1      51.678   5.188  18.933  0.00  0.00    +0.000 NA
ATOM     10  H   UNL     1      52.077   5.241  19.873  0.00  0.00    +0.000 HD
BRANCH   9  11
ATOM     11  C   UNL     1      51.866   3.820  18.437  0.00  0.00    +0.000 C 
BRANCH  11  17
ATOM     12  C   UNL     1      46.985   4.138  17.135  0.00  0.00    +0.000 C 
ATOM     13  C   UNL     1      48.308   3.446  17.074  0.00  0.00    +0.000 A 
ATOM     14  C   UNL     1      48.501   2.284  16.339  0.00  0.00    +0.000 A 
ATOM     15  N   UNL     1      49.679   1.626  16.258  0.00  0.00    +0.000 NA
ATOM     16  C   UNL     1      50.715   2.147  16.953  0.00  0.00    +0.000 A 
ATOM     17  C   UNL     1      50.638   3.295  17.737  0.00  0.00    +0.000 A 
ATOM     18  C   UNL     1      49.406   3.958  17.769  0.00  0.00    +0.000 A 
ENDBRANCH  11  17
ENDBRANCH   9  11
ENDBRANCH   7   9
ENDBRANCH   1   7
BRANCH   4  19
ATOM     19  C   UNL     1      48.257   9.124  15.023  0.00  0.00    +0.000 C 
BRANCH  19  20
ATOM     20  N   UNL     1      47.308   8.218  14.427  0.00  0.00    +0.000 N 
ATOM     21  C   UNL     1      47.028   8.254  13.081  0.00  0.00    +0.000 C 
ATOM     22  O   UNL     1      47.569   9.038  12.314  0.00  0.00    +0.000 OA
ATOM     23  H   UNL     1      46.615   7.817  15.050  0.00  0.00    +0.000 HD
BRANCH  21  24
ATOM     24  C   UNL     1      46.071   7.243  12.610  0.00  0.00    +0.000 A 
ATOM     25  C   UNL     1      44.951   7.628  11.886  0.00  0.00    +0.000 A 
ATOM     26  S   UNL     1      43.981   6.315  11.383  0.00  0.00    +0.000 S 
ATOM     27  C   UNL     1      44.998   5.195  12.161  0.00  0.00    +0.000 A 
ATOM     28  N   UNL     1      44.715   3.864  12.151  0.00  0.00    +0.000 NA
ATOM     29  C   UNL     1      45.551   3.136  12.812  0.00  0.00    +0.000 A 
ATOM     30  N   UNL     1      46.654   3.613  13.472  0.00  0.00    +0.000 N 
ATOM     31  C   UNL     1      47.012   4.940  13.458  0.00  0.00    +0.000 A 
ATOM     32  O   UNL     1      48.057   5.320  13.974  0.00  0.00    +0.000 OA
ATOM     33  C   UNL     1      46.079   5.809  12.767  0.00  0.00    +0.000 A 
ATOM     34  H   UNL     1      47.288   2.988  13.946  0.00  0.00    +0.000 HD
ENDBRANCH  21  24
ENDBRANCH  19  20
ENDBRANCH   4  19
TORSDOF 7
ENDMDL
MODEL 7
REMARK VINA RESULT:    -7.261      3.956      9.310
REMARK INTER + INTRA:         -11.109
REMARK INTER:                  -9.288
REMARK INTRA:                  -1.821
REMARK UNBOUND:                -0.876
REMARK  Name = 
REMARK  9 active torsions:
REMARK  status: ('A' for Active; 'I' for Inactive)
REMARK    1  A    between atoms: C_1  and  C_2
REMARK    2  A    between atoms: C_6  and  C_7
REMARK    3  A    between atoms: C_7  and  N_8
REMARK    4  A    between atoms: N_8  and  C_9
REMARK    5  A    between atoms: C_9  and  C_10
REMARK    6  A    between atoms: C_9  and  C_11
REMARK    7  A    between atoms: C_14  and  C_15
REMARK    8  A    between atoms: C_15  and  N_16
REMARK    9  A    between atoms: C_17  and  C_19
REMARK                            x       y       z     vdW  Elec       q    Type
REMARK                         _______ _______ _______ _____ _____    ______ ____
ROOT
ATOM      1  C   UNL     1      48.813   5.585  20.036  0.00  0.00    +0.000 A 
ATOM      2  C   UNL     1      47.524   5.842  19.553  0.00  0.00    +0.000 A 
ATOM      3  C   UNL     1      47.046   5.210  18.397  0.00  0.00    +0.000 A 
ATOM      4  C   UNL     1      47.840   4.281  17.709  0.00  0.00    +0.000 A 
ATOM      5  C   UNL     1      49.130   4.022  18.191  0.00  0.00    +0.000 A 
ATOM      6  C   UNL     1      49.610   4.660  19.340  0.00  0.00    +0.000 A 
ENDROOT
BRANCH   1   7
ATOM      7  C   UNL     1      49.326   6.342  21.259  0.00  0.00    +0.000 C 
ATOM      8  C   UNL     1      48.133   6.975  21.987  0.00  0.00    +0.000 C 
BRANCH   7   9
ATOM      9  N   UNL     1      50.357   7.312  20.866  0.00  0.00    +0.000 NA
ATOM     10  H   UNL     1      50.982   7.444  21.664  0.00  0.00    +0.000 HD
BRANCH   9  11
ATOM     11  C   UNL     1      49.829   8.626  20.481  0.00  0.00    +0.000 C 
BRANCH  11  17
ATOM     12  C   UNL     1      50.583   7.302  15.654  0.00  0.00    +0.000 C 
ATOM     13  C   UNL     1      49.814   8.046  16.696  0.00  0.00    +0.000 A 
ATOM     14  C   UNL     1      48.712   8.830  16.383  0.00  0.00    +0.000 A 
ATOM     15  N   UNL     1      47.989   9.521  17.293  0.00  0.00    +0.000 NA
ATOM     16  C   UNL     1      48.393   9.433  18.581  0.00  0.00    +0.000 A 
ATOM     17  C   UNL     1      49.490   8.694  19.013  0.00  0.00    +0.000 A 
ATOM     18  C   UNL     1      50.192   7.974  18.039  0.00  0.00    +0.000 A 
ENDBRANCH  11  17
ENDBRANCH   9  11
ENDBRANCH   7   9
ENDBRANCH   1   7
BRANCH   4  19
ATOM     19  C   UNL     1      47.347   3.578  16.467  0.00  0.00    +0.000 C 
BRANCH  19  20
ATOM     20  N   UNL     1      46.751   4.497  15.530  0.00  0.00    +0.000 N 
ATOM     21  C   UNL     1      46.802   4.275  14.174  0.00  0.00    +0.000 C 
ATOM     22  O   UNL     1      47.338   3.290  13.685  0.00  0.00    +0.000 OA
ATOM     23  H   UNL     1      46.618   5.449  15.856  0.00  0.00    +0.000 HD
BRANCH  21  24
ATOM     24  C   UNL     1      46.114   5.276  13.346  0.00  0.00    +0.000 A 
ATOM     25  C   UNL     1      46.735   6.483  13.053  0.00  0.00    +0.000 A 
ATOM     26  S   UNL     1      45.806   7.498  12.042  0.00  0.00    +0.000 S 
ATOM     27  C   UNL     1      44.523   6.382  12.008  0.00  0.00    +0.000 A 
ATOM     28  N   UNL     1      43.373   6.654  11.332  0.00  0.00    +0.000 NA
ATOM     29  C   UNL     1      42.471   5.735  11.423  0.00  0.00    +0.000 A 
ATOM     30  N   UNL     1      42.616   4.561  12.115  0.00  0.00    +0.000 N 
ATOM     31  C   UNL     1      43.781   4.217  12.760  0.00  0.00    +0.000 A 
ATOM     32  O   UNL     1      43.913   3.118  13.286  0.00  0.00    +0.000 OA
ATOM     33  C   UNL     1      44.811   5.238  12.728  0.00  0.00    +0.000 A 
ATOM     34  H   UNL     1      41.885   3.867  12.123  0.00  0.00    +0.000 HD
ENDBRANCH  21  24
ENDBRANCH  19  20
ENDBRANCH   4  19
TORSDOF 7
ENDMDL
MODEL 8
REMARK VINA RESULT:    -7.175      2.291      3.727
REMARK INTER + INTRA:         -10.986
REMARK INTER:                  -9.808
REMARK INTRA:                  -1.179
REMARK UNBOUND:                -0.876
REMARK  Name = 
REMARK  9 active torsions:
REMARK  status: ('A' for Active; 'I' for Inactive)
REMARK    1  A    between atoms: C_1  and  C_2
REMARK    2  A    between atoms: C_6  and  C_7
REMARK    3  A    between atoms: C_7  and  N_8
REMARK    4  A    between atoms: N_8  and  C_9
REMARK    5  A    between atoms: C_9  and  C_10
REMARK    6  A    between atoms: C_9  and  C_11
REMARK    7  A    between atoms: C_14  and  C_15
REMARK    8  A    between atoms: C_15  and  N_16
REMARK    9  A    between atoms: C_17  and  C_19
REMARK                            x       y       z     vdW  Elec       q    Type
REMARK                         _______ _______ _______ _____ _____    ______ ____
ROOT
ATOM      1  C   UNL     1      46.306   7.553  12.361  0.00  0.00    +0.000 A 
ATOM      2  C   UNL     1      46.561   8.495  13.365  0.00  0.00    +0.000 A 
ATOM      3  C   UNL     1      47.711   8.410  14.162  0.00  0.00    +0.000 A 
ATOM      4  C   UNL     1      48.652   7.391  13.954  0.00  0.00    +0.000 A 
ATOM      5  C   UNL     1      48.399   6.448  12.949  0.00  0.00    +0.000 A 
ATOM      6  C   UNL     1      47.247   6.527  12.160  0.00  0.00    +0.000 A 
ENDROOT
BRANCH   1   7
ATOM      7  C   UNL     1      45.010   7.637  11.558  0.00  0.00    +0.000 C 
ATOM      8  C   UNL     1      44.604   9.110  11.423  0.00  0.00    +0.000 C 
BRANCH   7   9
ATOM      9  N   UNL     1      43.973   6.795  12.171  0.00  0.00    +0.000 NA
ATOM     10  H   UNL     1      44.441   6.025  12.654  0.00  0.00    +0.000 HD
BRANCH   9  11
ATOM     11  C   UNL     1      43.025   6.218  11.211  0.00  0.00    +0.000 C 
BRANCH  11  17
ATOM     12  C   UNL     1      45.545   3.397   7.847  0.00  0.00    +0.000 C 
ATOM     13  C   UNL     1      44.727   3.522   9.091  0.00  0.00    +0.000 A 
ATOM     14  C   UNL     1      44.371   2.419   9.856  0.00  0.00    +0.000 A 
ATOM     15  N   UNL     1      43.631   2.486  10.985  0.00  0.00    +0.000 NA
ATOM     16  C   UNL     1      43.216   3.716  11.367  0.00  0.00    +0.000 A 
ATOM     17  C   UNL     1      43.496   4.890  10.674  0.00  0.00    +0.000 A 
ATOM     18  C   UNL     1      44.288   4.775   9.525  0.00  0.00    +0.000 A 
ENDBRANCH  11  17
ENDBRANCH   9  11
ENDBRANCH   7   9
ENDBRANCH   1   7
BRANCH   4  19
ATOM     19  C   UNL     1      49.905   7.281  14.790  0.00  0.00    +0.000 C 
BRANCH  19  20
ATOM     20  N   UNL     1      49.604   7.168  16.195  0.00  0.00    +0.000 N 
ATOM     21  C   UNL     1      49.046   6.027  16.721  0.00  0.00    +0.000 C 
ATOM     22  O   UNL     1      48.785   5.044  16.041  0.00  0.00    +0.000 OA
ATOM     23  H   UNL     1      49.482   8.040  16.701  0.00  0.00    +0.000 HD
BRANCH  21  24
ATOM     24  C   UNL     1      48.835   6.043  18.176  0.00  0.00    +0.000 A 
ATOM     25  C   UNL     1      49.176   4.936  18.940  0.00  0.00    +0.000 A 
ATOM     26  S   UNL     1      48.905   5.155  20.613  0.00  0.00    +0.000 S 
ATOM     27  C   UNL     1      48.274   6.714  20.363  0.00  0.00    +0.000 A 
ATOM     28  N   UNL     1      47.811   7.460  21.403  0.00  0.00    +0.000 NA
ATOM     29  C   UNL     1      47.327   8.607  21.062  0.00  0.00    +0.000 A 
ATOM     30  N   UNL     1      47.275   9.086  19.779  0.00  0.00    +0.000 N 
ATOM     31  C   UNL     1      47.786   8.395  18.706  0.00  0.00    +0.000 A 
ATOM     32  O   UNL     1      47.814   8.892  17.586  0.00  0.00    +0.000 OA
ATOM     33  C   UNL     1      48.301   7.077  19.028  0.00  0.00    +0.000 A 
ATOM     34  H   UNL     1      46.913  10.006  19.581  0.00  0.00    +0.000 HD
ENDBRANCH  21  24
ENDBRANCH  19  20
ENDBRANCH   4  19
TORSDOF 7
ENDMDL
MODEL 9
REMARK VINA RESULT:    -7.149      4.159      7.135
REMARK INTER + INTRA:         -10.950
REMARK INTER:                  -9.905
REMARK INTRA:                  -1.045
REMARK UNBOUND:                -0.876
REMARK  Name = 
REMARK  9 active torsions:
REMARK  status: ('A' for Active; 'I' for Inactive)
REMARK    1  A    between atoms: C_1  and  C_2
REMARK    2  A    between atoms: C_6  and  C_7
REMARK    3  A    between atoms: C_7  and  N_8
REMARK    4  A    between atoms: N_8  and  C_9
REMARK    5  A    between atoms: C_9  and  C_10
REMARK    6  A    between atoms: C_9  and  C_11
REMARK    7  A    between atoms: C_14  and  C_15
REMARK    8  A    between atoms: C_15  and  N_16
REMARK    9  A    between atoms: C_17  and  C_19
REMARK                            x       y       z     vdW  Elec       q    Type
REMARK                         _______ _______ _______ _____ _____    ______ ____
ROOT
ATOM      1  C   UNL     1      44.765   9.098  11.710  0.00  0.00    +0.000 A 
ATOM      2  C   UNL     1      45.753   8.989  12.696  0.00  0.00    +0.000 A 
ATOM      3  C   UNL     1      46.150   7.737  13.187  0.00  0.00    +0.000 A 
ATOM      4  C   UNL     1      45.584   6.558  12.681  0.00  0.00    +0.000 A 
ATOM      5  C   UNL     1      44.596   6.665  11.693  0.00  0.00    +0.000 A 
ATOM      6  C   UNL     1      44.193   7.915  11.211  0.00  0.00    +0.000 A 
ENDROOT
BRANCH   1   7
ATOM      7  C   UNL     1      44.309  10.480  11.248  0.00  0.00    +0.000 C 
ATOM      8  C   UNL     1      45.424  11.493  11.538  0.00  0.00    +0.000 C 
BRANCH   7   9
ATOM      9  N   UNL     1      43.022  10.828  11.866  0.00  0.00    +0.000 NA
ATOM     10  H   UNL     1      42.942  10.300  12.737  0.00  0.00    +0.000 HD
BRANCH   9  11
ATOM     11  C   UNL     1      41.854  10.515  11.035  0.00  0.00    +0.000 C 
BRANCH  11  17
ATOM     12  C   UNL     1      36.868  10.005  11.747  0.00  0.00    +0.000 C 
ATOM     13  C   UNL     1      38.176  10.643  12.090  0.00  0.00    +0.000 A 
ATOM     14  C   UNL     1      38.289  11.611  13.077  0.00  0.00    +0.000 A 
ATOM     15  N   UNL     1      39.450  12.215  13.418  0.00  0.00    +0.000 NA
ATOM     16  C   UNL     1      40.553  11.841  12.730  0.00  0.00    +0.000 A 
ATOM     17  C   UNL     1      40.560  10.894  11.709  0.00  0.00    +0.000 A 
ATOM     18  C   UNL     1      39.340  10.277  11.410  0.00  0.00    +0.000 A 
ENDBRANCH  11  17
ENDBRANCH   9  11
ENDBRANCH   7   9
ENDBRANCH   1   7
BRANCH   4  19
ATOM     19  C   UNL     1      45.999   5.196  13.183  0.00  0.00    +0.000 C 
BRANCH  19  20
ATOM     20  N   UNL     1      46.598   5.266  14.492  0.00  0.00    +0.000 N 
ATOM     21  C   UNL     1      47.209   4.174  15.062  0.00  0.00    +0.000 C 
ATOM     22  O   UNL     1      47.292   3.092  14.497  0.00  0.00    +0.000 OA
ATOM     23  H   UNL     1      46.258   5.999  15.105  0.00  0.00    +0.000 HD
BRANCH  21  24
ATOM     24  C   UNL     1      47.812   4.408  16.382  0.00  0.00    +0.000 A 
ATOM     25  C   UNL     1      47.454   3.613  17.462  0.00  0.00    +0.000 A 
ATOM     26  S   UNL     1      48.291   4.001  18.900  0.00  0.00    +0.000 S 
ATOM     27  C   UNL     1      49.118   5.278  18.139  0.00  0.00    +0.000 A 
ATOM     28  N   UNL     1      49.988   6.063  18.831  0.00  0.00    +0.000 NA
ATOM     29  C   UNL     1      50.514   7.015  18.137  0.00  0.00    +0.000 A 
ATOM     30  N   UNL     1      50.264   7.248  16.810  0.00  0.00    +0.000 N 
ATOM     31  C   UNL     1      49.443   6.444  16.056  0.00  0.00    +0.000 A 
ATOM     32  O   UNL     1      49.317   6.620  14.849  0.00  0.00    +0.000 OA
ATOM     33  C   UNL     1      48.787   5.386  16.800  0.00  0.00    +0.000 A 
ATOM     34  H   UNL     1      50.733   7.991  16.314  0.00  0.00    +0.000 HD
ENDBRANCH  21  24
ENDBRANCH  19  20
ENDBRANCH   4  19
TORSDOF 7
ENDMDL
