MODEL 1
REMARK VINA RESULT:    -8.630      0.000      0.000
REMARK INTER + INTRA:         -11.281
REMARK INTER:                 -11.152
REMARK INTRA:                  -0.128
REMARK UNBOUND:                -0.128
REMARK  Name = 
REMARK  5 active torsions:
REMARK  status: ('A' for Active; 'I' for Inactive)
REMARK    1  A    between atoms: C_2  and  C_4
REMARK    2  A    between atoms: C_8  and  O_9
REMARK    3  A    between atoms: O_9  and  C_10
REMARK    4  A    between atoms: C_10  and  C_11
REMARK    5  A    between atoms: C_16  and  C_17
REMARK                            x       y       z     vdW  Elec       q    Type
REMARK                         _______ _______ _______ _____ _____    ______ ____
ROOT
ATOM      1  C   UNL     1      44.682   4.650  11.821  0.00  0.00    +0.000 A 
ATOM      2  C   UNL     1      45.264   3.665  12.611  0.00  0.00    +0.000 A 
ATOM      3  F   UNL     1      44.819   2.402  12.536  0.00  0.00    +0.000 F 
ATOM      4  C   UNL     1      46.305   3.960  13.487  0.00  0.00    +0.000 A 
ATOM      5  C   UNL     1      46.837   5.251  13.534  0.00  0.00    +0.000 A 
ATOM      6  C   UNL     1      46.352   6.238  12.671  0.00  0.00    +0.000 A 
ATOM      7  C   UNL     1      45.233   5.930  11.870  0.00  0.00    +0.000 A 
ATOM      8  F   UNL     1      44.701   6.891  11.096  0.00  0.00    +0.000 F 
ENDROOT
BRANCH   6   9
ATOM      9  C   UNL     1      47.087   7.546  12.401  0.00  0.00    +0.000 C 
ATOM     10  C   UNL     1      48.608   7.271  12.433  0.00  0.00    +0.000 C 
ATOM     11  C   UNL     1      49.202   7.355  13.839  0.00  0.00    +0.000 C 
ATOM     12  C   UNL     1      48.802   8.649  14.537  0.00  0.00    +0.000 C 
ATOM     13  N   UNL     1      47.348   8.790  14.606  0.00  0.00    +0.000 NA
ATOM     14  C   UNL     1      46.741   8.778  13.269  0.00  0.00    +0.000 C 
ATOM     15  H   UNL     1      47.126   9.676  15.062  0.00  0.00    +0.000 HD
ENDBRANCH   6   9
BRANCH   1  16
ATOM     16  C   UNL     1      43.531   4.337  10.913  0.00  0.00    +0.000 C 
BRANCH  16  17
ATOM     17  O   UNL     1      43.754   3.086  10.256  0.00  0.00    +0.000 OA
BRANCH  17  22
ATOM     18  C   UNL     1      46.352   2.121   7.792  0.00  0.00    +0.000 A 
ATOM     19  C   UNL     1      46.565   3.386   7.267  0.00  0.00    +0.000 A 
ATOM     20  N   UNL     1      45.880   4.483   7.670  0.00  0.00    +0.000 NA
ATOM     21  C   UNL     1      44.966   4.300   8.655  0.00  0.00    +0.000 A 
ATOM     22  C   UNL     1      44.697   3.081   9.265  0.00  0.00    +0.000 A 
ATOM     23  C   UNL     1      45.409   1.970   8.816  0.00  0.00    +0.000 A 
BRANCH  18  25
ATOM     24  N   UNL     1      48.098   1.278   6.336  0.00  0.00    +0.000 N 
ATOM     25  C   UNL     1      47.137   0.985   7.271  0.00  0.00    +0.000 C 
ATOM     26  O   UNL     1      46.973  -0.152   7.671  0.00  0.00    +0.000 OA
ATOM     27  H   UNL     1      48.697   0.510   6.068  0.00  0.00    +0.000 HD
ATOM     28  H   UNL     1      48.452   2.215   6.191  0.00  0.00    +0.000 HD
ENDBRANCH  18  25
ENDBRANCH  17  22
ENDBRANCH  16  17
ENDBRANCH   1  16
TORSDOF 5
ENDMDL
MODEL 2
REMARK VINA RESULT:    -8.129      1.404      2.157
REMARK INTER + INTRA:         -10.633
REMARK INTER:                 -10.463
REMARK INTRA:                  -0.170
REMARK UNBOUND:                -0.128
REMARK  Name = 
REMARK  5 active torsions:
REMARK  status: ('A' for Active; 'I' for Inactive)
REMARK    1  A    between atoms: C_2  and  C_4
REMARK    2  A    between atoms: C_8  and  O_9
REMARK    3  A    between atoms: O_9  and  C_10
REMARK    4  A    between atoms: C_10  and  C_11
REMARK    5  A    between atoms: C_16  and  C_17
REMARK                            x       y       z     vdW  Elec       q    Type
REMARK                         _______ _______ _______ _____ _____    ______ ____
ROOT
ATOM      1  C   UNL     1      44.453   4.812  11.924  0.00  0.00    +0.000 A 
ATOM      2  C   UNL     1      43.510   5.783  11.607  0.00  0.00    +0.000 A 
ATOM      3  F   UNL     1      42.258   5.418  11.294  0.00  0.00    +0.000 F 
ATOM      4  C   UNL     1      43.836   7.137  11.605  0.00  0.00    +0.000 A 
ATOM      5  C   UNL     1      45.111   7.552  11.997  0.00  0.00    +0.000 A 
ATOM      6  C   UNL     1      46.049   6.610  12.432  0.00  0.00    +0.000 A 
ATOM      7  C   UNL     1      45.718   5.244  12.326  0.00  0.00    +0.000 A 
ATOM      8  F   UNL     1      46.636   4.322  12.660  0.00  0.00    +0.000 F 
ENDROOT
BRANCH   6   9
ATOM      9  C   UNL     1      47.313   6.983  13.198  0.00  0.00    +0.000 C 
ATOM     10  C   UNL     1      47.178   8.443  13.687  0.00  0.00    +0.000 C 
ATOM     11  C   UNL     1      47.638   9.466  12.648  0.00  0.00    +0.000 C 
ATOM     12  C   UNL     1      49.023   9.130  12.108  0.00  0.00    +0.000 C 
ATOM     13  N   UNL     1      49.055   7.789  11.527  0.00  0.00    +0.000 NA
ATOM     14  C   UNL     1      48.681   6.765  12.512  0.00  0.00    +0.000 C 
ATOM     15  H   UNL     1      50.003   7.598  11.198  0.00  0.00    +0.000 HD
ENDBRANCH   6   9
BRANCH   1  16
ATOM     16  C   UNL     1      44.110   3.354  11.880  0.00  0.00    +0.000 C 
BRANCH  16  17
ATOM     17  O   UNL     1      43.586   3.015  10.594  0.00  0.00    +0.000 OA
BRANCH  17  22
ATOM     18  C   UNL     1      46.128   2.051   8.071  0.00  0.00    +0.000 A 
ATOM     19  C   UNL     1      46.229   3.288   7.452  0.00  0.00    +0.000 A 
ATOM     20  N   UNL     1      45.490   4.364   7.815  0.00  0.00    +0.000 NA
ATOM     21  C   UNL     1      44.637   4.190   8.856  0.00  0.00    +0.000 A 
ATOM     22  C   UNL     1      44.481   3.002   9.558  0.00  0.00    +0.000 A 
ATOM     23  C   UNL     1      45.246   1.911   9.149  0.00  0.00    +0.000 A 
BRANCH  18  25
ATOM     24  N   UNL     1      48.063   1.270   6.836  0.00  0.00    +0.000 N 
ATOM     25  C   UNL     1      46.965   0.935   7.587  0.00  0.00    +0.000 C 
ATOM     26  O   UNL     1      46.721  -0.223   7.867  0.00  0.00    +0.000 OA
ATOM     27  H   UNL     1      48.683   0.508   6.602  0.00  0.00    +0.000 HD
ATOM     28  H   UNL     1      48.451   2.205   6.820  0.00  0.00    +0.000 HD
ENDBRANCH  18  25
ENDBRANCH  17  22
ENDBRANCH  16  17
ENDBRANCH   1  16
TORSDOF 5
ENDMDL
MODEL 3
REMARK VINA RESULT:    -7.683      1.851      2.342
REMARK INTER + INTRA:         -10.057
REMARK INTER:                  -9.099
REMARK INTRA:                  -0.957
REMARK UNBOUND:                -0.128
REMARK  Name = 
REMARK  5 active torsions:
REMARK  status: ('A' for Active; 'I' for Inactive)
REMARK    1  A    between atoms: C_2  and  C_4
REMARK    2  A    between atoms: C_8  and  O_9
REMARK    3  A    between atoms: O_9  and  C_10
REMARK    4  A    between atoms: C_10  and  C_11
REMARK    5  A    between atoms: C_16  and  C_17
REMARK                            x       y       z     vdW  Elec       q    Type
REMARK                         _______ _______ _______ _____ _____    ______ ____
ROOT
ATOM      1  C   UNL     1      45.172   5.910  12.915  0.00  0.00    +0.000 A 
ATOM      2  C   UNL     1      45.891   4.837  13.431  0.00  0.00    +0.000 A 
ATOM      3  F   UNL     1      45.344   3.613  13.444  0.00  0.00    +0.000 F 
ATOM      4  C   UNL     1      47.176   5.005  13.940  0.00  0.00    +0.000 A 
ATOM      5  C   UNL     1      47.800   6.254  13.875  0.00  0.00    +0.000 A 
ATOM      6  C   UNL     1      47.149   7.327  13.258  0.00  0.00    +0.000 A 
ATOM      7  C   UNL     1      45.813   7.147  12.844  0.00  0.00    +0.000 A 
ATOM      8  F   UNL     1      45.144   8.190  12.327  0.00  0.00    +0.000 F 
ENDROOT
BRANCH   6   9
ATOM      9  C   UNL     1      47.865   8.603  12.829  0.00  0.00    +0.000 C 
ATOM     10  C   UNL     1      48.587   8.333  11.489  0.00  0.00    +0.000 C 
ATOM     11  C   UNL     1      49.985   7.741  11.671  0.00  0.00    +0.000 C 
ATOM     12  C   UNL     1      50.813   8.557  12.655  0.00  0.00    +0.000 C 
ATOM     13  N   UNL     1      50.147   8.659  13.954  0.00  0.00    +0.000 NA
ATOM     14  C   UNL     1      48.823   9.283  13.833  0.00  0.00    +0.000 C 
ATOM     15  H   UNL     1      50.725   9.229  14.574  0.00  0.00    +0.000 HD
ENDBRANCH   6   9
BRANCH   1  16
ATOM     16  C   UNL     1      43.772   5.733  12.410  0.00  0.00    +0.000 C 
BRANCH  16  17
ATOM     17  O   UNL     1      43.756   5.800  10.982  0.00  0.00    +0.000 OA
BRANCH  17  22
ATOM     18  C   UNL     1      45.345   3.392   8.651  0.00  0.00    +0.000 A 
ATOM     19  C   UNL     1      44.748   2.248   9.157  0.00  0.00    +0.000 A 
ATOM     20  N   UNL     1      43.903   2.257  10.215  0.00  0.00    +0.000 NA
ATOM     21  C   UNL     1      43.631   3.467  10.765  0.00  0.00    +0.000 A 
ATOM     22  C   UNL     1      44.155   4.672  10.317  0.00  0.00    +0.000 A 
ATOM     23  C   UNL     1      45.034   4.626   9.235  0.00  0.00    +0.000 A 
BRANCH  18  25
ATOM     24  N   UNL     1      46.831   2.041   7.292  0.00  0.00    +0.000 N 
ATOM     25  C   UNL     1      46.269   3.274   7.506  0.00  0.00    +0.000 C 
ATOM     26  O   UNL     1      46.498   4.209   6.761  0.00  0.00    +0.000 OA
ATOM     27  H   UNL     1      47.375   1.948   6.446  0.00  0.00    +0.000 HD
ATOM     28  H   UNL     1      46.459   1.192   7.700  0.00  0.00    +0.000 HD
ENDBRANCH  18  25
ENDBRANCH  17  22
ENDBRANCH  16  17
ENDBRANCH   1  16
TORSDOF 5
ENDMDL
MODEL 4
REMARK VINA RESULT:    -7.490      3.452      5.094
REMARK INTER + INTRA:          -9.808
REMARK INTER:                  -9.295
REMARK INTRA:                  -0.512
REMARK UNBOUND:                -0.128
REMARK  Name = 
REMARK  5 active torsions:
REMARK  status: ('A' for Active; 'I' for Inactive)
REMARK    1  A    between atoms: C_2  and  C_4
REMARK    2  A    between atoms: C_8  and  O_9
REMARK    3  A    between atoms: O_9  and  C_10
REMARK    4  A    between atoms: C_10  and  C_11
REMARK    5  A    between atoms: C_16  and  C_17
REMARK                            x       y       z     vdW  Elec       q    Type
REMARK                         _______ _______ _______ _____ _____    ______ ____
ROOT
ATOM      1  C   UNL     1      47.658   6.297  13.915  0.00  0.00    +0.000 A 
ATOM      2  C   UNL     1      48.169   7.492  14.411  0.00  0.00    +0.000 A 
ATOM      3  F   UNL     1      48.017   8.624  13.710  0.00  0.00    +0.000 F 
ATOM      4  C   UNL     1      48.842   7.540  15.629  0.00  0.00    +0.000 A 
ATOM      5  C   UNL     1      48.954   6.391  16.416  0.00  0.00    +0.000 A 
ATOM      6  C   UNL     1      48.352   5.199  16.000  0.00  0.00    +0.000 A 
ATOM      7  C   UNL     1      47.766   5.162  14.718  0.00  0.00    +0.000 A 
ATOM      8  F   UNL     1      47.257   4.004  14.267  0.00  0.00    +0.000 F 
ENDROOT
BRANCH   6   9
ATOM      9  C   UNL     1      48.117   4.014  16.930  0.00  0.00    +0.000 C 
ATOM     10  C   UNL     1      49.129   4.096  18.095  0.00  0.00    +0.000 C 
ATOM     11  C   UNL     1      50.469   3.434  17.772  0.00  0.00    +0.000 C 
ATOM     12  C   UNL     1      50.278   2.024  17.228  0.00  0.00    +0.000 C 
ATOM     13  N   UNL     1      49.427   2.023  16.039  0.00  0.00    +0.000 NA
ATOM     14  C   UNL     1      48.104   2.593  16.322  0.00  0.00    +0.000 C 
ATOM     15  H   UNL     1      49.310   1.059  15.721  0.00  0.00    +0.000 HD
ENDBRANCH   6   9
BRANCH   1  16
ATOM     16  C   UNL     1      46.974   6.241  12.583  0.00  0.00    +0.000 C 
BRANCH  16  17
ATOM     17  O   UNL     1      45.561   6.125  12.763  0.00  0.00    +0.000 OA
BRANCH  17  22
ATOM     18  C   UNL     1      44.463   3.389  10.514  0.00  0.00    +0.000 A 
ATOM     19  C   UNL     1      43.615   2.760  11.413  0.00  0.00    +0.000 A 
ATOM     20  N   UNL     1      43.436   3.185  12.687  0.00  0.00    +0.000 NA
ATOM     21  C   UNL     1      44.118   4.298  13.057  0.00  0.00    +0.000 A 
ATOM     22  C   UNL     1      44.970   5.014  12.226  0.00  0.00    +0.000 A 
ATOM     23  C   UNL     1      45.143   4.541  10.926  0.00  0.00    +0.000 A 
BRANCH  18  25
ATOM     24  N   UNL     1      44.328   3.685   8.111  0.00  0.00    +0.000 N 
ATOM     25  C   UNL     1      44.604   2.835   9.153  0.00  0.00    +0.000 C 
ATOM     26  O   UNL     1      44.981   1.696   8.954  0.00  0.00    +0.000 OA
ATOM     27  H   UNL     1      44.530   3.327   7.188  0.00  0.00    +0.000 HD
ATOM     28  H   UNL     1      44.290   4.690   8.221  0.00  0.00    +0.000 HD
ENDBRANCH  18  25
ENDBRANCH  17  22
ENDBRANCH  16  17
ENDBRANCH   1  16
TORSDOF 5
ENDMDL
MODEL 5
REMARK VINA RESULT:    -7.292      3.594      5.152
REMARK INTER + INTRA:          -9.552
REMARK INTER:                  -8.638
REMARK INTRA:                  -0.914
REMARK UNBOUND:                -0.128
REMARK  Name = 
REMARK  5 active torsions:
REMARK  status: ('A' for Active; 'I' for Inactive)
REMARK    1  A    between atoms: C_2  and  C_4
REMARK    2  A    between atoms: C_8  and  O_9
REMARK    3  A    between atoms: O_9  and  C_10
REMARK    4  A    between atoms: C_10  and  C_11
REMARK    5  A    between atoms: C_16  and  C_17
REMARK                            x       y       z     vdW  Elec       q    Type
REMARK                         _______ _______ _______ _____ _____    ______ ____
ROOT
ATOM      1  C   UNL     1      47.486   4.843  14.801  0.00  0.00    +0.000 A 
ATOM      2  C   UNL     1      47.952   6.040  14.267  0.00  0.00    +0.000 A 
ATOM      3  F   UNL     1      47.628   6.378  13.010  0.00  0.00    +0.000 F 
ATOM      4  C   UNL     1      48.753   6.901  15.010  0.00  0.00    +0.000 A 
ATOM      5  C   UNL     1      49.047   6.610  16.345  0.00  0.00    +0.000 A 
ATOM      6  C   UNL     1      48.501   5.473  16.948  0.00  0.00    +0.000 A 
ATOM      7  C   UNL     1      47.777   4.573  16.138  0.00  0.00    +0.000 A 
ATOM      8  F   UNL     1      47.316   3.434  16.680  0.00  0.00    +0.000 F 
ENDROOT
BRANCH   6   9
ATOM      9  C   UNL     1      48.471   5.261  18.457  0.00  0.00    +0.000 C 
ATOM     10  C   UNL     1      47.202   5.936  19.023  0.00  0.00    +0.000 C 
ATOM     11  C   UNL     1      47.405   7.417  19.346  0.00  0.00    +0.000 C 
ATOM     12  C   UNL     1      48.645   7.635  20.204  0.00  0.00    +0.000 C 
ATOM     13  N   UNL     1      49.842   7.103  19.554  0.00  0.00    +0.000 NA
ATOM     14  C   UNL     1      49.714   5.666  19.282  0.00  0.00    +0.000 C 
ATOM     15  H   UNL     1      50.643   7.252  20.169  0.00  0.00    +0.000 HD
ENDBRANCH   6   9
BRANCH   1  16
ATOM     16  C   UNL     1      46.662   3.897  13.982  0.00  0.00    +0.000 C 
BRANCH  16  17
ATOM     17  O   UNL     1      45.282   4.269  14.047  0.00  0.00    +0.000 OA
BRANCH  17  22
ATOM     18  C   UNL     1      44.447   4.613  10.451  0.00  0.00    +0.000 A 
ATOM     19  C   UNL     1      43.199   5.193  10.622  0.00  0.00    +0.000 A 
ATOM     20  N   UNL     1      42.649   5.428  11.837  0.00  0.00    +0.000 NA
ATOM     21  C   UNL     1      43.397   5.089  12.917  0.00  0.00    +0.000 A 
ATOM     22  C   UNL     1      44.667   4.529  12.854  0.00  0.00    +0.000 A 
ATOM     23  C   UNL     1      45.197   4.287  11.587  0.00  0.00    +0.000 A 
BRANCH  18  25
ATOM     24  N   UNL     1      44.318   3.405   8.352  0.00  0.00    +0.000 N 
ATOM     25  C   UNL     1      44.950   4.380   9.082  0.00  0.00    +0.000 C 
ATOM     26  O   UNL     1      45.854   5.040   8.605  0.00  0.00    +0.000 OA
ATOM     27  H   UNL     1      44.601   3.329   7.386  0.00  0.00    +0.000 HD
ATOM     28  H   UNL     1      43.406   3.041   8.599  0.00  0.00    +0.000 HD
ENDBRANCH  18  25
ENDBRANCH  17  22
ENDBRANCH  16  17
ENDBRANCH   1  16
TORSDOF 5
ENDMDL
MODEL 6
REMARK VINA RESULT:    -7.281      4.529      7.834
REMARK INTER + INTRA:          -9.538
REMARK INTER:                  -8.652
REMARK INTRA:                  -0.886
REMARK UNBOUND:                -0.128
REMARK  Name = 
REMARK  5 active torsions:
REMARK  status: ('A' for Active; 'I' for Inactive)
REMARK    1  A    between atoms: C_2  and  C_4
REMARK    2  A    between atoms: C_8  and  O_9
REMARK    3  A    between atoms: O_9  and  C_10
REMARK    4  A    between atoms: C_10  and  C_11
REMARK    5  A    between atoms: C_16  and  C_17
REMARK                            x       y       z     vdW  Elec       q    Type
REMARK                         _______ _______ _______ _____ _____    ______ ____
ROOT
ATOM      1  C   UNL     1      48.085   7.482  13.632  0.00  0.00    +0.000 A 
ATOM      2  C   UNL     1      47.607   8.753  13.333  0.00  0.00    +0.000 A 
ATOM      3  F   UNL     1      48.418   9.814  13.454  0.00  0.00    +0.000 F 
ATOM      4  C   UNL     1      46.296   8.953  12.910  0.00  0.00    +0.000 A 
ATOM      5  C   UNL     1      45.450   7.860  12.706  0.00  0.00    +0.000 A 
ATOM      6  C   UNL     1      45.933   6.560  12.886  0.00  0.00    +0.000 A 
ATOM      7  C   UNL     1      47.232   6.400  13.410  0.00  0.00    +0.000 A 
ATOM      8  F   UNL     1      47.682   5.162  13.669  0.00  0.00    +0.000 F 
ENDROOT
BRANCH   6   9
ATOM      9  C   UNL     1      45.216   5.323  12.359  0.00  0.00    +0.000 C 
ATOM     10  C   UNL     1      44.655   5.640  10.954  0.00  0.00    +0.000 C 
ATOM     11  C   UNL     1      43.271   6.289  10.996  0.00  0.00    +0.000 C 
ATOM     12  C   UNL     1      42.309   5.496  11.870  0.00  0.00    +0.000 C 
ATOM     13  N   UNL     1      42.825   5.348  13.231  0.00  0.00    +0.000 NA
ATOM     14  C   UNL     1      44.128   4.670  13.242  0.00  0.00    +0.000 C 
ATOM     15  H   UNL     1      42.160   4.795  13.774  0.00  0.00    +0.000 HD
ENDBRANCH   6   9
BRANCH   1  16
ATOM     16  C   UNL     1      49.482   7.276  14.131  0.00  0.00    +0.000 C 
BRANCH  16  17
ATOM     17  O   UNL     1      49.525   7.453  15.550  0.00  0.00    +0.000 OA
BRANCH  17  22
ATOM     18  C   UNL     1      48.945   4.358  17.507  0.00  0.00    +0.000 A 
ATOM     19  C   UNL     1      50.271   4.109  17.828  0.00  0.00    +0.000 A 
ATOM     20  N   UNL     1      51.296   4.886  17.404  0.00  0.00    +0.000 NA
ATOM     21  C   UNL     1      50.968   5.967  16.652  0.00  0.00    +0.000 A 
ATOM     22  C   UNL     1      49.671   6.318  16.299  0.00  0.00    +0.000 A 
ATOM     23  C   UNL     1      48.641   5.488  16.739  0.00  0.00    +0.000 A 
BRANCH  18  25
ATOM     24  N   UNL     1      48.091   2.907  19.253  0.00  0.00    +0.000 N 
ATOM     25  C   UNL     1      47.901   3.438  18.002  0.00  0.00    +0.000 C 
ATOM     26  O   UNL     1      46.901   3.187  17.356  0.00  0.00    +0.000 OA
ATOM     27  H   UNL     1      47.322   2.366  19.621  0.00  0.00    +0.000 HD
ATOM     28  H   UNL     1      48.744   3.299  19.921  0.00  0.00    +0.000 HD
ENDBRANCH  18  25
ENDBRANCH  17  22
ENDBRANCH  16  17
ENDBRANCH   1  16
TORSDOF 5
ENDMDL
MODEL 7
REMARK VINA RESULT:    -7.246      3.695      4.921
REMARK INTER + INTRA:          -9.493
REMARK INTER:                  -8.607
REMARK INTRA:                  -0.886
REMARK UNBOUND:                -0.128
REMARK  Name = 
REMARK  5 active torsions:
REMARK  status: ('A' for Active; 'I' for Inactive)
REMARK    1  A    between atoms: C_2  and  C_4
REMARK    2  A    between atoms: C_8  and  O_9
REMARK    3  A    between atoms: O_9  and  C_10
REMARK    4  A    between atoms: C_10  and  C_11
REMARK    5  A    between atoms: C_16  and  C_17
REMARK                            x       y       z     vdW  Elec       q    Type
REMARK                         _______ _______ _______ _____ _____    ______ ____
ROOT
ATOM      1  C   UNL     1      47.653   5.564  14.464  0.00  0.00    +0.000 A 
ATOM      2  C   UNL     1      47.216   4.256  14.644  0.00  0.00    +0.000 A 
ATOM      3  F   UNL     1      46.647   3.598  13.625  0.00  0.00    +0.000 F 
ATOM      4  C   UNL     1      47.355   3.609  15.869  0.00  0.00    +0.000 A 
ATOM      5  C   UNL     1      48.009   4.243  16.929  0.00  0.00    +0.000 A 
ATOM      6  C   UNL     1      48.562   5.516  16.746  0.00  0.00    +0.000 A 
ATOM      7  C   UNL     1      48.315   6.179  15.527  0.00  0.00    +0.000 A 
ATOM      8  F   UNL     1      48.766   7.434  15.365  0.00  0.00    +0.000 F 
ENDROOT
BRANCH   6   9
ATOM      9  C   UNL     1      49.577   6.129  17.703  0.00  0.00    +0.000 C 
ATOM     10  C   UNL     1      50.991   5.937  17.110  0.00  0.00    +0.000 C 
ATOM     11  C   UNL     1      51.618   4.593  17.482  0.00  0.00    +0.000 C 
ATOM     12  C   UNL     1      51.548   4.341  18.983  0.00  0.00    +0.000 C 
ATOM     13  N   UNL     1      50.169   4.393  19.467  0.00  0.00    +0.000 NA
ATOM     14  C   UNL     1      49.548   5.694  19.186  0.00  0.00    +0.000 C 
ATOM     15  H   UNL     1      50.171   4.240  20.477  0.00  0.00    +0.000 HD
ENDBRANCH   6   9
BRANCH   1  16
ATOM     16  C   UNL     1      47.460   6.273  13.158  0.00  0.00    +0.000 C 
BRANCH  16  17
ATOM     17  O   UNL     1      46.104   6.711  13.036  0.00  0.00    +0.000 OA
BRANCH  17  22
ATOM     18  C   UNL     1      44.768   4.838  10.127  0.00  0.00    +0.000 A 
ATOM     19  C   UNL     1      43.489   4.641  10.626  0.00  0.00    +0.000 A 
ATOM     20  N   UNL     1      43.096   5.065  11.851  0.00  0.00    +0.000 NA
ATOM     21  C   UNL     1      44.018   5.735  12.586  0.00  0.00    +0.000 A 
ATOM     22  C   UNL     1      45.315   6.007  12.168  0.00  0.00    +0.000 A 
ATOM     23  C   UNL     1      45.692   5.543  10.908  0.00  0.00    +0.000 A 
BRANCH  18  25
ATOM     24  N   UNL     1      44.337   3.283   8.318  0.00  0.00    +0.000 N 
ATOM     25  C   UNL     1      45.104   4.319   8.787  0.00  0.00    +0.000 C 
ATOM     26  O   UNL     1      45.992   4.804   8.110  0.00  0.00    +0.000 OA
ATOM     27  H   UNL     1      44.509   3.009   7.360  0.00  0.00    +0.000 HD
ATOM     28  H   UNL     1      43.436   3.046   8.713  0.00  0.00    +0.000 HD
ENDBRANCH  18  25
ENDBRANCH  17  22
ENDBRANCH  16  17
ENDBRANCH   1  16
TORSDOF 5
ENDMDL
MODEL 8
REMARK VINA RESULT:    -7.040      2.712      7.109
REMARK INTER + INTRA:          -9.226
REMARK INTER:                  -8.724
REMARK INTRA:                  -0.502
REMARK UNBOUND:                -0.128
REMARK  Name = 
REMARK  5 active torsions:
REMARK  status: ('A' for Active; 'I' for Inactive)
REMARK    1  A    between atoms: C_2  and  C_4
REMARK    2  A    between atoms: C_8  and  O_9
REMARK    3  A    between atoms: O_9  and  C_10
REMARK    4  A    between atoms: C_10  and  C_11
REMARK    5  A    between atoms: C_16  and  C_17
REMARK                            x       y       z     vdW  Elec       q    Type
REMARK                         _______ _______ _______ _____ _____    ______ ____
ROOT
ATOM      1  C   UNL     1      45.392   5.615  11.434  0.00  0.00    +0.000 A 
ATOM      2  C   UNL     1      44.803   4.872  12.451  0.00  0.00    +0.000 A 
ATOM      3  F   UNL     1      44.620   5.424  13.659  0.00  0.00    +0.000 F 
ATOM      4  C   UNL     1      44.398   3.556  12.244  0.00  0.00    +0.000 A 
ATOM      5  C   UNL     1      44.510   2.977  10.977  0.00  0.00    +0.000 A 
ATOM      6  C   UNL     1      44.992   3.735   9.904  0.00  0.00    +0.000 A 
ATOM      7  C   UNL     1      45.485   5.029  10.172  0.00  0.00    +0.000 A 
ATOM      8  F   UNL     1      46.029   5.739   9.170  0.00  0.00    +0.000 F 
ENDROOT
BRANCH   6   9
ATOM      9  C   UNL     1      44.824   3.320   8.447  0.00  0.00    +0.000 C 
ATOM     10  C   UNL     1      44.790   1.776   8.377  0.00  0.00    +0.000 C 
ATOM     11  C   UNL     1      46.183   1.152   8.278  0.00  0.00    +0.000 C 
ATOM     12  C   UNL     1      47.005   1.795   7.169  0.00  0.00    +0.000 C 
ATOM     13  N   UNL     1      47.125   3.240   7.364  0.00  0.00    +0.000 NA
ATOM     14  C   UNL     1      45.808   3.889   7.401  0.00  0.00    +0.000 C 
ATOM     15  H   UNL     1      47.664   3.631   6.590  0.00  0.00    +0.000 HD
ENDBRANCH   6   9
BRANCH   1  16
ATOM     16  C   UNL     1      45.869   7.015  11.674  0.00  0.00    +0.000 C 
BRANCH  16  17
ATOM     17  O   UNL     1      47.296   7.037  11.762  0.00  0.00    +0.000 OA
BRANCH  17  22
ATOM     18  C   UNL     1      48.438   6.476  15.245  0.00  0.00    +0.000 A 
ATOM     19  C   UNL     1      48.927   7.754  15.471  0.00  0.00    +0.000 A 
ATOM     20  N   UNL     1      48.914   8.731  14.533  0.00  0.00    +0.000 NA
ATOM     21  C   UNL     1      48.365   8.413  13.333  0.00  0.00    +0.000 A 
ATOM     22  C   UNL     1      47.825   7.173  13.017  0.00  0.00    +0.000 A 
ATOM     23  C   UNL     1      47.867   6.186  14.000  0.00  0.00    +0.000 A 
BRANCH  18  25
ATOM     24  N   UNL     1      47.326   5.070  16.878  0.00  0.00    +0.000 N 
ATOM     25  C   UNL     1      48.516   5.475  16.328  0.00  0.00    +0.000 C 
ATOM     26  O   UNL     1      49.574   5.001  16.695  0.00  0.00    +0.000 OA
ATOM     27  H   UNL     1      47.386   4.310  17.541  0.00  0.00    +0.000 HD
ATOM     28  H   UNL     1      46.434   5.219  16.423  0.00  0.00    +0.000 HD
ENDBRANCH  18  25
ENDBRANCH  17  22
ENDBRANCH  16  17
ENDBRANCH   1  16
TORSDOF 5
ENDMDL
MODEL 9
REMARK VINA RESULT:    -7.037      4.404      7.529
REMARK INTER + INTRA:          -9.223
REMARK INTER:                  -8.539
REMARK INTRA:                  -0.684
REMARK UNBOUND:                -0.128
REMARK  Name = 
REMARK  5 active torsions:
REMARK  status: ('A' for Active; 'I' for Inactive)
REMARK    1  A    between atoms: C_2  and  C_4
REMARK    2  A    between atoms: C_8  and  O_9
REMARK    3  A    between atoms: O_9  and  C_10
REMARK    4  A    between atoms: C_10  and  C_11
REMARK    5  A    between atoms: C_16  and  C_17
REMARK                            x       y       z     vdW  Elec       q    Type
REMARK                         _______ _______ _______ _____ _____    ______ ____
ROOT
ATOM      1  C   UNL     1      47.782   7.098  14.099  0.00  0.00    +0.000 A 
ATOM      2  C   UNL     1      47.312   8.374  13.812  0.00  0.00    +0.000 A 
ATOM      3  F   UNL     1      47.922   9.444  14.342  0.00  0.00    +0.000 F 
ATOM      4  C   UNL     1      46.211   8.571  12.982  0.00  0.00    +0.000 A 
ATOM      5  C   UNL     1      45.599   7.481  12.358  0.00  0.00    +0.000 A 
ATOM      6  C   UNL     1      46.118   6.194  12.535  0.00  0.00    +0.000 A 
ATOM      7  C   UNL     1      47.169   6.021  13.459  0.00  0.00    +0.000 A 
ATOM      8  F   UNL     1      47.624   4.781  13.704  0.00  0.00    +0.000 F 
ENDROOT
BRANCH   6   9
ATOM      9  C   UNL     1      45.751   5.016  11.639  0.00  0.00    +0.000 C 
ATOM     10  C   UNL     1      44.660   5.475  10.646  0.00  0.00    +0.000 C 
ATOM     11  C   UNL     1      43.244   5.345  11.210  0.00  0.00    +0.000 C 
ATOM     12  C   UNL     1      42.998   3.956  11.785  0.00  0.00    +0.000 C 
ATOM     13  N   UNL     1      43.975   3.630  12.823  0.00  0.00    +0.000 NA
ATOM     14  C   UNL     1      45.349   3.681  12.307  0.00  0.00    +0.000 C 
ATOM     15  H   UNL     1      43.786   2.686  13.165  0.00  0.00    +0.000 HD
ENDBRANCH   6   9
BRANCH   1  16
ATOM     16  C   UNL     1      48.938   6.889  15.030  0.00  0.00    +0.000 C 
BRANCH  16  17
ATOM     17  O   UNL     1      48.459   6.602  16.347  0.00  0.00    +0.000 OA
BRANCH  17  22
ATOM     18  C   UNL     1      49.440   3.146  17.262  0.00  0.00    +0.000 A 
ATOM     19  C   UNL     1      48.159   2.652  17.456  0.00  0.00    +0.000 A 
ATOM     20  N   UNL     1      47.044   3.409  17.326  0.00  0.00    +0.000 NA
ATOM     21  C   UNL     1      47.227   4.703  16.964  0.00  0.00    +0.000 A 
ATOM     22  C   UNL     1      48.465   5.286  16.722  0.00  0.00    +0.000 A 
ATOM     23  C   UNL     1      49.593   4.483  16.878  0.00  0.00    +0.000 A 
BRANCH  18  25
ATOM     24  N   UNL     1      51.581   2.672  18.299  0.00  0.00    +0.000 N 
ATOM     25  C   UNL     1      50.594   2.243  17.447  0.00  0.00    +0.000 C 
ATOM     26  O   UNL     1      50.658   1.156  16.905  0.00  0.00    +0.000 OA
ATOM     27  H   UNL     1      52.310   2.001  18.498  0.00  0.00    +0.000 HD
ATOM     28  H   UNL     1      51.439   3.415  18.971  0.00  0.00    +0.000 HD
ENDBRANCH  18  25
ENDBRANCH  17  22
ENDBRANCH  16  17
ENDBRANCH   1  16
TORSDOF 5
ENDMDL
