MODEL 1
REMARK VINA RESULT:    -8.427      0.000      0.000
REMARK INTER + INTRA:         -12.578
REMARK INTER:                 -11.629
REMARK INTRA:                  -0.949
REMARK UNBOUND:                -0.949
REMARK  Name = 
REMARK  7 active torsions:
REMARK  status: ('A' for Active; 'I' for Inactive)
REMARK    1  A    between atoms: C_2  and  C_4
REMARK    2  A    between atoms: N_8  and  C_9
REMARK    3  A    between atoms: C_9  and  C_10
REMARK    4  A    between atoms: C_10  and  C_11
REMARK    5  A    between atoms: C_13  and  O_14
REMARK    6  A    between atoms: O_14  and  C_15
REMARK    7  A    between atoms: C_21  and  O_22
REMARK                            x       y       z     vdW  Elec       q    Type
REMARK                         _______ _______ _______ _____ _____    ______ ____
ROOT
ATOM      1  C   UNL     1      43.281   4.012  11.178  0.00  0.00    +0.000 C 
ENDROOT
BRANCH   1   6
ATOM      2  C   UNL     1      46.539   2.454   7.585  0.00  0.00    +0.000 A 
ATOM      3  C   UNL     1      45.731   1.706   8.434  0.00  0.00    +0.000 A 
ATOM      4  C   UNL     1      44.785   2.361   9.224  0.00  0.00    +0.000 A 
ATOM      5  C   UNL     1      44.674   3.747   9.171  0.00  0.00    +0.000 A 
ATOM      6  N   UNL     1      43.694   4.455   9.851  0.00  0.00    +0.000 N 
ATOM      7  N   UNL     1      45.477   4.483   8.377  0.00  0.00    +0.000 NA
ATOM      8  C   UNL     1      46.393   3.831   7.609  0.00  0.00    +0.000 A 
ATOM      9  H   UNL     1      43.936   5.442   9.771  0.00  0.00    +0.000 HD
BRANCH   2  11
ATOM     10  N   UNL     1      48.631   2.580   6.363  0.00  0.00    +0.000 N 
ATOM     11  C   UNL     1      47.522   1.841   6.670  0.00  0.00    +0.000 C 
ATOM     12  O   UNL     1      47.376   0.707   6.235  0.00  0.00    +0.000 OA
ATOM     13  H   UNL     1      49.352   2.108   5.833  0.00  0.00    +0.000 HD
ATOM     14  H   UNL     1      48.909   3.392   6.899  0.00  0.00    +0.000 HD
ENDBRANCH   2  11
ENDBRANCH   1   6
BRANCH   1  15
ATOM     15  C   UNL     1      43.396   5.159  12.190  0.00  0.00    +0.000 C 
BRANCH  15  16
ATOM     16  C   UNL     1      44.840   5.496  12.501  0.00  0.00    +0.000 A 
ATOM     17  C   UNL     1      45.565   4.745  13.450  0.00  0.00    +0.000 A 
ATOM     18  C   UNL     1      46.904   5.047  13.711  0.00  0.00    +0.000 A 
ATOM     19  C   UNL     1      47.530   6.086  13.020  0.00  0.00    +0.000 A 
ATOM     20  C   UNL     1      46.828   6.835  12.079  0.00  0.00    +0.000 A 
ATOM     21  C   UNL     1      45.494   6.534  11.822  0.00  0.00    +0.000 A 
BRANCH  21  22
ATOM     22  O   UNL     1      44.802   7.243  10.884  0.00  0.00    +0.000 OA
ATOM     23  H   UNL     1      45.395   7.442  10.139  0.00  0.00    +0.000 HD
ENDBRANCH  21  22
BRANCH  18  24
ATOM     24  O   UNL     1      47.725   4.371  14.576  0.00  0.00    +0.000 OA
BRANCH  24  25
ATOM     25  C   UNL     1      47.343   4.231  15.960  0.00  0.00    +0.000 C 
ATOM     26  C   UNL     1      48.128   5.018  17.022  0.00  0.00    +0.000 C 
ATOM     27  O   UNL     1      48.340   3.819  17.810  0.00  0.00    +0.000 OA
ATOM     28  C   UNL     1      47.951   3.008  16.673  0.00  0.00    +0.000 C 
ENDBRANCH  24  25
ENDBRANCH  18  24
ENDBRANCH  15  16
ENDBRANCH   1  15
TORSDOF 7
ENDMDL
MODEL 2
REMARK VINA RESULT:    -7.482      2.146      4.088
REMARK INTER + INTRA:         -11.274
REMARK INTER:                 -10.294
REMARK INTRA:                  -0.980
REMARK UNBOUND:                -0.949
REMARK  Name = 
REMARK  7 active torsions:
REMARK  status: ('A' for Active; 'I' for Inactive)
REMARK    1  A    between atoms: C_2  and  C_4
REMARK    2  A    between atoms: N_8  and  C_9
REMARK    3  A    between atoms: C_9  and  C_10
REMARK    4  A    between atoms: C_10  and  C_11
REMARK    5  A    between atoms: C_13  and  O_14
REMARK    6  A    between atoms: O_14  and  C_15
REMARK    7  A    between atoms: C_21  and  O_22
REMARK                            x       y       z     vdW  Elec       q    Type
REMARK                         _______ _______ _______ _____ _____    ______ ____
ROOT
ATOM      1  C   UNL     1      43.267   3.679  11.346  0.00  0.00    +0.000 C 
ENDROOT
BRANCH   1   6
ATOM      2  C   UNL     1      46.399   2.818   7.422  0.00  0.00    +0.000 A 
ATOM      3  C   UNL     1      46.038   4.019   8.021  0.00  0.00    +0.000 A 
ATOM      4  C   UNL     1      45.295   3.993   9.202  0.00  0.00    +0.000 A 
ATOM      5  C   UNL     1      44.906   2.776   9.753  0.00  0.00    +0.000 A 
ATOM      6  N   UNL     1      44.253   2.670  10.972  0.00  0.00    +0.000 N 
ATOM      7  N   UNL     1      45.221   1.608   9.159  0.00  0.00    +0.000 NA
ATOM      8  C   UNL     1      45.951   1.647   8.011  0.00  0.00    +0.000 A 
ATOM      9  H   UNL     1      43.947   1.702  11.058  0.00  0.00    +0.000 HD
BRANCH   2  11
ATOM     10  N   UNL     1      48.591   2.704   6.389  0.00  0.00    +0.000 N 
ATOM     11  C   UNL     1      47.236   2.750   6.208  0.00  0.00    +0.000 C 
ATOM     12  O   UNL     1      46.745   2.696   5.089  0.00  0.00    +0.000 OA
ATOM     13  H   UNL     1      49.149   2.540   5.560  0.00  0.00    +0.000 HD
ATOM     14  H   UNL     1      49.014   2.484   7.281  0.00  0.00    +0.000 HD
ENDBRANCH   2  11
ENDBRANCH   1   6
BRANCH   1  15
ATOM     15  C   UNL     1      43.491   4.141  12.792  0.00  0.00    +0.000 C 
BRANCH  15  16
ATOM     16  C   UNL     1      44.672   5.083  12.907  0.00  0.00    +0.000 A 
ATOM     17  C   UNL     1      44.486   6.480  12.844  0.00  0.00    +0.000 A 
ATOM     18  C   UNL     1      45.578   7.341  12.977  0.00  0.00    +0.000 A 
ATOM     19  C   UNL     1      46.854   6.818  13.189  0.00  0.00    +0.000 A 
ATOM     20  C   UNL     1      47.053   5.441  13.255  0.00  0.00    +0.000 A 
ATOM     21  C   UNL     1      45.965   4.584  13.120  0.00  0.00    +0.000 A 
BRANCH  21  22
ATOM     22  O   UNL     1      46.142   3.235  13.209  0.00  0.00    +0.000 OA
ATOM     23  H   UNL     1      46.381   2.890  12.332  0.00  0.00    +0.000 HD
ENDBRANCH  21  22
BRANCH  18  24
ATOM     24  O   UNL     1      45.523   8.711  12.974  0.00  0.00    +0.000 OA
BRANCH  24  25
ATOM     25  C   UNL     1      46.120   9.447  11.886  0.00  0.00    +0.000 C 
ATOM     26  C   UNL     1      47.325  10.352  12.184  0.00  0.00    +0.000 C 
ATOM     27  O   UNL     1      46.697  11.476  11.517  0.00  0.00    +0.000 OA
ATOM     28  C   UNL     1      45.424  10.781  11.556  0.00  0.00    +0.000 C 
ENDBRANCH  24  25
ENDBRANCH  18  24
ENDBRANCH  15  16
ENDBRANCH   1  15
TORSDOF 7
ENDMDL
MODEL 3
REMARK VINA RESULT:    -7.160      2.063      3.434
REMARK INTER + INTRA:         -10.830
REMARK INTER:                 -10.072
REMARK INTRA:                  -0.757
REMARK UNBOUND:                -0.949
REMARK  Name = 
REMARK  7 active torsions:
REMARK  status: ('A' for Active; 'I' for Inactive)
REMARK    1  A    between atoms: C_2  and  C_4
REMARK    2  A    between atoms: N_8  and  C_9
REMARK    3  A    between atoms: C_9  and  C_10
REMARK    4  A    between atoms: C_10  and  C_11
REMARK    5  A    between atoms: C_13  and  O_14
REMARK    6  A    between atoms: O_14  and  C_15
REMARK    7  A    between atoms: C_21  and  O_22
REMARK                            x       y       z     vdW  Elec       q    Type
REMARK                         _______ _______ _______ _____ _____    ______ ____
ROOT
ATOM      1  C   UNL     1      43.334   4.885  10.496  0.00  0.00    +0.000 C 
ENDROOT
BRANCH   1   6
ATOM      2  C   UNL     1      46.612   2.385   7.503  0.00  0.00    +0.000 A 
ATOM      3  C   UNL     1      46.413   3.753   7.653  0.00  0.00    +0.000 A 
ATOM      4  C   UNL     1      45.572   4.211   8.668  0.00  0.00    +0.000 A 
ATOM      5  C   UNL     1      44.928   3.301   9.501  0.00  0.00    +0.000 A 
ATOM      6  N   UNL     1      44.158   3.684  10.589  0.00  0.00    +0.000 N 
ATOM      7  N   UNL     1      45.087   1.973   9.340  0.00  0.00    +0.000 NA
ATOM      8  C   UNL     1      45.913   1.539   8.349  0.00  0.00    +0.000 A 
ATOM      9  H   UNL     1      43.680   2.847  10.921  0.00  0.00    +0.000 HD
BRANCH   2  11
ATOM     10  N   UNL     1      48.672   2.520   6.230  0.00  0.00    +0.000 N 
ATOM     11  C   UNL     1      47.531   1.815   6.498  0.00  0.00    +0.000 C 
ATOM     12  O   UNL     1      47.307   0.742   5.956  0.00  0.00    +0.000 OA
ATOM     13  H   UNL     1      49.349   2.066   5.630  0.00  0.00    +0.000 HD
ATOM     14  H   UNL     1      49.012   3.257   6.835  0.00  0.00    +0.000 HD
ENDBRANCH   2  11
ENDBRANCH   1   6
BRANCH   1  15
ATOM     15  C   UNL     1      43.553   5.785  11.719  0.00  0.00    +0.000 C 
BRANCH  15  16
ATOM     16  C   UNL     1      45.003   5.797  12.159  0.00  0.00    +0.000 A 
ATOM     17  C   UNL     1      45.912   6.729  11.617  0.00  0.00    +0.000 A 
ATOM     18  C   UNL     1      47.240   6.749  12.048  0.00  0.00    +0.000 A 
ATOM     19  C   UNL     1      47.665   5.853  13.030  0.00  0.00    +0.000 A 
ATOM     20  C   UNL     1      46.779   4.927  13.576  0.00  0.00    +0.000 A 
ATOM     21  C   UNL     1      45.457   4.907  13.144  0.00  0.00    +0.000 A 
BRANCH  21  22
ATOM     22  O   UNL     1      44.572   4.024  13.690  0.00  0.00    +0.000 OA
ATOM     23  H   UNL     1      43.781   3.982  13.126  0.00  0.00    +0.000 HD
ENDBRANCH  21  22
BRANCH  18  24
ATOM     24  O   UNL     1      48.206   7.627  11.631  0.00  0.00    +0.000 OA
BRANCH  24  25
ATOM     25  C   UNL     1      48.117   9.018  12.005  0.00  0.00    +0.000 C 
ATOM     26  C   UNL     1      49.415   9.783  12.305  0.00  0.00    +0.000 C 
ATOM     27  O   UNL     1      48.890  10.255  13.573  0.00  0.00    +0.000 OA
ATOM     28  C   UNL     1      47.835   9.263  13.500  0.00  0.00    +0.000 C 
ENDBRANCH  24  25
ENDBRANCH  18  24
ENDBRANCH  15  16
ENDBRANCH   1  15
TORSDOF 7
ENDMDL
MODEL 4
REMARK VINA RESULT:    -7.155      1.897      2.217
REMARK INTER + INTRA:         -10.823
REMARK INTER:                 -10.334
REMARK INTRA:                  -0.488
REMARK UNBOUND:                -0.949
REMARK  Name = 
REMARK  7 active torsions:
REMARK  status: ('A' for Active; 'I' for Inactive)
REMARK    1  A    between atoms: C_2  and  C_4
REMARK    2  A    between atoms: N_8  and  C_9
REMARK    3  A    between atoms: C_9  and  C_10
REMARK    4  A    between atoms: C_10  and  C_11
REMARK    5  A    between atoms: C_13  and  O_14
REMARK    6  A    between atoms: O_14  and  C_15
REMARK    7  A    between atoms: C_21  and  O_22
REMARK                            x       y       z     vdW  Elec       q    Type
REMARK                         _______ _______ _______ _____ _____    ______ ____
ROOT
ATOM      1  C   UNL     1      43.241   3.828  11.262  0.00  0.00    +0.000 C 
ENDROOT
BRANCH   1   6
ATOM      2  C   UNL     1      46.428   2.848   7.411  0.00  0.00    +0.000 A 
ATOM      3  C   UNL     1      45.970   4.069   7.894  0.00  0.00    +0.000 A 
ATOM      4  C   UNL     1      45.233   4.097   9.079  0.00  0.00    +0.000 A 
ATOM      5  C   UNL     1      44.946   2.912   9.749  0.00  0.00    +0.000 A 
ATOM      6  N   UNL     1      44.306   2.872  10.978  0.00  0.00    +0.000 N 
ATOM      7  N   UNL     1      45.356   1.721   9.268  0.00  0.00    +0.000 NA
ATOM      8  C   UNL     1      46.078   1.708   8.114  0.00  0.00    +0.000 A 
ATOM      9  H   UNL     1      44.081   1.895  11.161  0.00  0.00    +0.000 HD
BRANCH   2  11
ATOM     10  N   UNL     1      48.605   2.528   6.390  0.00  0.00    +0.000 N 
ATOM     11  C   UNL     1      47.266   2.731   6.201  0.00  0.00    +0.000 C 
ATOM     12  O   UNL     1      46.784   2.773   5.077  0.00  0.00    +0.000 OA
ATOM     13  H   UNL     1      49.150   2.332   5.560  0.00  0.00    +0.000 HD
ATOM     14  H   UNL     1      48.990   2.231   7.277  0.00  0.00    +0.000 HD
ENDBRANCH   2  11
ENDBRANCH   1   6
BRANCH   1  15
ATOM     15  C   UNL     1      43.469   4.501  12.622  0.00  0.00    +0.000 C 
BRANCH  15  16
ATOM     16  C   UNL     1      44.592   5.517  12.569  0.00  0.00    +0.000 A 
ATOM     17  C   UNL     1      45.806   5.284  13.248  0.00  0.00    +0.000 A 
ATOM     18  C   UNL     1      46.844   6.216  13.172  0.00  0.00    +0.000 A 
ATOM     19  C   UNL     1      46.684   7.374  12.409  0.00  0.00    +0.000 A 
ATOM     20  C   UNL     1      45.491   7.617  11.732  0.00  0.00    +0.000 A 
ATOM     21  C   UNL     1      44.457   6.689  11.810  0.00  0.00    +0.000 A 
BRANCH  21  22
ATOM     22  O   UNL     1      43.294   6.903  11.131  0.00  0.00    +0.000 OA
ATOM     23  H   UNL     1      43.353   6.469  10.262  0.00  0.00    +0.000 HD
ENDBRANCH  21  22
BRANCH  18  24
ATOM     24  O   UNL     1      48.080   6.088  13.749  0.00  0.00    +0.000 OA
BRANCH  24  25
ATOM     25  C   UNL     1      48.355   6.750  15.001  0.00  0.00    +0.000 C 
ATOM     26  C   UNL     1      48.541   8.275  15.001  0.00  0.00    +0.000 C 
ATOM     27  O   UNL     1      49.792   8.163  15.727  0.00  0.00    +0.000 OA
ATOM     28  C   UNL     1      49.838   6.747  15.417  0.00  0.00    +0.000 C 
ENDBRANCH  24  25
ENDBRANCH  18  24
ENDBRANCH  15  16
ENDBRANCH   1  15
TORSDOF 7
ENDMDL
MODEL 5
REMARK VINA RESULT:    -7.099      3.078      8.187
REMARK INTER + INTRA:         -10.746
REMARK INTER:                 -10.040
REMARK INTRA:                  -0.706
REMARK UNBOUND:                -0.949
REMARK  Name = 
REMARK  7 active torsions:
REMARK  status: ('A' for Active; 'I' for Inactive)
REMARK    1  A    between atoms: C_2  and  C_4
REMARK    2  A    between atoms: N_8  and  C_9
REMARK    3  A    between atoms: C_9  and  C_10
REMARK    4  A    between atoms: C_10  and  C_11
REMARK    5  A    between atoms: C_13  and  O_14
REMARK    6  A    between atoms: O_14  and  C_15
REMARK    7  A    between atoms: C_21  and  O_22
REMARK                            x       y       z     vdW  Elec       q    Type
REMARK                         _______ _______ _______ _____ _____    ______ ____
ROOT
ATOM      1  C   UNL     1      46.609   5.829  12.401  0.00  0.00    +0.000 C 
ENDROOT
BRANCH   1   6
ATOM      2  C   UNL     1      48.424   4.356  16.927  0.00  0.00    +0.000 A 
ATOM      3  C   UNL     1      48.454   5.609  16.325  0.00  0.00    +0.000 A 
ATOM      4  C   UNL     1      47.734   5.814  15.147  0.00  0.00    +0.000 A 
ATOM      5  C   UNL     1      47.016   4.766  14.579  0.00  0.00    +0.000 A 
ATOM      6  N   UNL     1      46.201   4.921  13.467  0.00  0.00    +0.000 N 
ATOM      7  N   UNL     1      47.011   3.539  15.136  0.00  0.00    +0.000 NA
ATOM      8  C   UNL     1      47.713   3.353  16.288  0.00  0.00    +0.000 A 
ATOM      9  H   UNL     1      45.929   3.985  13.169  0.00  0.00    +0.000 HD
BRANCH   2  11
ATOM     10  N   UNL     1      48.465   3.223  19.072  0.00  0.00    +0.000 N 
ATOM     11  C   UNL     1      49.104   4.066  18.205  0.00  0.00    +0.000 C 
ATOM     12  O   UNL     1      50.207   4.526  18.466  0.00  0.00    +0.000 OA
ATOM     13  H   UNL     1      48.990   2.939  19.889  0.00  0.00    +0.000 HD
ATOM     14  H   UNL     1      47.697   2.630  18.787  0.00  0.00    +0.000 HD
ENDBRANCH   2  11
ENDBRANCH   1   6
BRANCH   1  15
ATOM     15  C   UNL     1      45.424   6.148  11.481  0.00  0.00    +0.000 C 
BRANCH  15  16
ATOM     16  C   UNL     1      45.189   5.053  10.461  0.00  0.00    +0.000 A 
ATOM     17  C   UNL     1      45.849   5.077   9.215  0.00  0.00    +0.000 A 
ATOM     18  C   UNL     1      45.645   4.048   8.291  0.00  0.00    +0.000 A 
ATOM     19  C   UNL     1      44.797   2.987   8.609  0.00  0.00    +0.000 A 
ATOM     20  C   UNL     1      44.139   2.948   9.836  0.00  0.00    +0.000 A 
ATOM     21  C   UNL     1      44.341   3.974  10.754  0.00  0.00    +0.000 A 
BRANCH  21  22
ATOM     22  O   UNL     1      43.724   3.936  11.970  0.00  0.00    +0.000 OA
ATOM     23  H   UNL     1      44.263   4.428  12.612  0.00  0.00    +0.000 HD
ENDBRANCH  21  22
BRANCH  18  24
ATOM     24  O   UNL     1      46.256   3.935   7.069  0.00  0.00    +0.000 OA
BRANCH  24  25
ATOM     25  C   UNL     1      46.569   2.628   6.546  0.00  0.00    +0.000 C 
ATOM     26  C   UNL     1      47.949   2.025   6.853  0.00  0.00    +0.000 C 
ATOM     27  O   UNL     1      48.181   1.741   5.449  0.00  0.00    +0.000 OA
ATOM     28  C   UNL     1      47.087   2.625   5.095  0.00  0.00    +0.000 C 
ENDBRANCH  24  25
ENDBRANCH  18  24
ENDBRANCH  15  16
ENDBRANCH   1  15
TORSDOF 7
ENDMDL
MODEL 6
REMARK VINA RESULT:    -6.122      3.221      5.107
REMARK INTER + INTRA:          -9.397
REMARK INTER:                  -8.525
REMARK INTRA:                  -0.872
REMARK UNBOUND:                -0.949
REMARK  Name = 
REMARK  7 active torsions:
REMARK  status: ('A' for Active; 'I' for Inactive)
REMARK    1  A    between atoms: C_2  and  C_4
REMARK    2  A    between atoms: N_8  and  C_9
REMARK    3  A    between atoms: C_9  and  C_10
REMARK    4  A    between atoms: C_10  and  C_11
REMARK    5  A    between atoms: C_13  and  O_14
REMARK    6  A    between atoms: O_14  and  C_15
REMARK    7  A    between atoms: C_21  and  O_22
REMARK                            x       y       z     vdW  Elec       q    Type
REMARK                         _______ _______ _______ _____ _____    ______ ____
ROOT
ATOM      1  C   UNL     1      48.879   7.458  12.750  0.00  0.00    +0.000 C 
ENDROOT
BRANCH   1   6
ATOM      2  C   UNL     1      44.871   4.436  11.886  0.00  0.00    +0.000 A 
ATOM      3  C   UNL     1      45.553   4.686  13.071  0.00  0.00    +0.000 A 
ATOM      4  C   UNL     1      46.519   5.693  13.100  0.00  0.00    +0.000 A 
ATOM      5  C   UNL     1      46.804   6.416  11.945  0.00  0.00    +0.000 A 
ATOM      6  N   UNL     1      47.678   7.493  11.922  0.00  0.00    +0.000 N 
ATOM      7  N   UNL     1      46.172   6.156  10.783  0.00  0.00    +0.000 NA
ATOM      8  C   UNL     1      45.229   5.174  10.771  0.00  0.00    +0.000 A 
ATOM      9  H   UNL     1      47.825   7.731  10.942  0.00  0.00    +0.000 HD
BRANCH   2  11
ATOM     10  N   UNL     1      43.886   2.333  12.588  0.00  0.00    +0.000 N 
ATOM     11  C   UNL     1      43.792   3.433  11.781  0.00  0.00    +0.000 C 
ATOM     12  O   UNL     1      42.834   3.593  11.037  0.00  0.00    +0.000 OA
ATOM     13  H   UNL     1      43.086   1.712  12.594  0.00  0.00    +0.000 HD
ATOM     14  H   UNL     1      44.507   2.294  13.385  0.00  0.00    +0.000 HD
ENDBRANCH   2  11
ENDBRANCH   1   6
BRANCH   1  15
ATOM     15  C   UNL     1      48.807   8.527  13.849  0.00  0.00    +0.000 C 
BRANCH  15  16
ATOM     16  C   UNL     1      48.795   7.913  15.235  0.00  0.00    +0.000 A 
ATOM     17  C   UNL     1      49.177   6.569  15.429  0.00  0.00    +0.000 A 
ATOM     18  C   UNL     1      49.187   6.020  16.713  0.00  0.00    +0.000 A 
ATOM     19  C   UNL     1      48.832   6.808  17.809  0.00  0.00    +0.000 A 
ATOM     20  C   UNL     1      48.454   8.137  17.633  0.00  0.00    +0.000 A 
ATOM     21  C   UNL     1      48.442   8.682  16.353  0.00  0.00    +0.000 A 
BRANCH  21  22
ATOM     22  O   UNL     1      48.100   9.989  16.170  0.00  0.00    +0.000 OA
ATOM     23  H   UNL     1      48.634  10.356  15.444  0.00  0.00    +0.000 HD
ENDBRANCH  21  22
BRANCH  18  24
ATOM     24  O   UNL     1      49.575   4.745  17.038  0.00  0.00    +0.000 OA
BRANCH  24  25
ATOM     25  C   UNL     1      48.661   3.648  16.834  0.00  0.00    +0.000 C 
ATOM     26  C   UNL     1      47.239   3.957  16.341  0.00  0.00    +0.000 C 
ATOM     27  O   UNL     1      46.655   3.170  17.412  0.00  0.00    +0.000 OA
ATOM     28  C   UNL     1      47.929   3.178  18.105  0.00  0.00    +0.000 C 
ENDBRANCH  24  25
ENDBRANCH  18  24
ENDBRANCH  15  16
ENDBRANCH   1  15
TORSDOF 7
ENDMDL
MODEL 7
REMARK VINA RESULT:    -6.104      3.757      6.604
REMARK INTER + INTRA:          -9.372
REMARK INTER:                  -8.663
REMARK INTRA:                  -0.709
REMARK UNBOUND:                -0.949
REMARK  Name = 
REMARK  7 active torsions:
REMARK  status: ('A' for Active; 'I' for Inactive)
REMARK    1  A    between atoms: C_2  and  C_4
REMARK    2  A    between atoms: N_8  and  C_9
REMARK    3  A    between atoms: C_9  and  C_10
REMARK    4  A    between atoms: C_10  and  C_11
REMARK    5  A    between atoms: C_13  and  O_14
REMARK    6  A    between atoms: O_14  and  C_15
REMARK    7  A    between atoms: C_21  and  O_22
REMARK                            x       y       z     vdW  Elec       q    Type
REMARK                         _______ _______ _______ _____ _____    ______ ____
ROOT
ATOM      1  C   UNL     1      47.443   4.428  15.945  0.00  0.00    +0.000 C 
ENDROOT
BRANCH   1   6
ATOM      2  C   UNL     1      44.882   4.616  11.545  0.00  0.00    +0.000 A 
ATOM      3  C   UNL     1      45.457   5.646  12.281  0.00  0.00    +0.000 A 
ATOM      4  C   UNL     1      46.264   5.331  13.375  0.00  0.00    +0.000 A 
ATOM      5  C   UNL     1      46.466   4.000  13.731  0.00  0.00    +0.000 A 
ATOM      6  N   UNL     1      47.331   3.609  14.742  0.00  0.00    +0.000 N 
ATOM      7  N   UNL     1      45.883   2.997  13.044  0.00  0.00    +0.000 NA
ATOM      8  C   UNL     1      45.102   3.318  11.976  0.00  0.00    +0.000 A 
ATOM      9  H   UNL     1      47.170   2.616  14.899  0.00  0.00    +0.000 HD
BRANCH   2  11
ATOM     10  N   UNL     1      44.646   4.575   9.131  0.00  0.00    +0.000 N 
ATOM     11  C   UNL     1      44.066   4.855  10.338  0.00  0.00    +0.000 C 
ATOM     12  O   UNL     1      42.910   5.247  10.409  0.00  0.00    +0.000 OA
ATOM     13  H   UNL     1      44.042   4.630   8.320  0.00  0.00    +0.000 HD
ATOM     14  H   UNL     1      45.483   4.013   9.047  0.00  0.00    +0.000 HD
ENDBRANCH   2  11
ENDBRANCH   1   6
BRANCH   1  15
ATOM     15  C   UNL     1      47.682   3.546  17.177  0.00  0.00    +0.000 C 
BRANCH  15  16
ATOM     16  C   UNL     1      49.157   3.416  17.501  0.00  0.00    +0.000 A 
ATOM     17  C   UNL     1      49.776   4.305  18.404  0.00  0.00    +0.000 A 
ATOM     18  C   UNL     1      51.130   4.161  18.716  0.00  0.00    +0.000 A 
ATOM     19  C   UNL     1      51.869   3.125  18.142  0.00  0.00    +0.000 A 
ATOM     20  C   UNL     1      51.271   2.239  17.249  0.00  0.00    +0.000 A 
ATOM     21  C   UNL     1      49.923   2.385  16.938  0.00  0.00    +0.000 A 
BRANCH  21  22
ATOM     22  O   UNL     1      49.319   1.507  16.086  0.00  0.00    +0.000 OA
ATOM     23  H   UNL     1      49.980   0.866  15.774  0.00  0.00    +0.000 HD
ENDBRANCH  21  22
BRANCH  18  24
ATOM     24  O   UNL     1      51.834   4.930  19.605  0.00  0.00    +0.000 OA
BRANCH  24  25
ATOM     25  C   UNL     1      53.095   4.454  20.119  0.00  0.00    +0.000 C 
ATOM     26  C   UNL     1      53.214   4.168  21.625  0.00  0.00    +0.000 C 
ATOM     27  O   UNL     1      54.414   4.977  21.724  0.00  0.00    +0.000 OA
ATOM     28  C   UNL     1      54.122   5.560  20.428  0.00  0.00    +0.000 C 
ENDBRANCH  24  25
ENDBRANCH  18  24
ENDBRANCH  15  16
ENDBRANCH   1  15
TORSDOF 7
ENDMDL
MODEL 8
REMARK VINA RESULT:    -6.054      4.605      8.315
REMARK INTER + INTRA:          -9.303
REMARK INTER:                  -9.070
REMARK INTRA:                  -0.233
REMARK UNBOUND:                -0.949
REMARK  Name = 
REMARK  7 active torsions:
REMARK  status: ('A' for Active; 'I' for Inactive)
REMARK    1  A    between atoms: C_2  and  C_4
REMARK    2  A    between atoms: N_8  and  C_9
REMARK    3  A    between atoms: C_9  and  C_10
REMARK    4  A    between atoms: C_10  and  C_11
REMARK    5  A    between atoms: C_13  and  O_14
REMARK    6  A    between atoms: O_14  and  C_15
REMARK    7  A    between atoms: C_21  and  O_22
REMARK                            x       y       z     vdW  Elec       q    Type
REMARK                         _______ _______ _______ _____ _____    ______ ____
ROOT
ATOM      1  C   UNL     1      47.348   3.925  16.127  0.00  0.00    +0.000 C 
ENDROOT
BRANCH   1   6
ATOM      2  C   UNL     1      52.005   2.728  17.809  0.00  0.00    +0.000 A 
ATOM      3  C   UNL     1      51.342   3.950  17.829  0.00  0.00    +0.000 A 
ATOM      4  C   UNL     1      49.995   3.999  17.466  0.00  0.00    +0.000 A 
ATOM      5  C   UNL     1      49.338   2.837  17.071  0.00  0.00    +0.000 A 
ATOM      6  N   UNL     1      47.980   2.791  16.793  0.00  0.00    +0.000 N 
ATOM      7  N   UNL     1      49.983   1.654  17.015  0.00  0.00    +0.000 NA
ATOM      8  C   UNL     1      51.295   1.620  17.375  0.00  0.00    +0.000 A 
ATOM      9  H   UNL     1      47.796   1.879  16.379  0.00  0.00    +0.000 HD
BRANCH   2  11
ATOM     10  N   UNL     1      53.732   1.429  18.911  0.00  0.00    +0.000 N 
ATOM     11  C   UNL     1      53.410   2.574  18.235  0.00  0.00    +0.000 C 
ATOM     12  O   UNL     1      54.261   3.409  17.963  0.00  0.00    +0.000 OA
ATOM     13  H   UNL     1      54.716   1.279  19.095  0.00  0.00    +0.000 HD
ATOM     14  H   UNL     1      53.130   0.616  18.922  0.00  0.00    +0.000 HD
ENDBRANCH   2  11
ENDBRANCH   1   6
BRANCH   1  15
ATOM     15  C   UNL     1      47.478   3.798  14.604  0.00  0.00    +0.000 C 
BRANCH  15  16
ATOM     16  C   UNL     1      46.692   4.871  13.878  0.00  0.00    +0.000 A 
ATOM     17  C   UNL     1      45.333   4.675  13.558  0.00  0.00    +0.000 A 
ATOM     18  C   UNL     1      44.611   5.681  12.911  0.00  0.00    +0.000 A 
ATOM     19  C   UNL     1      45.233   6.889  12.594  0.00  0.00    +0.000 A 
ATOM     20  C   UNL     1      46.574   7.098  12.904  0.00  0.00    +0.000 A 
ATOM     21  C   UNL     1      47.293   6.094  13.547  0.00  0.00    +0.000 A 
BRANCH  21  22
ATOM     22  O   UNL     1      48.601   6.296  13.881  0.00  0.00    +0.000 OA
ATOM     23  H   UNL     1      48.639   6.849  14.680  0.00  0.00    +0.000 HD
ENDBRANCH  21  22
BRANCH  18  24
ATOM     24  O   UNL     1      43.280   5.629  12.584  0.00  0.00    +0.000 OA
BRANCH  24  25
ATOM     25  C   UNL     1      42.830   4.704  11.572  0.00  0.00    +0.000 C 
ATOM     26  C   UNL     1      43.232   3.226  11.696  0.00  0.00    +0.000 C 
ATOM     27  O   UNL     1      43.724   3.205  10.331  0.00  0.00    +0.000 OA
ATOM     28  C   UNL     1      43.710   4.655  10.309  0.00  0.00    +0.000 C 
ENDBRANCH  24  25
ENDBRANCH  18  24
ENDBRANCH  15  16
ENDBRANCH   1  15
TORSDOF 7
ENDMDL
MODEL 9
REMARK VINA RESULT:    -5.933      3.377      5.632
REMARK INTER + INTRA:          -9.136
REMARK INTER:                  -8.669
REMARK INTRA:                  -0.467
REMARK UNBOUND:                -0.949
REMARK  Name = 
REMARK  7 active torsions:
REMARK  status: ('A' for Active; 'I' for Inactive)
REMARK    1  A    between atoms: C_2  and  C_4
REMARK    2  A    between atoms: N_8  and  C_9
REMARK    3  A    between atoms: C_9  and  C_10
REMARK    4  A    between atoms: C_10  and  C_11
REMARK    5  A    between atoms: C_13  and  O_14
REMARK    6  A    between atoms: O_14  and  C_15
REMARK    7  A    between atoms: C_21  and  O_22
REMARK                            x       y       z     vdW  Elec       q    Type
REMARK                         _______ _______ _______ _____ _____    ______ ____
ROOT
ATOM      1  C   UNL     1      49.216   7.167  13.407  0.00  0.00    +0.000 C 
ENDROOT
BRANCH   1   6
ATOM      2  C   UNL     1      45.117   4.453  12.075  0.00  0.00    +0.000 A 
ATOM      3  C   UNL     1      45.927   4.341  13.199  0.00  0.00    +0.000 A 
ATOM      4  C   UNL     1      46.897   5.316  13.437  0.00  0.00    +0.000 A 
ATOM      5  C   UNL     1      47.058   6.370  12.543  0.00  0.00    +0.000 A 
ATOM      6  N   UNL     1      47.932   7.424  12.764  0.00  0.00    +0.000 N 
ATOM      7  N   UNL     1      46.301   6.466  11.432  0.00  0.00    +0.000 NA
ATOM      8  C   UNL     1      45.355   5.511  11.214  0.00  0.00    +0.000 A 
ATOM      9  H   UNL     1      47.972   7.959  11.898  0.00  0.00    +0.000 HD
BRANCH   2  11
ATOM     10  N   UNL     1      43.945   2.385  12.561  0.00  0.00    +0.000 N 
ATOM     11  C   UNL     1      44.026   3.503  11.778  0.00  0.00    +0.000 C 
ATOM     12  O   UNL     1      43.204   3.721  10.899  0.00  0.00    +0.000 OA
ATOM     13  H   UNL     1      43.128   1.802  12.428  0.00  0.00    +0.000 HD
ATOM     14  H   UNL     1      44.432   2.303  13.445  0.00  0.00    +0.000 HD
ENDBRANCH   2  11
ENDBRANCH   1   6
BRANCH   1  15
ATOM     15  C   UNL     1      49.256   7.798  14.804  0.00  0.00    +0.000 C 
BRANCH  15  16
ATOM     16  C   UNL     1      49.903   6.880  15.821  0.00  0.00    +0.000 A 
ATOM     17  C   UNL     1      49.121   5.997  16.594  0.00  0.00    +0.000 A 
ATOM     18  C   UNL     1      49.730   5.136  17.511  0.00  0.00    +0.000 A 
ATOM     19  C   UNL     1      51.119   5.141  17.651  0.00  0.00    +0.000 A 
ATOM     20  C   UNL     1      51.905   6.006  16.894  0.00  0.00    +0.000 A 
ATOM     21  C   UNL     1      51.296   6.864  15.983  0.00  0.00    +0.000 A 
BRANCH  21  22
ATOM     22  O   UNL     1      52.056   7.698  15.216  0.00  0.00    +0.000 OA
ATOM     23  H   UNL     1      51.767   8.614  15.367  0.00  0.00    +0.000 HD
ENDBRANCH  21  22
BRANCH  18  24
ATOM     24  O   UNL     1      49.088   4.208  18.288  0.00  0.00    +0.000 OA
BRANCH  24  25
ATOM     25  C   UNL     1      48.932   2.857  17.805  0.00  0.00    +0.000 C 
ATOM     26  C   UNL     1      50.109   2.201  17.066  0.00  0.00    +0.000 C 
ATOM     27  O   UNL     1      49.253   1.824  15.956  0.00  0.00    +0.000 OA
ATOM     28  C   UNL     1      48.238   2.742  16.434  0.00  0.00    +0.000 C 
ENDBRANCH  24  25
ENDBRANCH  18  24
ENDBRANCH  15  16
ENDBRANCH   1  15
TORSDOF 7
ENDMDL
