MODEL 1
REMARK VINA RESULT:    -7.412      0.000      0.000
REMARK INTER + INTRA:         -10.955
REMARK INTER:                 -10.011
REMARK INTRA:                  -0.944
REMARK UNBOUND:                -0.944
REMARK  Name = 
REMARK  7 active torsions:
REMARK  status: ('A' for Active; 'I' for Inactive)
REMARK    1  A    between atoms: C_1  and  O_2
REMARK    2  A    between atoms: O_2  and  C_3
REMARK    3  A    between atoms: C_8  and  C_9
REMARK    4  A    between atoms: C_9  and  N_10
REMARK    5  A    between atoms: C_14  and  C_15
REMARK    6  A    between atoms: C_15  and  N_16
REMARK    7  A    between atoms: C_17  and  C_19
REMARK                            x       y       z     vdW  Elec       q    Type
REMARK                         _______ _______ _______ _____ _____    ______ ____
ROOT
ATOM      1  N   UNL     1      51.192   6.396  16.852  0.00  0.00    +0.000 N 
ATOM      2  C   UNL     1      50.428   6.831  15.762  0.00  0.00    +0.000 A 
ATOM      3  C   UNL     1      50.895   7.944  15.063  0.00  0.00    +0.000 A 
ATOM      4  C   UNL     1      50.192   8.412  13.955  0.00  0.00    +0.000 A 
ATOM      5  C   UNL     1      49.060   7.726  13.527  0.00  0.00    +0.000 A 
ATOM      6  C   UNL     1      48.664   6.630  14.282  0.00  0.00    +0.000 A 
ATOM      7  N   UNL     1      49.316   6.175  15.382  0.00  0.00    +0.000 NA
ATOM      8  H   UNL     1      52.022   5.933  16.494  0.00  0.00    +0.000 HD
ENDROOT
BRANCH   1   9
ATOM      9  C   UNL     1      50.506   5.552  17.825  0.00  0.00    +0.000 C 
BRANCH   9  15
ATOM     10  C   UNL     1      50.216   3.065  17.231  0.00  0.00    +0.000 A 
ATOM     11  C   UNL     1      50.733   1.760  17.227  0.00  0.00    +0.000 A 
ATOM     12  C   UNL     1      52.032   1.501  17.669  0.00  0.00    +0.000 A 
ATOM     13  C   UNL     1      52.837   2.544  18.104  0.00  0.00    +0.000 A 
ATOM     14  C   UNL     1      52.334   3.844  18.116  0.00  0.00    +0.000 A 
ATOM     15  C   UNL     1      51.019   4.126  17.688  0.00  0.00    +0.000 A 
BRANCH  10  17
ATOM     16  C   UNL     1      47.870   3.034  17.615  0.00  0.00    +0.000 C 
ATOM     17  O   UNL     1      48.964   3.389  16.777  0.00  0.00    +0.000 OA
ENDBRANCH  10  17
ENDBRANCH   9  15
ENDBRANCH   1   9
BRANCH   5  18
ATOM     18  C   UNL     1      48.301   8.164  12.313  0.00  0.00    +0.000 C 
BRANCH  18  19
ATOM     19  N   UNL     1      47.588   7.072  11.702  0.00  0.00    +0.000 N 
ATOM     20  C   UNL     1      46.223   6.967  11.717  0.00  0.00    +0.000 C 
ATOM     21  O   UNL     1      45.504   7.802  12.262  0.00  0.00    +0.000 OA
ATOM     22  H   UNL     1      48.143   6.276  11.405  0.00  0.00    +0.000 HD
BRANCH  20  23
ATOM     23  C   UNL     1      45.654   5.834  10.975  0.00  0.00    +0.000 A 
ATOM     24  C   UNL     1      45.851   5.743   9.603  0.00  0.00    +0.000 A 
ATOM     25  S   UNL     1      45.158   4.354   8.900  0.00  0.00    +0.000 S 
ATOM     26  C   UNL     1      44.528   3.845  10.395  0.00  0.00    +0.000 A 
ATOM     27  N   UNL     1      43.783   2.712  10.490  0.00  0.00    +0.000 NA
ATOM     28  C   UNL     1      43.340   2.462  11.677  0.00  0.00    +0.000 A 
ATOM     29  N   UNL     1      43.588   3.234  12.782  0.00  0.00    +0.000 N 
ATOM     30  C   UNL     1      44.396   4.346  12.749  0.00  0.00    +0.000 A 
ATOM     31  O   UNL     1      44.714   4.931  13.776  0.00  0.00    +0.000 OA
ATOM     32  C   UNL     1      44.874   4.704  11.425  0.00  0.00    +0.000 A 
ATOM     33  H   UNL     1      43.242   2.961  13.689  0.00  0.00    +0.000 HD
ENDBRANCH  20  23
ENDBRANCH  18  19
ENDBRANCH   5  18
TORSDOF 6
ENDMDL
MODEL 2
REMARK VINA RESULT:    -7.159      3.669      8.558
REMARK INTER + INTRA:         -10.614
REMARK INTER:                 -10.191
REMARK INTRA:                  -0.423
REMARK UNBOUND:                -0.944
REMARK  Name = 
REMARK  7 active torsions:
REMARK  status: ('A' for Active; 'I' for Inactive)
REMARK    1  A    between atoms: C_1  and  O_2
REMARK    2  A    between atoms: O_2  and  C_3
REMARK    3  A    between atoms: C_8  and  C_9
REMARK    4  A    between atoms: C_9  and  N_10
REMARK    5  A    between atoms: C_14  and  C_15
REMARK    6  A    between atoms: C_15  and  N_16
REMARK    7  A    between atoms: C_17  and  C_19
REMARK                            x       y       z     vdW  Elec       q    Type
REMARK                         _______ _______ _______ _____ _____    ______ ____
ROOT
ATOM      1  N   UNL     1      44.690   6.524  10.760  0.00  0.00    +0.000 N 
ATOM      2  C   UNL     1      45.744   6.471  11.681  0.00  0.00    +0.000 A 
ATOM      3  C   UNL     1      46.839   7.302  11.443  0.00  0.00    +0.000 A 
ATOM      4  C   UNL     1      47.909   7.312  12.334  0.00  0.00    +0.000 A 
ATOM      5  C   UNL     1      47.844   6.532  13.484  0.00  0.00    +0.000 A 
ATOM      6  C   UNL     1      46.720   5.732  13.642  0.00  0.00    +0.000 A 
ATOM      7  N   UNL     1      45.680   5.684  12.770  0.00  0.00    +0.000 NA
ATOM      8  H   UNL     1      44.179   7.389  10.911  0.00  0.00    +0.000 HD
ENDROOT
BRANCH   1   9
ATOM      9  C   UNL     1      43.784   5.380  10.749  0.00  0.00    +0.000 C 
BRANCH   9  15
ATOM     10  C   UNL     1      44.137   2.925  10.065  0.00  0.00    +0.000 A 
ATOM     11  C   UNL     1      44.793   1.981   9.259  0.00  0.00    +0.000 A 
ATOM     12  C   UNL     1      45.674   2.386   8.253  0.00  0.00    +0.000 A 
ATOM     13  C   UNL     1      45.896   3.738   8.028  0.00  0.00    +0.000 A 
ATOM     14  C   UNL     1      45.252   4.683   8.826  0.00  0.00    +0.000 A 
ATOM     15  C   UNL     1      44.371   4.296   9.857  0.00  0.00    +0.000 A 
BRANCH  10  17
ATOM     16  C   UNL     1      43.696   2.667  12.388  0.00  0.00    +0.000 C 
ATOM     17  O   UNL     1      43.235   2.592  11.043  0.00  0.00    +0.000 OA
ENDBRANCH  10  17
ENDBRANCH   9  15
ENDBRANCH   1   9
BRANCH   5  18
ATOM     18  C   UNL     1      48.949   6.548  14.494  0.00  0.00    +0.000 C 
BRANCH  18  19
ATOM     19  N   UNL     1      48.467   6.866  15.813  0.00  0.00    +0.000 N 
ATOM     20  C   UNL     1      49.181   6.610  16.954  0.00  0.00    +0.000 C 
ATOM     21  O   UNL     1      50.291   6.084  16.932  0.00  0.00    +0.000 OA
ATOM     22  H   UNL     1      47.490   7.129  15.889  0.00  0.00    +0.000 HD
BRANCH  20  23
ATOM     23  C   UNL     1      48.577   7.074  18.211  0.00  0.00    +0.000 A 
ATOM     24  C   UNL     1      48.208   8.406  18.345  0.00  0.00    +0.000 A 
ATOM     25  S   UNL     1      47.492   8.773  19.847  0.00  0.00    +0.000 S 
ATOM     26  C   UNL     1      47.690   7.174  20.392  0.00  0.00    +0.000 A 
ATOM     27  N   UNL     1      47.304   6.811  21.645  0.00  0.00    +0.000 NA
ATOM     28  C   UNL     1      47.543   5.577  21.940  0.00  0.00    +0.000 A 
ATOM     29  N   UNL     1      48.118   4.668  21.090  0.00  0.00    +0.000 N 
ATOM     30  C   UNL     1      48.457   4.970  19.792  0.00  0.00    +0.000 A 
ATOM     31  O   UNL     1      48.835   4.103  19.016  0.00  0.00    +0.000 OA
ATOM     32  C   UNL     1      48.261   6.362  19.427  0.00  0.00    +0.000 A 
ATOM     33  H   UNL     1      48.243   3.707  21.372  0.00  0.00    +0.000 HD
ENDBRANCH  20  23
ENDBRANCH  18  19
ENDBRANCH   5  18
TORSDOF 6
ENDMDL
MODEL 3
REMARK VINA RESULT:    -7.068      1.672      2.649
REMARK INTER + INTRA:         -10.491
REMARK INTER:                  -9.362
REMARK INTRA:                  -1.129
REMARK UNBOUND:                -0.944
REMARK  Name = 
REMARK  7 active torsions:
REMARK  status: ('A' for Active; 'I' for Inactive)
REMARK    1  A    between atoms: C_1  and  O_2
REMARK    2  A    between atoms: O_2  and  C_3
REMARK    3  A    between atoms: C_8  and  C_9
REMARK    4  A    between atoms: C_9  and  N_10
REMARK    5  A    between atoms: C_14  and  C_15
REMARK    6  A    between atoms: C_15  and  N_16
REMARK    7  A    between atoms: C_17  and  C_19
REMARK                            x       y       z     vdW  Elec       q    Type
REMARK                         _______ _______ _______ _____ _____    ______ ____
ROOT
ATOM      1  N   UNL     1      51.116   6.615  16.654  0.00  0.00    +0.000 N 
ATOM      2  C   UNL     1      50.229   6.857  15.597  0.00  0.00    +0.000 A 
ATOM      3  C   UNL     1      50.593   7.836  14.674  0.00  0.00    +0.000 A 
ATOM      4  C   UNL     1      49.764   8.107  13.588  0.00  0.00    +0.000 A 
ATOM      5  C   UNL     1      48.608   7.354  13.409  0.00  0.00    +0.000 A 
ATOM      6  C   UNL     1      48.321   6.400  14.377  0.00  0.00    +0.000 A 
ATOM      7  N   UNL     1      49.098   6.142  15.459  0.00  0.00    +0.000 NA
ATOM      8  H   UNL     1      51.913   6.102  16.290  0.00  0.00    +0.000 HD
ENDROOT
BRANCH   1   9
ATOM      9  C   UNL     1      50.559   5.947  17.826  0.00  0.00    +0.000 C 
BRANCH   9  15
ATOM     10  C   UNL     1      52.283   4.043  17.974  0.00  0.00    +0.000 A 
ATOM     11  C   UNL     1      52.588   2.680  17.829  0.00  0.00    +0.000 A 
ATOM     12  C   UNL     1      51.595   1.753  17.508  0.00  0.00    +0.000 A 
ATOM     13  C   UNL     1      50.281   2.172  17.346  0.00  0.00    +0.000 A 
ATOM     14  C   UNL     1      49.968   3.523  17.483  0.00  0.00    +0.000 A 
ATOM     15  C   UNL     1      50.959   4.479  17.791  0.00  0.00    +0.000 A 
BRANCH  10  17
ATOM     16  C   UNL     1      54.359   5.100  17.494  0.00  0.00    +0.000 C 
ATOM     17  O   UNL     1      53.206   4.996  18.322  0.00  0.00    +0.000 OA
ENDBRANCH  10  17
ENDBRANCH   9  15
ENDBRANCH   1   9
BRANCH   5  18
ATOM     18  C   UNL     1      47.713   7.577  12.229  0.00  0.00    +0.000 C 
BRANCH  18  19
ATOM     19  N   UNL     1      46.947   6.401  11.905  0.00  0.00    +0.000 N 
ATOM     20  C   UNL     1      45.610   6.280  12.172  0.00  0.00    +0.000 C 
ATOM     21  O   UNL     1      44.963   7.173  12.714  0.00  0.00    +0.000 OA
ATOM     22  H   UNL     1      47.474   5.578  11.628  0.00  0.00    +0.000 HD
BRANCH  20  23
ATOM     23  C   UNL     1      44.966   5.046  11.700  0.00  0.00    +0.000 A 
ATOM     24  C   UNL     1      44.175   4.309  12.571  0.00  0.00    +0.000 A 
ATOM     25  S   UNL     1      43.475   2.927  11.860  0.00  0.00    +0.000 S 
ATOM     26  C   UNL     1      44.240   3.238  10.374  0.00  0.00    +0.000 A 
ATOM     27  N   UNL     1      44.083   2.396   9.318  0.00  0.00    +0.000 NA
ATOM     28  C   UNL     1      44.746   2.733   8.262  0.00  0.00    +0.000 A 
ATOM     29  N   UNL     1      45.541   3.845   8.162  0.00  0.00    +0.000 N 
ATOM     30  C   UNL     1      45.672   4.763   9.178  0.00  0.00    +0.000 A 
ATOM     31  O   UNL     1      46.272   5.816   9.008  0.00  0.00    +0.000 OA
ATOM     32  C   UNL     1      44.991   4.401  10.407  0.00  0.00    +0.000 A 
ATOM     33  H   UNL     1      46.004   4.071   7.294  0.00  0.00    +0.000 HD
ENDBRANCH  20  23
ENDBRANCH  18  19
ENDBRANCH   5  18
TORSDOF 6
ENDMDL
MODEL 4
REMARK VINA RESULT:    -7.064      3.701      8.621
REMARK INTER + INTRA:         -10.486
REMARK INTER:                  -9.883
REMARK INTRA:                  -0.603
REMARK UNBOUND:                -0.944
REMARK  Name = 
REMARK  7 active torsions:
REMARK  status: ('A' for Active; 'I' for Inactive)
REMARK    1  A    between atoms: C_1  and  O_2
REMARK    2  A    between atoms: O_2  and  C_3
REMARK    3  A    between atoms: C_8  and  C_9
REMARK    4  A    between atoms: C_9  and  N_10
REMARK    5  A    between atoms: C_14  and  C_15
REMARK    6  A    between atoms: C_15  and  N_16
REMARK    7  A    between atoms: C_17  and  C_19
REMARK                            x       y       z     vdW  Elec       q    Type
REMARK                         _______ _______ _______ _____ _____    ______ ____
ROOT
ATOM      1  N   UNL     1      44.720   6.530  10.804  0.00  0.00    +0.000 N 
ATOM      2  C   UNL     1      45.782   6.510  11.716  0.00  0.00    +0.000 A 
ATOM      3  C   UNL     1      46.868   7.343  11.447  0.00  0.00    +0.000 A 
ATOM      4  C   UNL     1      47.945   7.386  12.329  0.00  0.00    +0.000 A 
ATOM      5  C   UNL     1      47.897   6.635  13.499  0.00  0.00    +0.000 A 
ATOM      6  C   UNL     1      46.781   5.830  13.687  0.00  0.00    +0.000 A 
ATOM      7  N   UNL     1      45.734   5.751  12.826  0.00  0.00    +0.000 NA
ATOM      8  H   UNL     1      44.203   7.394  10.936  0.00  0.00    +0.000 HD
ENDROOT
BRANCH   1   9
ATOM      9  C   UNL     1      43.824   5.379  10.830  0.00  0.00    +0.000 C 
BRANCH   9  15
ATOM     10  C   UNL     1      44.121   2.933  10.088  0.00  0.00    +0.000 A 
ATOM     11  C   UNL     1      44.747   1.997   9.249  0.00  0.00    +0.000 A 
ATOM     12  C   UNL     1      45.615   2.408   8.236  0.00  0.00    +0.000 A 
ATOM     13  C   UNL     1      45.856   3.760   8.035  0.00  0.00    +0.000 A 
ATOM     14  C   UNL     1      45.243   4.699   8.864  0.00  0.00    +0.000 A 
ATOM     15  C   UNL     1      44.375   4.304   9.904  0.00  0.00    +0.000 A 
BRANCH  10  17
ATOM     16  C   UNL     1      43.706   2.679  12.415  0.00  0.00    +0.000 C 
ATOM     17  O   UNL     1      43.232   2.595  11.075  0.00  0.00    +0.000 OA
ENDBRANCH  10  17
ENDBRANCH   9  15
ENDBRANCH   1   9
BRANCH   5  18
ATOM     18  C   UNL     1      49.010   6.686  14.499  0.00  0.00    +0.000 C 
BRANCH  18  19
ATOM     19  N   UNL     1      48.519   6.846  15.843  0.00  0.00    +0.000 N 
ATOM     20  C   UNL     1      48.973   6.104  16.900  0.00  0.00    +0.000 C 
ATOM     21  O   UNL     1      49.837   5.239  16.775  0.00  0.00    +0.000 OA
ATOM     22  H   UNL     1      47.684   7.413  15.958  0.00  0.00    +0.000 HD
BRANCH  20  23
ATOM     23  C   UNL     1      48.424   6.453  18.218  0.00  0.00    +0.000 A 
ATOM     24  C   UNL     1      48.034   5.444  19.089  0.00  0.00    +0.000 A 
ATOM     25  S   UNL     1      47.452   6.014  20.585  0.00  0.00    +0.000 S 
ATOM     26  C   UNL     1      47.655   7.634  20.108  0.00  0.00    +0.000 A 
ATOM     27  N   UNL     1      47.307   8.655  20.936  0.00  0.00    +0.000 NA
ATOM     28  C   UNL     1      47.482   9.832  20.435  0.00  0.00    +0.000 A 
ATOM     29  N   UNL     1      47.989  10.081  19.186  0.00  0.00    +0.000 N 
ATOM     30  C   UNL     1      48.423   9.084  18.344  0.00  0.00    +0.000 A 
ATOM     31  O   UNL     1      49.002   9.345  17.297  0.00  0.00    +0.000 OA
ATOM     32  C   UNL     1      48.195   7.738  18.837  0.00  0.00    +0.000 A 
ATOM     33  H   UNL     1      48.135  11.028  18.869  0.00  0.00    +0.000 HD
ENDBRANCH  20  23
ENDBRANCH  18  19
ENDBRANCH   5  18
TORSDOF 6
ENDMDL
MODEL 5
REMARK VINA RESULT:    -6.918      2.646      4.436
REMARK INTER + INTRA:         -10.288
REMARK INTER:                  -9.085
REMARK INTRA:                  -1.204
REMARK UNBOUND:                -0.944
REMARK  Name = 
REMARK  7 active torsions:
REMARK  status: ('A' for Active; 'I' for Inactive)
REMARK    1  A    between atoms: C_1  and  O_2
REMARK    2  A    between atoms: O_2  and  C_3
REMARK    3  A    between atoms: C_8  and  C_9
REMARK    4  A    between atoms: C_9  and  N_10
REMARK    5  A    between atoms: C_14  and  C_15
REMARK    6  A    between atoms: C_15  and  N_16
REMARK    7  A    between atoms: C_17  and  C_19
REMARK                            x       y       z     vdW  Elec       q    Type
REMARK                         _______ _______ _______ _____ _____    ______ ____
ROOT
ATOM      1  N   UNL     1      52.488   4.359  18.598  0.00  0.00    +0.000 N 
ATOM      2  C   UNL     1      51.181   4.191  18.125  0.00  0.00    +0.000 A 
ATOM      3  C   UNL     1      50.837   2.929  17.642  0.00  0.00    +0.000 A 
ATOM      4  C   UNL     1      49.545   2.692  17.178  0.00  0.00    +0.000 A 
ATOM      5  C   UNL     1      48.597   3.707  17.255  0.00  0.00    +0.000 A 
ATOM      6  C   UNL     1      49.025   4.934  17.746  0.00  0.00    +0.000 A 
ATOM      7  N   UNL     1      50.287   5.195  18.175  0.00  0.00    +0.000 NA
ATOM      8  H   UNL     1      52.562   3.897  19.500  0.00  0.00    +0.000 HD
ENDROOT
BRANCH   1   9
ATOM      9  C   UNL     1      52.976   5.732  18.677  0.00  0.00    +0.000 C 
BRANCH   9  15
ATOM     10  C   UNL     1      53.030   7.130  16.518  0.00  0.00    +0.000 A 
ATOM     11  C   UNL     1      53.579   7.362  15.247  0.00  0.00    +0.000 A 
ATOM     12  C   UNL     1      54.657   6.605  14.781  0.00  0.00    +0.000 A 
ATOM     13  C   UNL     1      55.212   5.620  15.587  0.00  0.00    +0.000 A 
ATOM     14  C   UNL     1      54.672   5.378  16.849  0.00  0.00    +0.000 A 
ATOM     15  C   UNL     1      53.573   6.120  17.333  0.00  0.00    +0.000 A 
BRANCH  10  17
ATOM     16  C   UNL     1      51.094   8.451  16.115  0.00  0.00    +0.000 C 
ATOM     17  O   UNL     1      51.997   7.861  17.044  0.00  0.00    +0.000 OA
ENDBRANCH  10  17
ENDBRANCH   9  15
ENDBRANCH   1   9
BRANCH   5  18
ATOM     18  C   UNL     1      47.184   3.483  16.814  0.00  0.00    +0.000 C 
BRANCH  18  19
ATOM     19  N   UNL     1      46.776   4.435  15.813  0.00  0.00    +0.000 N 
ATOM     20  C   UNL     1      46.872   4.197  14.468  0.00  0.00    +0.000 C 
ATOM     21  O   UNL     1      47.321   3.146  14.016  0.00  0.00    +0.000 OA
ATOM     22  H   UNL     1      46.574   5.376  16.136  0.00  0.00    +0.000 HD
BRANCH  20  23
ATOM     23  C   UNL     1      46.334   5.242  13.587  0.00  0.00    +0.000 A 
ATOM     24  C   UNL     1      47.082   6.385  13.341  0.00  0.00    +0.000 A 
ATOM     25  S   UNL     1      46.332   7.480  12.273  0.00  0.00    +0.000 S 
ATOM     26  C   UNL     1      44.958   6.488  12.134  0.00  0.00    +0.000 A 
ATOM     27  N   UNL     1      43.898   6.867  11.372  0.00  0.00    +0.000 NA
ATOM     28  C   UNL     1      42.909   6.036  11.383  0.00  0.00    +0.000 A 
ATOM     29  N   UNL     1      42.891   4.853  12.074  0.00  0.00    +0.000 N 
ATOM     30  C   UNL     1      43.968   4.394  12.797  0.00  0.00    +0.000 A 
ATOM     31  O   UNL     1      43.974   3.271  13.284  0.00  0.00    +0.000 OA
ATOM     32  C   UNL     1      45.085   5.318  12.864  0.00  0.00    +0.000 A 
ATOM     33  H   UNL     1      42.099   4.230  12.010  0.00  0.00    +0.000 HD
ENDBRANCH  20  23
ENDBRANCH  18  19
ENDBRANCH   5  18
TORSDOF 6
ENDMDL
MODEL 6
REMARK VINA RESULT:    -6.834      1.870      3.082
REMARK INTER + INTRA:         -10.175
REMARK INTER:                  -9.114
REMARK INTRA:                  -1.060
REMARK UNBOUND:                -0.944
REMARK  Name = 
REMARK  7 active torsions:
REMARK  status: ('A' for Active; 'I' for Inactive)
REMARK    1  A    between atoms: C_1  and  O_2
REMARK    2  A    between atoms: O_2  and  C_3
REMARK    3  A    between atoms: C_8  and  C_9
REMARK    4  A    between atoms: C_9  and  N_10
REMARK    5  A    between atoms: C_14  and  C_15
REMARK    6  A    between atoms: C_15  and  N_16
REMARK    7  A    between atoms: C_17  and  C_19
REMARK                            x       y       z     vdW  Elec       q    Type
REMARK                         _______ _______ _______ _____ _____    ______ ____
ROOT
ATOM      1  N   UNL     1      50.647   7.965  16.530  0.00  0.00    +0.000 N 
ATOM      2  C   UNL     1      49.828   7.902  15.395  0.00  0.00    +0.000 A 
ATOM      3  C   UNL     1      49.274   9.099  14.944  0.00  0.00    +0.000 A 
ATOM      4  C   UNL     1      48.469   9.106  13.807  0.00  0.00    +0.000 A 
ATOM      5  C   UNL     1      48.274   7.921  13.104  0.00  0.00    +0.000 A 
ATOM      6  C   UNL     1      48.860   6.775  13.624  0.00  0.00    +0.000 A 
ATOM      7  N   UNL     1      49.622   6.741  14.747  0.00  0.00    +0.000 NA
ATOM      8  H   UNL     1      51.535   8.376  16.258  0.00  0.00    +0.000 HD
ENDROOT
BRANCH   1   9
ATOM      9  C   UNL     1      50.853   6.712  17.249  0.00  0.00    +0.000 C 
BRANCH   9  15
ATOM     10  C   UNL     1      48.900   5.096  17.691  0.00  0.00    +0.000 A 
ATOM     11  C   UNL     1      47.653   4.848  18.287  0.00  0.00    +0.000 A 
ATOM     12  C   UNL     1      47.053   5.797  19.117  0.00  0.00    +0.000 A 
ATOM     13  C   UNL     1      47.700   6.998  19.378  0.00  0.00    +0.000 A 
ATOM     14  C   UNL     1      48.936   7.256  18.788  0.00  0.00    +0.000 A 
ATOM     15  C   UNL     1      49.552   6.318  17.934  0.00  0.00    +0.000 A 
BRANCH  10  17
ATOM     16  C   UNL     1      50.117   3.058  17.549  0.00  0.00    +0.000 C 
ATOM     17  O   UNL     1      49.556   4.192  16.896  0.00  0.00    +0.000 OA
ENDBRANCH  10  17
ENDBRANCH   9  15
ENDBRANCH   1   9
BRANCH   5  18
ATOM     18  C   UNL     1      47.457   7.890  11.849  0.00  0.00    +0.000 C 
BRANCH  18  19
ATOM     19  N   UNL     1      46.737   6.652  11.707  0.00  0.00    +0.000 N 
ATOM     20  C   UNL     1      45.375   6.560  11.812  0.00  0.00    +0.000 C 
ATOM     21  O   UNL     1      44.665   7.537  12.040  0.00  0.00    +0.000 OA
ATOM     22  H   UNL     1      47.292   5.801  11.702  0.00  0.00    +0.000 HD
BRANCH  20  23
ATOM     23  C   UNL     1      44.795   5.234  11.557  0.00  0.00    +0.000 A 
ATOM     24  C   UNL     1      44.025   4.622  12.537  0.00  0.00    +0.000 A 
ATOM     25  S   UNL     1      43.399   3.107  12.072  0.00  0.00    +0.000 S 
ATOM     26  C   UNL     1      44.173   3.191  10.560  0.00  0.00    +0.000 A 
ATOM     27  N   UNL     1      44.070   2.172   9.666  0.00  0.00    +0.000 NA
ATOM     28  C   UNL     1      44.734   2.352   8.573  0.00  0.00    +0.000 A 
ATOM     29  N   UNL     1      45.479   3.466   8.287  0.00  0.00    +0.000 N 
ATOM     30  C   UNL     1      45.552   4.551   9.128  0.00  0.00    +0.000 A 
ATOM     31  O   UNL     1      46.107   5.586   8.783  0.00  0.00    +0.000 OA
ATOM     32  C   UNL     1      44.869   4.376  10.397  0.00  0.00    +0.000 A 
ATOM     33  H   UNL     1      45.945   3.559   7.396  0.00  0.00    +0.000 HD
ENDBRANCH  20  23
ENDBRANCH  18  19
ENDBRANCH   5  18
TORSDOF 6
ENDMDL
MODEL 7
REMARK VINA RESULT:    -6.612      1.523      2.432
REMARK INTER + INTRA:          -9.875
REMARK INTER:                  -8.603
REMARK INTRA:                  -1.272
REMARK UNBOUND:                -0.944
REMARK  Name = 
REMARK  7 active torsions:
REMARK  status: ('A' for Active; 'I' for Inactive)
REMARK    1  A    between atoms: C_1  and  O_2
REMARK    2  A    between atoms: O_2  and  C_3
REMARK    3  A    between atoms: C_8  and  C_9
REMARK    4  A    between atoms: C_9  and  N_10
REMARK    5  A    between atoms: C_14  and  C_15
REMARK    6  A    between atoms: C_15  and  N_16
REMARK    7  A    between atoms: C_17  and  C_19
REMARK                            x       y       z     vdW  Elec       q    Type
REMARK                         _______ _______ _______ _____ _____    ______ ____
ROOT
ATOM      1  N   UNL     1      50.509   7.837  16.753  0.00  0.00    +0.000 N 
ATOM      2  C   UNL     1      49.884   7.949  15.505  0.00  0.00    +0.000 A 
ATOM      3  C   UNL     1      49.415   9.211  15.140  0.00  0.00    +0.000 A 
ATOM      4  C   UNL     1      48.804   9.392  13.901  0.00  0.00    +0.000 A 
ATOM      5  C   UNL     1      48.721   8.319  13.020  0.00  0.00    +0.000 A 
ATOM      6  C   UNL     1      49.210   7.098  13.464  0.00  0.00    +0.000 A 
ATOM      7  N   UNL     1      49.781   6.892  14.679  0.00  0.00    +0.000 NA
ATOM      8  H   UNL     1      51.431   8.258  16.686  0.00  0.00    +0.000 HD
ENDROOT
BRANCH   1   9
ATOM      9  C   UNL     1      50.591   6.493  17.316  0.00  0.00    +0.000 C 
BRANCH   9  15
ATOM     10  C   UNL     1      48.460   5.084  17.621  0.00  0.00    +0.000 A 
ATOM     11  C   UNL     1      47.211   4.907  18.238  0.00  0.00    +0.000 A 
ATOM     12  C   UNL     1      46.767   5.789  19.226  0.00  0.00    +0.000 A 
ATOM     13  C   UNL     1      47.572   6.848  19.622  0.00  0.00    +0.000 A 
ATOM     14  C   UNL     1      48.812   7.036  19.014  0.00  0.00    +0.000 A 
ATOM     15  C   UNL     1      49.273   6.166  18.003  0.00  0.00    +0.000 A 
BRANCH  10  17
ATOM     16  C   UNL     1      48.829   2.840  16.927  0.00  0.00    +0.000 C 
ATOM     17  O   UNL     1      48.967   4.234  16.673  0.00  0.00    +0.000 OA
ENDBRANCH  10  17
ENDBRANCH   9  15
ENDBRANCH   1   9
BRANCH   5  18
ATOM     18  C   UNL     1      48.117   8.479  11.659  0.00  0.00    +0.000 C 
BRANCH  18  19
ATOM     19  N   UNL     1      47.453   7.279  11.221  0.00  0.00    +0.000 N 
ATOM     20  C   UNL     1      46.111   7.063  11.384  0.00  0.00    +0.000 C 
ATOM     21  O   UNL     1      45.372   7.883  11.924  0.00  0.00    +0.000 OA
ATOM     22  H   UNL     1      48.048   6.506  10.939  0.00  0.00    +0.000 HD
BRANCH  20  23
ATOM     23  C   UNL     1      45.581   5.820  10.805  0.00  0.00    +0.000 A 
ATOM     24  C   UNL     1      45.788   5.548   9.459  0.00  0.00    +0.000 A 
ATOM     25  S   UNL     1      45.143   4.054   8.953  0.00  0.00    +0.000 S 
ATOM     26  C   UNL     1      44.522   3.736  10.504  0.00  0.00    +0.000 A 
ATOM     27  N   UNL     1      43.812   2.603  10.753  0.00  0.00    +0.000 NA
ATOM     28  C   UNL     1      43.372   2.505  11.963  0.00  0.00    +0.000 A 
ATOM     29  N   UNL     1      43.590   3.429  12.951  0.00  0.00    +0.000 N 
ATOM     30  C   UNL     1      44.363   4.552  12.766  0.00  0.00    +0.000 A 
ATOM     31  O   UNL     1      44.657   5.282  13.703  0.00  0.00    +0.000 OA
ATOM     32  C   UNL     1      44.835   4.739  11.406  0.00  0.00    +0.000 A 
ATOM     33  H   UNL     1      43.248   3.272  13.888  0.00  0.00    +0.000 HD
ENDBRANCH  20  23
ENDBRANCH  18  19
ENDBRANCH   5  18
TORSDOF 6
ENDMDL
MODEL 8
REMARK VINA RESULT:    -6.585      3.456      8.727
REMARK INTER + INTRA:          -9.839
REMARK INTER:                  -8.625
REMARK INTRA:                  -1.215
REMARK UNBOUND:                -0.944
REMARK  Name = 
REMARK  7 active torsions:
REMARK  status: ('A' for Active; 'I' for Inactive)
REMARK    1  A    between atoms: C_1  and  O_2
REMARK    2  A    between atoms: O_2  and  C_3
REMARK    3  A    between atoms: C_8  and  C_9
REMARK    4  A    between atoms: C_9  and  N_10
REMARK    5  A    between atoms: C_14  and  C_15
REMARK    6  A    between atoms: C_15  and  N_16
REMARK    7  A    between atoms: C_17  and  C_19
REMARK                            x       y       z     vdW  Elec       q    Type
REMARK                         _______ _______ _______ _____ _____    ______ ____
ROOT
ATOM      1  N   UNL     1      45.854   5.350  11.994  0.00  0.00    +0.000 N 
ATOM      2  C   UNL     1      46.916   5.964  12.671  0.00  0.00    +0.000 A 
ATOM      3  C   UNL     1      47.090   5.632  14.014  0.00  0.00    +0.000 A 
ATOM      4  C   UNL     1      48.141   6.192  14.736  0.00  0.00    +0.000 A 
ATOM      5  C   UNL     1      49.039   7.034  14.089  0.00  0.00    +0.000 A 
ATOM      6  C   UNL     1      48.790   7.313  12.751  0.00  0.00    +0.000 A 
ATOM      7  N   UNL     1      47.755   6.803  12.037  0.00  0.00    +0.000 NA
ATOM      8  H   UNL     1      46.108   4.383  11.815  0.00  0.00    +0.000 HD
ENDROOT
BRANCH   1   9
ATOM      9  C   UNL     1      45.403   6.005  10.771  0.00  0.00    +0.000 C 
BRANCH   9  15
ATOM     10  C   UNL     1      44.407   3.899   9.678  0.00  0.00    +0.000 A 
ATOM     11  C   UNL     1      44.459   2.928   8.665  0.00  0.00    +0.000 A 
ATOM     12  C   UNL     1      45.405   3.011   7.640  0.00  0.00    +0.000 A 
ATOM     13  C   UNL     1      46.297   4.074   7.604  0.00  0.00    +0.000 A 
ATOM     14  C   UNL     1      46.257   5.041   8.607  0.00  0.00    +0.000 A 
ATOM     15  C   UNL     1      45.320   4.968   9.660  0.00  0.00    +0.000 A 
BRANCH  10  17
ATOM     16  C   UNL     1      43.450   2.737  11.519  0.00  0.00    +0.000 C 
ATOM     17  O   UNL     1      43.481   3.893  10.689  0.00  0.00    +0.000 OA
ENDBRANCH  10  17
ENDBRANCH   9  15
ENDBRANCH   1   9
BRANCH   5  18
ATOM     18  C   UNL     1      50.212   7.620  14.812  0.00  0.00    +0.000 C 
BRANCH  18  19
ATOM     19  N   UNL     1      50.154   7.363  16.228  0.00  0.00    +0.000 N 
ATOM     20  C   UNL     1      51.149   6.718  16.913  0.00  0.00    +0.000 C 
ATOM     21  O   UNL     1      52.168   6.307  16.364  0.00  0.00    +0.000 OA
ATOM     22  H   UNL     1      49.260   7.519  16.682  0.00  0.00    +0.000 HD
BRANCH  20  23
ATOM     23  C   UNL     1      50.966   6.612  18.368  0.00  0.00    +0.000 A 
ATOM     24  C   UNL     1      51.759   7.373  19.216  0.00  0.00    +0.000 A 
ATOM     25  S   UNL     1      51.398   7.160  20.868  0.00  0.00    +0.000 S 
ATOM     26  C   UNL     1      50.200   6.007  20.513  0.00  0.00    +0.000 A 
ATOM     27  N   UNL     1      49.508   5.391  21.508  0.00  0.00    +0.000 NA
ATOM     28  C   UNL     1      48.652   4.514  21.099  0.00  0.00    +0.000 A 
ATOM     29  N   UNL     1      48.414   4.209  19.784  0.00  0.00    +0.000 N 
ATOM     30  C   UNL     1      49.036   4.859  18.743  0.00  0.00    +0.000 A 
ATOM     31  O   UNL     1      48.699   4.666  17.582  0.00  0.00    +0.000 OA
ATOM     32  C   UNL     1      50.050   5.814  19.150  0.00  0.00    +0.000 A 
ATOM     33  H   UNL     1      47.703   3.539  19.531  0.00  0.00    +0.000 HD
ENDBRANCH  20  23
ENDBRANCH  18  19
ENDBRANCH   5  18
TORSDOF 6
ENDMDL
MODEL 9
REMARK VINA RESULT:    -6.522      4.120      5.785
REMARK INTER + INTRA:          -9.754
REMARK INTER:                  -8.475
REMARK INTRA:                  -1.279
REMARK UNBOUND:                -0.944
REMARK  Name = 
REMARK  7 active torsions:
REMARK  status: ('A' for Active; 'I' for Inactive)
REMARK    1  A    between atoms: C_1  and  O_2
REMARK    2  A    between atoms: O_2  and  C_3
REMARK    3  A    between atoms: C_8  and  C_9
REMARK    4  A    between atoms: C_9  and  N_10
REMARK    5  A    between atoms: C_14  and  C_15
REMARK    6  A    between atoms: C_15  and  N_16
REMARK    7  A    between atoms: C_17  and  C_19
REMARK                            x       y       z     vdW  Elec       q    Type
REMARK                         _______ _______ _______ _____ _____    ______ ____
ROOT
ATOM      1  N   UNL     1      48.664   7.093  20.609  0.00  0.00    +0.000 N 
ATOM      2  C   UNL     1      48.394   6.314  19.477  0.00  0.00    +0.000 A 
ATOM      3  C   UNL     1      49.479   5.957  18.678  0.00  0.00    +0.000 A 
ATOM      4  C   UNL     1      49.278   5.164  17.550  0.00  0.00    +0.000 A 
ATOM      5  C   UNL     1      48.000   4.692  17.268  0.00  0.00    +0.000 A 
ATOM      6  C   UNL     1      46.977   5.099  18.115  0.00  0.00    +0.000 A 
ATOM      7  N   UNL     1      47.145   5.895  19.201  0.00  0.00    +0.000 NA
ATOM      8  H   UNL     1      49.097   6.497  21.309  0.00  0.00    +0.000 HD
ENDROOT
BRANCH   1   9
ATOM      9  C   UNL     1      47.536   7.824  21.176  0.00  0.00    +0.000 C 
BRANCH   9  15
ATOM     10  C   UNL     1      48.703  10.117  21.206  0.00  0.00    +0.000 A 
ATOM     11  C   UNL     1      48.685  11.482  20.880  0.00  0.00    +0.000 A 
ATOM     12  C   UNL     1      47.635  12.029  20.138  0.00  0.00    +0.000 A 
ATOM     13  C   UNL     1      46.600  11.215  19.697  0.00  0.00    +0.000 A 
ATOM     14  C   UNL     1      46.607   9.859  20.019  0.00  0.00    +0.000 A 
ATOM     15  C   UNL     1      47.649   9.289  20.780  0.00  0.00    +0.000 A 
BRANCH  10  17
ATOM     16  C   UNL     1      51.041   9.733  21.412  0.00  0.00    +0.000 C 
ATOM     17  O   UNL     1      49.722   9.515  21.899  0.00  0.00    +0.000 OA
ENDBRANCH  10  17
ENDBRANCH   9  15
ENDBRANCH   1   9
BRANCH   5  18
ATOM     18  C   UNL     1      47.745   3.797  16.095  0.00  0.00    +0.000 C 
BRANCH  18  19
ATOM     19  N   UNL     1      46.878   4.416  15.125  0.00  0.00    +0.000 N 
ATOM     20  C   UNL     1      47.309   5.355  14.227  0.00  0.00    +0.000 C 
ATOM     21  O   UNL     1      48.474   5.743  14.187  0.00  0.00    +0.000 OA
ATOM     22  H   UNL     1      45.881   4.263  15.243  0.00  0.00    +0.000 HD
BRANCH  20  23
ATOM     23  C   UNL     1      46.312   5.822  13.254  0.00  0.00    +0.000 A 
ATOM     24  C   UNL     1      46.199   7.179  12.984  0.00  0.00    +0.000 A 
ATOM     25  S   UNL     1      45.023   7.551  11.808  0.00  0.00    +0.000 S 
ATOM     26  C   UNL     1      44.587   5.915  11.650  0.00  0.00    +0.000 A 
ATOM     27  N   UNL     1      43.590   5.537  10.805  0.00  0.00    +0.000 NA
ATOM     28  C   UNL     1      43.341   4.270  10.808  0.00  0.00    +0.000 A 
ATOM     29  N   UNL     1      44.008   3.344  11.567  0.00  0.00    +0.000 N 
ATOM     30  C   UNL     1      45.070   3.670  12.379  0.00  0.00    +0.000 A 
ATOM     31  O   UNL     1      45.735   2.804  12.932  0.00  0.00    +0.000 OA
ATOM     32  C   UNL     1      45.355   5.091  12.455  0.00  0.00    +0.000 A 
ATOM     33  H   UNL     1      43.787   2.362  11.494  0.00  0.00    +0.000 HD
ENDBRANCH  20  23
ENDBRANCH  18  19
ENDBRANCH   5  18
TORSDOF 6
ENDMDL
