MODEL 1
REMARK VINA RESULT:    -6.945      0.000      0.000
REMARK INTER + INTRA:         -10.142
REMARK INTER:                  -8.975
REMARK INTRA:                  -1.167
REMARK UNBOUND:                -1.167
REMARK  Name = 
REMARK  7 active torsions:
REMARK  status: ('A' for Active; 'I' for Inactive)
REMARK    1  A    between atoms: C_1  and  C_2
REMARK    2  A    between atoms: C_5  and  O_6
REMARK    3  A    between atoms: O_6  and  C_7
REMARK    4  A    between atoms: C_7  and  C_8
REMARK    5  A    between atoms: C_12  and  C_13
REMARK    6  A    between atoms: C_18  and  C_19
REMARK    7  A    between atoms: C_24  and  C_25
REMARK                            x       y       z     vdW  Elec       q    Type
REMARK                         _______ _______ _______ _____ _____    ______ ____
ROOT
ATOM      1  C   UNL     1      47.234   7.483  12.688  0.00  0.00    +0.000 A 
ATOM      2  C   UNL     1      46.269   8.466  12.923  0.00  0.00    +0.000 A 
ATOM      3  C   UNL     1      45.004   8.374  12.348  0.00  0.00    +0.000 A 
ATOM      4  C   UNL     1      44.676   7.285  11.531  0.00  0.00    +0.000 A 
ATOM      5  C   UNL     1      45.619   6.297  11.214  0.00  0.00    +0.000 A 
ATOM      6  C   UNL     1      46.899   6.448  11.791  0.00  0.00    +0.000 A 
ENDROOT
BRANCH   5   7
ATOM      7  C   UNL     1      45.324   5.111  10.359  0.00  0.00    +0.000 A 
ATOM      8  C   UNL     1      45.714   5.118   9.011  0.00  0.00    +0.000 A 
ATOM      9  N   UNL     1      45.474   4.143   8.101  0.00  0.00    +0.000 NA
ATOM     10  C   UNL     1      44.818   3.058   8.537  0.00  0.00    +0.000 A 
ATOM     11  C   UNL     1      44.409   2.904   9.844  0.00  0.00    +0.000 A 
ATOM     12  C   UNL     1      44.656   3.938  10.764  0.00  0.00    +0.000 A 
BRANCH  12  13
ATOM     13  C   UNL     1      44.185   3.721  12.106  0.00  0.00    +0.000 C 
ATOM     14  N   UNL     1      43.766   3.518  13.168  0.00  0.00    +0.000 NA
ENDBRANCH  12  13
ENDBRANCH   5   7
BRANCH   1  15
ATOM     15  C   UNL     1      48.588   7.485  13.363  0.00  0.00    +0.000 C 
ATOM     16  C   UNL     1      49.807   8.007  12.609  0.00  0.00    +0.000 C 
ATOM     17  C   UNL     1      49.193   8.850  13.670  0.00  0.00    +0.000 C 
BRANCH  15  18
ATOM     18  O   UNL     1      48.881   6.270  14.095  0.00  0.00    +0.000 OA
BRANCH  18  23
ATOM     19  C   UNL     1      48.152   5.119  19.459  0.00  0.00    +0.000 C 
ATOM     20  C   UNL     1      48.195   5.575  18.035  0.00  0.00    +0.000 A 
ATOM     21  N   UNL     1      48.927   6.662  17.743  0.00  0.00    +0.000 NA
ATOM     22  C   UNL     1      49.094   6.928  16.432  0.00  0.00    +0.000 A 
ATOM     23  C   UNL     1      48.608   6.136  15.418  0.00  0.00    +0.000 A 
ATOM     24  C   UNL     1      47.744   5.129  15.821  0.00  0.00    +0.000 A 
ATOM     25  C   UNL     1      46.963   4.306  14.838  0.00  0.00    +0.000 C 
ATOM     26  N   UNL     1      47.549   4.822  17.125  0.00  0.00    +0.000 NA
ENDBRANCH  18  23
ENDBRANCH  15  18
ENDBRANCH   1  15
TORSDOF 5
ENDMDL
MODEL 2
REMARK VINA RESULT:    -6.694      0.766      2.032
REMARK INTER + INTRA:          -9.818
REMARK INTER:                  -8.780
REMARK INTRA:                  -1.038
REMARK UNBOUND:                -1.167
REMARK  Name = 
REMARK  7 active torsions:
REMARK  status: ('A' for Active; 'I' for Inactive)
REMARK    1  A    between atoms: C_1  and  C_2
REMARK    2  A    between atoms: C_5  and  O_6
REMARK    3  A    between atoms: O_6  and  C_7
REMARK    4  A    between atoms: C_7  and  C_8
REMARK    5  A    between atoms: C_12  and  C_13
REMARK    6  A    between atoms: C_18  and  C_19
REMARK    7  A    between atoms: C_24  and  C_25
REMARK                            x       y       z     vdW  Elec       q    Type
REMARK                         _______ _______ _______ _____ _____    ______ ____
ROOT
ATOM      1  C   UNL     1      47.501   7.437  12.985  0.00  0.00    +0.000 A 
ATOM      2  C   UNL     1      46.891   8.657  12.680  0.00  0.00    +0.000 A 
ATOM      3  C   UNL     1      45.612   8.696  12.132  0.00  0.00    +0.000 A 
ATOM      4  C   UNL     1      44.910   7.509  11.889  0.00  0.00    +0.000 A 
ATOM      5  C   UNL     1      45.490   6.255  12.122  0.00  0.00    +0.000 A 
ATOM      6  C   UNL     1      46.801   6.262  12.645  0.00  0.00    +0.000 A 
ENDROOT
BRANCH   5   7
ATOM      7  C   UNL     1      44.788   4.959  11.892  0.00  0.00    +0.000 A 
ATOM      8  C   UNL     1      44.121   4.338  12.961  0.00  0.00    +0.000 A 
ATOM      9  N   UNL     1      43.484   3.142  12.922  0.00  0.00    +0.000 NA
ATOM     10  C   UNL     1      43.474   2.500  11.744  0.00  0.00    +0.000 A 
ATOM     11  C   UNL     1      44.059   3.013  10.606  0.00  0.00    +0.000 A 
ATOM     12  C   UNL     1      44.727   4.248  10.678  0.00  0.00    +0.000 A 
BRANCH  12  13
ATOM     13  C   UNL     1      45.331   4.714   9.459  0.00  0.00    +0.000 C 
ATOM     14  N   UNL     1      45.864   5.071   8.492  0.00  0.00    +0.000 NA
ENDBRANCH  12  13
ENDBRANCH   5   7
BRANCH   1  15
ATOM     15  C   UNL     1      48.847   7.342  13.668  0.00  0.00    +0.000 C 
ATOM     16  C   UNL     1      50.118   7.634  12.877  0.00  0.00    +0.000 C 
ATOM     17  C   UNL     1      49.615   8.647  13.843  0.00  0.00    +0.000 C 
BRANCH  15  18
ATOM     18  O   UNL     1      48.992   6.179  14.520  0.00  0.00    +0.000 OA
BRANCH  18  23
ATOM     19  C   UNL     1      47.943   5.660  19.929  0.00  0.00    +0.000 C 
ATOM     20  C   UNL     1      48.054   5.924  18.461  0.00  0.00    +0.000 A 
ATOM     21  N   UNL     1      48.661   7.055  18.068  0.00  0.00    +0.000 NA
ATOM     22  C   UNL     1      48.909   7.165  16.747  0.00  0.00    +0.000 A 
ATOM     23  C   UNL     1      48.622   6.185  15.825  0.00  0.00    +0.000 A 
ATOM     24  C   UNL     1      47.864   5.129  16.308  0.00  0.00    +0.000 A 
ATOM     25  C   UNL     1      47.286   4.081  15.401  0.00  0.00    +0.000 C 
ATOM     26  N   UNL     1      47.595   4.974  17.625  0.00  0.00    +0.000 NA
ENDBRANCH  18  23
ENDBRANCH  15  18
ENDBRANCH   1  15
TORSDOF 5
ENDMDL
MODEL 3
REMARK VINA RESULT:    -6.477      1.286      2.421
REMARK INTER + INTRA:          -9.537
REMARK INTER:                  -8.376
REMARK INTRA:                  -1.161
REMARK UNBOUND:                -1.167
REMARK  Name = 
REMARK  7 active torsions:
REMARK  status: ('A' for Active; 'I' for Inactive)
REMARK    1  A    between atoms: C_1  and  C_2
REMARK    2  A    between atoms: C_5  and  O_6
REMARK    3  A    between atoms: O_6  and  C_7
REMARK    4  A    between atoms: C_7  and  C_8
REMARK    5  A    between atoms: C_12  and  C_13
REMARK    6  A    between atoms: C_18  and  C_19
REMARK    7  A    between atoms: C_24  and  C_25
REMARK                            x       y       z     vdW  Elec       q    Type
REMARK                         _______ _______ _______ _____ _____    ______ ____
ROOT
ATOM      1  C   UNL     1      47.712   7.820  12.235  0.00  0.00    +0.000 A 
ATOM      2  C   UNL     1      47.010   9.029  12.209  0.00  0.00    +0.000 A 
ATOM      3  C   UNL     1      45.624   9.044  12.069  0.00  0.00    +0.000 A 
ATOM      4  C   UNL     1      44.911   7.844  11.963  0.00  0.00    +0.000 A 
ATOM      5  C   UNL     1      45.564   6.604  11.928  0.00  0.00    +0.000 A 
ATOM      6  C   UNL     1      46.971   6.637  12.039  0.00  0.00    +0.000 A 
ENDROOT
BRANCH   5   7
ATOM      7  C   UNL     1      44.857   5.295  11.828  0.00  0.00    +0.000 A 
ATOM      8  C   UNL     1      44.179   4.790  12.949  0.00  0.00    +0.000 A 
ATOM      9  N   UNL     1      43.537   3.600  13.030  0.00  0.00    +0.000 NA
ATOM     10  C   UNL     1      43.532   2.839  11.925  0.00  0.00    +0.000 A 
ATOM     11  C   UNL     1      44.129   3.229  10.745  0.00  0.00    +0.000 A 
ATOM     12  C   UNL     1      44.802   4.461  10.693  0.00  0.00    +0.000 A 
BRANCH  12  13
ATOM     13  C   UNL     1      45.418   4.796   9.437  0.00  0.00    +0.000 C 
ATOM     14  N   UNL     1      45.946   5.025   8.430  0.00  0.00    +0.000 NA
ENDBRANCH  12  13
ENDBRANCH   5   7
BRANCH   1  15
ATOM     15  C   UNL     1      49.203   7.744  12.481  0.00  0.00    +0.000 C 
ATOM     16  C   UNL     1      50.158   7.619  11.298  0.00  0.00    +0.000 C 
ATOM     17  C   UNL     1      50.034   8.927  11.997  0.00  0.00    +0.000 C 
BRANCH  15  18
ATOM     18  O   UNL     1      49.574   6.868  13.574  0.00  0.00    +0.000 OA
BRANCH  18  23
ATOM     19  C   UNL     1      49.580   7.840  19.022  0.00  0.00    +0.000 C 
ATOM     20  C   UNL     1      49.425   7.724  17.539  0.00  0.00    +0.000 A 
ATOM     21  N   UNL     1      50.079   8.606  16.766  0.00  0.00    +0.000 NA
ATOM     22  C   UNL     1      50.067   8.354  15.441  0.00  0.00    +0.000 A 
ATOM     23  C   UNL     1      49.478   7.249  14.873  0.00  0.00    +0.000 A 
ATOM     24  C   UNL     1      48.705   6.486  15.736  0.00  0.00    +0.000 A 
ATOM     25  C   UNL     1      47.829   5.370  15.246  0.00  0.00    +0.000 C 
ATOM     26  N   UNL     1      48.690   6.697  17.072  0.00  0.00    +0.000 NA
ENDBRANCH  18  23
ENDBRANCH  15  18
ENDBRANCH   1  15
TORSDOF 5
ENDMDL
MODEL 4
REMARK VINA RESULT:    -6.133      1.371      2.655
REMARK INTER + INTRA:          -9.092
REMARK INTER:                  -8.191
REMARK INTRA:                  -0.901
REMARK UNBOUND:                -1.167
REMARK  Name = 
REMARK  7 active torsions:
REMARK  status: ('A' for Active; 'I' for Inactive)
REMARK    1  A    between atoms: C_1  and  C_2
REMARK    2  A    between atoms: C_5  and  O_6
REMARK    3  A    between atoms: O_6  and  C_7
REMARK    4  A    between atoms: C_7  and  C_8
REMARK    5  A    between atoms: C_12  and  C_13
REMARK    6  A    between atoms: C_18  and  C_19
REMARK    7  A    between atoms: C_24  and  C_25
REMARK                            x       y       z     vdW  Elec       q    Type
REMARK                         _______ _______ _______ _____ _____    ______ ____
ROOT
ATOM      1  C   UNL     1      47.694   7.335  13.895  0.00  0.00    +0.000 A 
ATOM      2  C   UNL     1      47.265   8.609  13.510  0.00  0.00    +0.000 A 
ATOM      3  C   UNL     1      46.111   8.770  12.747  0.00  0.00    +0.000 A 
ATOM      4  C   UNL     1      45.355   7.656  12.364  0.00  0.00    +0.000 A 
ATOM      5  C   UNL     1      45.765   6.351  12.672  0.00  0.00    +0.000 A 
ATOM      6  C   UNL     1      46.958   6.232  13.417  0.00  0.00    +0.000 A 
ENDROOT
BRANCH   5   7
ATOM      7  C   UNL     1      44.995   5.129  12.300  0.00  0.00    +0.000 A 
ATOM      8  C   UNL     1      44.277   4.438  13.290  0.00  0.00    +0.000 A 
ATOM      9  N   UNL     1      43.576   3.292  13.119  0.00  0.00    +0.000 NA
ATOM     10  C   UNL     1      43.550   2.777  11.880  0.00  0.00    +0.000 A 
ATOM     11  C   UNL     1      44.182   3.372  10.809  0.00  0.00    +0.000 A 
ATOM     12  C   UNL     1      44.916   4.552  11.017  0.00  0.00    +0.000 A 
BRANCH  12  13
ATOM     13  C   UNL     1      45.566   5.108   9.860  0.00  0.00    +0.000 C 
ATOM     14  N   UNL     1      46.132   5.566   8.958  0.00  0.00    +0.000 NA
ENDBRANCH  12  13
ENDBRANCH   5   7
BRANCH   1  15
ATOM     15  C   UNL     1      48.884   7.111  14.802  0.00  0.00    +0.000 C 
ATOM     16  C   UNL     1      50.249   7.666  14.407  0.00  0.00    +0.000 C 
ATOM     17  C   UNL     1      49.469   8.348  15.475  0.00  0.00    +0.000 C 
BRANCH  15  18
ATOM     18  O   UNL     1      48.976   5.765  15.328  0.00  0.00    +0.000 OA
BRANCH  18  23
ATOM     19  C   UNL     1      48.204   5.275  20.786  0.00  0.00    +0.000 C 
ATOM     20  C   UNL     1      48.398   5.195  19.305  0.00  0.00    +0.000 A 
ATOM     21  N   UNL     1      47.304   5.119  18.530  0.00  0.00    +0.000 NA
ATOM     22  C   UNL     1      47.510   5.240  17.203  0.00  0.00    +0.000 A 
ATOM     23  C   UNL     1      48.740   5.478  16.634  0.00  0.00    +0.000 A 
ATOM     24  C   UNL     1      49.817   5.390  17.502  0.00  0.00    +0.000 A 
ATOM     25  C   UNL     1      51.237   5.416  17.017  0.00  0.00    +0.000 C 
ATOM     26  N   UNL     1      49.659   5.273  18.841  0.00  0.00    +0.000 NA
ENDBRANCH  18  23
ENDBRANCH  15  18
ENDBRANCH   1  15
TORSDOF 5
ENDMDL
MODEL 5
REMARK VINA RESULT:    -6.035      1.182      1.898
REMARK INTER + INTRA:          -8.966
REMARK INTER:                  -8.125
REMARK INTRA:                  -0.841
REMARK UNBOUND:                -1.167
REMARK  Name = 
REMARK  7 active torsions:
REMARK  status: ('A' for Active; 'I' for Inactive)
REMARK    1  A    between atoms: C_1  and  C_2
REMARK    2  A    between atoms: C_5  and  O_6
REMARK    3  A    between atoms: O_6  and  C_7
REMARK    4  A    between atoms: C_7  and  C_8
REMARK    5  A    between atoms: C_12  and  C_13
REMARK    6  A    between atoms: C_18  and  C_19
REMARK    7  A    between atoms: C_24  and  C_25
REMARK                            x       y       z     vdW  Elec       q    Type
REMARK                         _______ _______ _______ _____ _____    ______ ____
ROOT
ATOM      1  C   UNL     1      47.471   7.693  12.272  0.00  0.00    +0.000 A 
ATOM      2  C   UNL     1      46.462   8.485  12.829  0.00  0.00    +0.000 A 
ATOM      3  C   UNL     1      45.120   8.190  12.601  0.00  0.00    +0.000 A 
ATOM      4  C   UNL     1      44.760   7.087  11.818  0.00  0.00    +0.000 A 
ATOM      5  C   UNL     1      45.727   6.291  11.188  0.00  0.00    +0.000 A 
ATOM      6  C   UNL     1      47.074   6.645  11.418  0.00  0.00    +0.000 A 
ENDROOT
BRANCH   5   7
ATOM      7  C   UNL     1      45.404   5.098  10.352  0.00  0.00    +0.000 A 
ATOM      8  C   UNL     1      45.742   5.100   8.989  0.00  0.00    +0.000 A 
ATOM      9  N   UNL     1      45.471   4.119   8.095  0.00  0.00    +0.000 NA
ATOM     10  C   UNL     1      44.836   3.033   8.561  0.00  0.00    +0.000 A 
ATOM     11  C   UNL     1      44.478   2.885   9.885  0.00  0.00    +0.000 A 
ATOM     12  C   UNL     1      44.757   3.925  10.788  0.00  0.00    +0.000 A 
BRANCH  12  13
ATOM     13  C   UNL     1      44.339   3.713  12.148  0.00  0.00    +0.000 C 
ATOM     14  N   UNL     1      43.952   3.541  13.228  0.00  0.00    +0.000 NA
ENDBRANCH  12  13
ENDBRANCH   5   7
BRANCH   1  15
ATOM     15  C   UNL     1      48.939   7.911  12.566  0.00  0.00    +0.000 C 
ATOM     16  C   UNL     1      49.873   8.363  11.448  0.00  0.00    +0.000 C 
ATOM     17  C   UNL     1      49.444   9.347  12.479  0.00  0.00    +0.000 C 
BRANCH  15  18
ATOM     18  O   UNL     1      49.533   6.876  13.386  0.00  0.00    +0.000 OA
BRANCH  18  23
ATOM     19  C   UNL     1      49.381   7.793  18.841  0.00  0.00    +0.000 C 
ATOM     20  C   UNL     1      49.497   7.352  17.417  0.00  0.00    +0.000 A 
ATOM     21  N   UNL     1      48.486   6.638  16.895  0.00  0.00    +0.000 NA
ATOM     22  C   UNL     1      48.539   6.424  15.565  0.00  0.00    +0.000 A 
ATOM     23  C   UNL     1      49.520   6.928  14.742  0.00  0.00    +0.000 A 
ATOM     24  C   UNL     1      50.590   7.519  15.397  0.00  0.00    +0.000 A 
ATOM     25  C   UNL     1      51.838   7.935  14.673  0.00  0.00    +0.000 C 
ATOM     26  N   UNL     1      50.579   7.760  16.729  0.00  0.00    +0.000 NA
ENDBRANCH  18  23
ENDBRANCH  15  18
ENDBRANCH   1  15
TORSDOF 5
ENDMDL
MODEL 6
REMARK VINA RESULT:    -5.900      2.228      3.452
REMARK INTER + INTRA:          -8.791
REMARK INTER:                  -7.702
REMARK INTRA:                  -1.090
REMARK UNBOUND:                -1.167
REMARK  Name = 
REMARK  7 active torsions:
REMARK  status: ('A' for Active; 'I' for Inactive)
REMARK    1  A    between atoms: C_1  and  C_2
REMARK    2  A    between atoms: C_5  and  O_6
REMARK    3  A    between atoms: O_6  and  C_7
REMARK    4  A    between atoms: C_7  and  C_8
REMARK    5  A    between atoms: C_12  and  C_13
REMARK    6  A    between atoms: C_18  and  C_19
REMARK    7  A    between atoms: C_24  and  C_25
REMARK                            x       y       z     vdW  Elec       q    Type
REMARK                         _______ _______ _______ _____ _____    ______ ____
ROOT
ATOM      1  C   UNL     1      49.104   8.080  14.919  0.00  0.00    +0.000 A 
ATOM      2  C   UNL     1      50.208   8.130  14.062  0.00  0.00    +0.000 A 
ATOM      3  C   UNL     1      50.110   7.678  12.749  0.00  0.00    +0.000 A 
ATOM      4  C   UNL     1      48.898   7.174  12.262  0.00  0.00    +0.000 A 
ATOM      5  C   UNL     1      47.773   7.047  13.089  0.00  0.00    +0.000 A 
ATOM      6  C   UNL     1      47.926   7.487  14.422  0.00  0.00    +0.000 A 
ENDROOT
BRANCH   5   7
ATOM      7  C   UNL     1      46.454   6.530  12.623  0.00  0.00    +0.000 A 
ATOM      8  C   UNL     1      45.589   7.381  11.916  0.00  0.00    +0.000 A 
ATOM      9  N   UNL     1      44.346   7.074  11.475  0.00  0.00    +0.000 NA
ATOM     10  C   UNL     1      43.906   5.831  11.719  0.00  0.00    +0.000 A 
ATOM     11  C   UNL     1      44.666   4.883  12.371  0.00  0.00    +0.000 A 
ATOM     12  C   UNL     1      45.947   5.232  12.833  0.00  0.00    +0.000 A 
BRANCH  12  13
ATOM     13  C   UNL     1      46.676   4.201  13.522  0.00  0.00    +0.000 C 
ATOM     14  N   UNL     1      47.302   3.405  14.086  0.00  0.00    +0.000 NA
ENDBRANCH  12  13
ENDBRANCH   5   7
BRANCH   1  15
ATOM     15  C   UNL     1      49.129   8.645  16.321  0.00  0.00    +0.000 C 
ATOM     16  C   UNL     1      49.549  10.095  16.544  0.00  0.00    +0.000 C 
ATOM     17  C   UNL     1      48.108   9.733  16.635  0.00  0.00    +0.000 C 
BRANCH  15  18
ATOM     18  O   UNL     1      49.712   7.754  17.303  0.00  0.00    +0.000 OA
BRANCH  18  23
ATOM     19  C   UNL     1      47.353   2.759  17.638  0.00  0.00    +0.000 C 
ATOM     20  C   UNL     1      48.125   4.038  17.696  0.00  0.00    +0.000 A 
ATOM     21  N   UNL     1      49.250   4.129  16.968  0.00  0.00    +0.000 NA
ATOM     22  C   UNL     1      49.811   5.353  16.897  0.00  0.00    +0.000 A 
ATOM     23  C   UNL     1      49.276   6.480  17.476  0.00  0.00    +0.000 A 
ATOM     24  C   UNL     1      48.204   6.252  18.326  0.00  0.00    +0.000 A 
ATOM     25  C   UNL     1      47.632   7.333  19.196  0.00  0.00    +0.000 C 
ATOM     26  N   UNL     1      47.604   5.043  18.425  0.00  0.00    +0.000 NA
ENDBRANCH  18  23
ENDBRANCH  15  18
ENDBRANCH   1  15
TORSDOF 5
ENDMDL
MODEL 7
REMARK VINA RESULT:    -5.851      2.095      6.711
REMARK INTER + INTRA:          -8.728
REMARK INTER:                  -7.836
REMARK INTRA:                  -0.892
REMARK UNBOUND:                -1.167
REMARK  Name = 
REMARK  7 active torsions:
REMARK  status: ('A' for Active; 'I' for Inactive)
REMARK    1  A    between atoms: C_1  and  C_2
REMARK    2  A    between atoms: C_5  and  O_6
REMARK    3  A    between atoms: O_6  and  C_7
REMARK    4  A    between atoms: C_7  and  C_8
REMARK    5  A    between atoms: C_12  and  C_13
REMARK    6  A    between atoms: C_18  and  C_19
REMARK    7  A    between atoms: C_24  and  C_25
REMARK                            x       y       z     vdW  Elec       q    Type
REMARK                         _______ _______ _______ _____ _____    ______ ____
ROOT
ATOM      1  C   UNL     1      48.150   7.681  14.740  0.00  0.00    +0.000 A 
ATOM      2  C   UNL     1      48.108   8.825  15.542  0.00  0.00    +0.000 A 
ATOM      3  C   UNL     1      48.670   8.822  16.816  0.00  0.00    +0.000 A 
ATOM      4  C   UNL     1      49.297   7.672  17.310  0.00  0.00    +0.000 A 
ATOM      5  C   UNL     1      49.322   6.478  16.576  0.00  0.00    +0.000 A 
ATOM      6  C   UNL     1      48.710   6.517  15.304  0.00  0.00    +0.000 A 
ENDROOT
BRANCH   5   7
ATOM      7  C   UNL     1      49.984   5.227  17.045  0.00  0.00    +0.000 A 
ATOM      8  C   UNL     1      51.371   5.219  17.258  0.00  0.00    +0.000 A 
ATOM      9  N   UNL     1      52.119   4.154  17.633  0.00  0.00    +0.000 NA
ATOM     10  C   UNL     1      51.468   3.000  17.840  0.00  0.00    +0.000 A 
ATOM     11  C   UNL     1      50.101   2.876  17.702  0.00  0.00    +0.000 A 
ATOM     12  C   UNL     1      49.351   3.993  17.297  0.00  0.00    +0.000 A 
BRANCH  12  13
ATOM     13  C   UNL     1      47.934   3.789  17.153  0.00  0.00    +0.000 C 
ATOM     14  N   UNL     1      46.798   3.577  17.060  0.00  0.00    +0.000 NA
ENDBRANCH  12  13
ENDBRANCH   5   7
BRANCH   1  15
ATOM     15  C   UNL     1      47.641   7.659  13.316  0.00  0.00    +0.000 C 
ATOM     16  C   UNL     1      48.277   8.573  12.273  0.00  0.00    +0.000 C 
ATOM     17  C   UNL     1      48.598   7.120  12.260  0.00  0.00    +0.000 C 
BRANCH  15  18
ATOM     18  O   UNL     1      46.196   7.635  13.209  0.00  0.00    +0.000 OA
BRANCH  18  23
ATOM     19  C   UNL     1      43.810   3.030  11.280  0.00  0.00    +0.000 C 
ATOM     20  C   UNL     1      44.294   4.281  11.940  0.00  0.00    +0.000 A 
ATOM     21  N   UNL     1      45.023   4.161  13.061  0.00  0.00    +0.000 NA
ATOM     22  C   UNL     1      45.597   5.293  13.517  0.00  0.00    +0.000 A 
ATOM     23  C   UNL     1      45.512   6.510  12.881  0.00  0.00    +0.000 A 
ATOM     24  C   UNL     1      44.617   6.558  11.823  0.00  0.00    +0.000 A 
ATOM     25  C   UNL     1      44.245   7.848  11.151  0.00  0.00    +0.000 C 
ATOM     26  N   UNL     1      44.022   5.449  11.327  0.00  0.00    +0.000 NA
ENDBRANCH  18  23
ENDBRANCH  15  18
ENDBRANCH   1  15
TORSDOF 5
ENDMDL
MODEL 8
REMARK VINA RESULT:    -5.635      1.830      7.078
REMARK INTER + INTRA:          -8.449
REMARK INTER:                  -7.695
REMARK INTRA:                  -0.753
REMARK UNBOUND:                -1.167
REMARK  Name = 
REMARK  7 active torsions:
REMARK  status: ('A' for Active; 'I' for Inactive)
REMARK    1  A    between atoms: C_1  and  C_2
REMARK    2  A    between atoms: C_5  and  O_6
REMARK    3  A    between atoms: O_6  and  C_7
REMARK    4  A    between atoms: C_7  and  C_8
REMARK    5  A    between atoms: C_12  and  C_13
REMARK    6  A    between atoms: C_18  and  C_19
REMARK    7  A    between atoms: C_24  and  C_25
REMARK                            x       y       z     vdW  Elec       q    Type
REMARK                         _______ _______ _______ _____ _____    ______ ____
ROOT
ATOM      1  C   UNL     1      48.959   7.331  14.270  0.00  0.00    +0.000 A 
ATOM      2  C   UNL     1      50.293   7.684  14.050  0.00  0.00    +0.000 A 
ATOM      3  C   UNL     1      51.245   7.530  15.055  0.00  0.00    +0.000 A 
ATOM      4  C   UNL     1      50.879   7.008  16.302  0.00  0.00    +0.000 A 
ATOM      5  C   UNL     1      49.547   6.688  16.599  0.00  0.00    +0.000 A 
ATOM      6  C   UNL     1      48.610   6.891  15.563  0.00  0.00    +0.000 A 
ENDROOT
BRANCH   5   7
ATOM      7  C   UNL     1      49.101   6.119  17.904  0.00  0.00    +0.000 A 
ATOM      8  C   UNL     1      48.664   6.983  18.920  0.00  0.00    +0.000 A 
ATOM      9  N   UNL     1      48.278   6.624  20.168  0.00  0.00    +0.000 NA
ATOM     10  C   UNL     1      48.297   5.313  20.453  0.00  0.00    +0.000 A 
ATOM     11  C   UNL     1      48.671   4.353  19.537  0.00  0.00    +0.000 A 
ATOM     12  C   UNL     1      49.082   4.754  18.255  0.00  0.00    +0.000 A 
BRANCH  12  13
ATOM     13  C   UNL     1      49.476   3.703  17.356  0.00  0.00    +0.000 C 
ATOM     14  N   UNL     1      49.808   2.826  16.673  0.00  0.00    +0.000 NA
ENDBRANCH  12  13
ENDBRANCH   5   7
BRANCH   1  15
ATOM     15  C   UNL     1      47.907   7.387  13.184  0.00  0.00    +0.000 C 
ATOM     16  C   UNL     1      47.788   8.633  12.312  0.00  0.00    +0.000 C 
ATOM     17  C   UNL     1      48.413   7.407  11.747  0.00  0.00    +0.000 C 
BRANCH  15  18
ATOM     18  O   UNL     1      46.611   6.886  13.595  0.00  0.00    +0.000 OA
BRANCH  18  23
ATOM     19  C   UNL     1      43.543   2.829  11.415  0.00  0.00    +0.000 C 
ATOM     20  C   UNL     1      44.515   3.877  11.854  0.00  0.00    +0.000 A 
ATOM     21  N   UNL     1      44.501   5.057  11.214  0.00  0.00    +0.000 NA
ATOM     22  C   UNL     1      45.255   6.034  11.758  0.00  0.00    +0.000 A 
ATOM     23  C   UNL     1      45.971   5.895  12.925  0.00  0.00    +0.000 A 
ATOM     24  C   UNL     1      46.039   4.602  13.422  0.00  0.00    +0.000 A 
ATOM     25  C   UNL     1      46.942   4.232  14.562  0.00  0.00    +0.000 C 
ATOM     26  N   UNL     1      45.297   3.591  12.912  0.00  0.00    +0.000 NA
ENDBRANCH  18  23
ENDBRANCH  15  18
ENDBRANCH   1  15
TORSDOF 5
ENDMDL
MODEL 9
REMARK VINA RESULT:    -5.503      3.019      7.449
REMARK INTER + INTRA:          -8.279
REMARK INTER:                  -8.162
REMARK INTRA:                  -0.117
REMARK UNBOUND:                -1.167
REMARK  Name = 
REMARK  7 active torsions:
REMARK  status: ('A' for Active; 'I' for Inactive)
REMARK    1  A    between atoms: C_1  and  C_2
REMARK    2  A    between atoms: C_5  and  O_6
REMARK    3  A    between atoms: O_6  and  C_7
REMARK    4  A    between atoms: C_7  and  C_8
REMARK    5  A    between atoms: C_12  and  C_13
REMARK    6  A    between atoms: C_18  and  C_19
REMARK    7  A    between atoms: C_24  and  C_25
REMARK                            x       y       z     vdW  Elec       q    Type
REMARK                         _______ _______ _______ _____ _____    ______ ____
ROOT
ATOM      1  C   UNL     1      49.183   6.592  16.667  0.00  0.00    +0.000 A 
ATOM      2  C   UNL     1      48.414   6.963  17.774  0.00  0.00    +0.000 A 
ATOM      3  C   UNL     1      48.582   6.329  19.003  0.00  0.00    +0.000 A 
ATOM      4  C   UNL     1      49.536   5.315  19.150  0.00  0.00    +0.000 A 
ATOM      5  C   UNL     1      50.298   4.862  18.064  0.00  0.00    +0.000 A 
ATOM      6  C   UNL     1      50.070   5.509  16.830  0.00  0.00    +0.000 A 
ENDROOT
BRANCH   5   7
ATOM      7  C   UNL     1      51.335   3.795  18.164  0.00  0.00    +0.000 A 
ATOM      8  C   UNL     1      52.508   4.039  18.897  0.00  0.00    +0.000 A 
ATOM      9  N   UNL     1      53.557   3.193  19.037  0.00  0.00    +0.000 NA
ATOM     10  C   UNL     1      53.457   2.000  18.432  0.00  0.00    +0.000 A 
ATOM     11  C   UNL     1      52.347   1.617  17.710  0.00  0.00    +0.000 A 
ATOM     12  C   UNL     1      51.279   2.519  17.568  0.00  0.00    +0.000 A 
BRANCH  12  13
ATOM     13  C   UNL     1      50.162   2.062  16.785  0.00  0.00    +0.000 C 
ATOM     14  N   UNL     1      49.262   1.739  16.129  0.00  0.00    +0.000 NA
ENDBRANCH  12  13
ENDBRANCH   5   7
BRANCH   1  15
ATOM     15  C   UNL     1      49.107   7.311  15.339  0.00  0.00    +0.000 C 
ATOM     16  C   UNL     1      48.232   8.553  15.202  0.00  0.00    +0.000 C 
ATOM     17  C   UNL     1      49.709   8.710  15.287  0.00  0.00    +0.000 C 
BRANCH  15  18
ATOM     18  O   UNL     1      48.977   6.427  14.199  0.00  0.00    +0.000 OA
BRANCH  18  23
ATOM     19  C   UNL     1      44.556   3.650  12.363  0.00  0.00    +0.000 C 
ATOM     20  C   UNL     1      45.612   4.519  12.967  0.00  0.00    +0.000 A 
ATOM     21  N   UNL     1      46.046   4.217  14.201  0.00  0.00    +0.000 NA
ATOM     22  C   UNL     1      47.124   4.904  14.633  0.00  0.00    +0.000 A 
ATOM     23  C   UNL     1      47.802   5.829  13.874  0.00  0.00    +0.000 A 
ATOM     24  C   UNL     1      47.187   6.175  12.681  0.00  0.00    +0.000 A 
ATOM     25  C   UNL     1      47.675   7.312  11.831  0.00  0.00    +0.000 C 
ATOM     26  N   UNL     1      46.107   5.512  12.204  0.00  0.00    +0.000 NA
ENDBRANCH  18  23
ENDBRANCH  15  18
ENDBRANCH   1  15
TORSDOF 5
ENDMDL
