MODEL 1
REMARK VINA RESULT:    -7.298      0.000      0.000
REMARK INTER + INTRA:          -9.720
REMARK INTER:                  -9.005
REMARK INTRA:                  -0.716
REMARK UNBOUND:                -0.716
REMARK  Name = 
REMARK  4 active torsions:
REMARK  status: ('A' for Active; 'I' for Inactive)
REMARK    1  A    between atoms: C_5  and  C_6
REMARK    2  A    between atoms: C_10  and  C_11
REMARK    3  A    between atoms: C_11  and  O_12
REMARK    4  A    between atoms: O_12  and  C_13
REMARK                            x       y       z     vdW  Elec       q    Type
REMARK                         _______ _______ _______ _____ _____    ______ ____
ROOT
ATOM      1  C   UNL     1      45.670   5.712  12.082  0.00  0.00    +0.000 A 
ATOM      2  C   UNL     1      44.507   5.720  12.870  0.00  0.00    +0.000 A 
ATOM      3  C   UNL     1      43.299   5.213  12.387  0.00  0.00    +0.000 A 
ATOM      4  C   UNL     1      43.223   4.692  11.099  0.00  0.00    +0.000 A 
ATOM      5  C   UNL     1      44.356   4.674  10.281  0.00  0.00    +0.000 A 
ATOM      6  C   UNL     1      45.573   5.160  10.789  0.00  0.00    +0.000 A 
ENDROOT
BRANCH   1  11
ATOM      7  C   UNL     1      48.878   7.732  12.273  0.00  0.00    +0.000 A 
ATOM      8  C   UNL     1      49.353   7.284  13.490  0.00  0.00    +0.000 A 
ATOM      9  N   UNL     1      48.697   6.400  14.266  0.00  0.00    +0.000 NA
ATOM     10  C   UNL     1      47.512   5.938  13.788  0.00  0.00    +0.000 A 
ATOM     11  C   UNL     1      46.936   6.299  12.569  0.00  0.00    +0.000 A 
ATOM     12  C   UNL     1      47.660   7.234  11.812  0.00  0.00    +0.000 A 
ENDBRANCH   1  11
BRANCH   5  13
ATOM     13  C   UNL     1      44.280   4.158   8.863  0.00  0.00    +0.000 C 
BRANCH  13  14
ATOM     14  O   UNL     1      44.674   2.789   8.845  0.00  0.00    +0.000 OA
BRANCH  14  15
ATOM     15  C   UNL     1      45.789   2.476   8.115  0.00  0.00    +0.000 A 
ATOM     16  C   UNL     1      46.574   3.365   7.388  0.00  0.00    +0.000 A 
ATOM     17  C   UNL     1      47.681   2.864   6.718  0.00  0.00    +0.000 A 
ATOM     18  N   UNL     1      48.043   1.565   6.724  0.00  0.00    +0.000 NA
ATOM     19  C   UNL     1      47.262   0.724   7.433  0.00  0.00    +0.000 A 
ATOM     20  C   UNL     1      46.138   1.128   8.133  0.00  0.00    +0.000 A 
ENDBRANCH  14  15
ENDBRANCH  13  14
ENDBRANCH   5  13
TORSDOF 4
ENDMDL
MODEL 2
REMARK VINA RESULT:    -7.058      1.648      6.219
REMARK INTER + INTRA:          -9.424
REMARK INTER:                  -8.610
REMARK INTRA:                  -0.814
REMARK UNBOUND:                -0.716
REMARK  Name = 
REMARK  4 active torsions:
REMARK  status: ('A' for Active; 'I' for Inactive)
REMARK    1  A    between atoms: C_5  and  C_6
REMARK    2  A    between atoms: C_10  and  C_11
REMARK    3  A    between atoms: C_11  and  O_12
REMARK    4  A    between atoms: O_12  and  C_13
REMARK                            x       y       z     vdW  Elec       q    Type
REMARK                         _______ _______ _______ _____ _____    ______ ____
ROOT
ATOM      1  C   UNL     1      45.057   3.150   9.175  0.00  0.00    +0.000 A 
ATOM      2  C   UNL     1      44.296   2.275   9.968  0.00  0.00    +0.000 A 
ATOM      3  C   UNL     1      43.548   2.740  11.050  0.00  0.00    +0.000 A 
ATOM      4  C   UNL     1      43.549   4.095  11.372  0.00  0.00    +0.000 A 
ATOM      5  C   UNL     1      44.302   4.995  10.613  0.00  0.00    +0.000 A 
ATOM      6  C   UNL     1      45.027   4.518   9.508  0.00  0.00    +0.000 A 
ENDROOT
BRANCH   1  11
ATOM      7  C   UNL     1      46.935   2.930   5.883  0.00  0.00    +0.000 A 
ATOM      8  C   UNL     1      47.383   1.626   5.967  0.00  0.00    +0.000 A 
ATOM      9  N   UNL     1      47.148   0.825   7.023  0.00  0.00    +0.000 NA
ATOM     10  C   UNL     1      46.418   1.358   8.037  0.00  0.00    +0.000 A 
ATOM     11  C   UNL     1      45.895   2.652   8.063  0.00  0.00    +0.000 A 
ATOM     12  C   UNL     1      46.185   3.444   6.940  0.00  0.00    +0.000 A 
ENDBRANCH   1  11
BRANCH   5  13
ATOM     13  C   UNL     1      44.354   6.460  10.978  0.00  0.00    +0.000 C 
BRANCH  13  14
ATOM     14  O   UNL     1      44.623   6.583  12.372  0.00  0.00    +0.000 OA
BRANCH  14  15
ATOM     15  C   UNL     1      45.923   6.422  12.768  0.00  0.00    +0.000 A 
ATOM     16  C   UNL     1      47.017   7.156  12.320  0.00  0.00    +0.000 A 
ATOM     17  C   UNL     1      48.265   6.859  12.850  0.00  0.00    +0.000 A 
ATOM     18  N   UNL     1      48.485   5.899  13.771  0.00  0.00    +0.000 NA
ATOM     19  C   UNL     1      47.408   5.200  14.184  0.00  0.00    +0.000 A 
ATOM     20  C   UNL     1      46.124   5.422  13.715  0.00  0.00    +0.000 A 
ENDBRANCH  14  15
ENDBRANCH  13  14
ENDBRANCH   5  13
TORSDOF 4
ENDMDL
MODEL 3
REMARK VINA RESULT:    -6.921      1.535      1.995
REMARK INTER + INTRA:          -9.254
REMARK INTER:                  -8.549
REMARK INTRA:                  -0.706
REMARK UNBOUND:                -0.716
REMARK  Name = 
REMARK  4 active torsions:
REMARK  status: ('A' for Active; 'I' for Inactive)
REMARK    1  A    between atoms: C_5  and  C_6
REMARK    2  A    between atoms: C_10  and  C_11
REMARK    3  A    between atoms: C_11  and  O_12
REMARK    4  A    between atoms: O_12  and  C_13
REMARK                            x       y       z     vdW  Elec       q    Type
REMARK                         _______ _______ _______ _____ _____    ______ ____
ROOT
ATOM      1  C   UNL     1      46.646   6.289  12.092  0.00  0.00    +0.000 A 
ATOM      2  C   UNL     1      46.829   5.438  13.195  0.00  0.00    +0.000 A 
ATOM      3  C   UNL     1      46.129   4.236  13.311  0.00  0.00    +0.000 A 
ATOM      4  C   UNL     1      45.220   3.858  12.326  0.00  0.00    +0.000 A 
ATOM      5  C   UNL     1      45.002   4.681  11.218  0.00  0.00    +0.000 A 
ATOM      6  C   UNL     1      45.736   5.875  11.099  0.00  0.00    +0.000 A 
ENDROOT
BRANCH   1  11
ATOM      7  C   UNL     1      49.335   8.917  11.571  0.00  0.00    +0.000 A 
ATOM      8  C   UNL     1      48.622  10.042  11.935  0.00  0.00    +0.000 A 
ATOM      9  N   UNL     1      47.328  10.016  12.307  0.00  0.00    +0.000 NA
ATOM     10  C   UNL     1      46.727   8.798  12.323  0.00  0.00    +0.000 A 
ATOM     11  C   UNL     1      47.343   7.589  11.995  0.00  0.00    +0.000 A 
ATOM     12  C   UNL     1      48.688   7.682  11.603  0.00  0.00    +0.000 A 
ENDBRANCH   1  11
BRANCH   5  13
ATOM     13  C   UNL     1      43.984   4.311  10.166  0.00  0.00    +0.000 C 
BRANCH  13  14
ATOM     14  O   UNL     1      44.257   2.993   9.698  0.00  0.00    +0.000 OA
BRANCH  14  15
ATOM     15  C   UNL     1      45.229   2.865   8.743  0.00  0.00    +0.000 A 
ATOM     16  C   UNL     1      45.722   3.879   7.929  0.00  0.00    +0.000 A 
ATOM     17  C   UNL     1      46.725   3.562   7.024  0.00  0.00    +0.000 A 
ATOM     18  N   UNL     1      47.250   2.328   6.880  0.00  0.00    +0.000 NA
ATOM     19  C   UNL     1      46.749   1.362   7.678  0.00  0.00    +0.000 A 
ATOM     20  C   UNL     1      45.750   1.580   8.611  0.00  0.00    +0.000 A 
ENDBRANCH  14  15
ENDBRANCH  13  14
ENDBRANCH   5  13
TORSDOF 4
ENDMDL
MODEL 4
REMARK VINA RESULT:    -6.859      1.690      2.432
REMARK INTER + INTRA:          -9.178
REMARK INTER:                  -8.379
REMARK INTRA:                  -0.799
REMARK UNBOUND:                -0.716
REMARK  Name = 
REMARK  4 active torsions:
REMARK  status: ('A' for Active; 'I' for Inactive)
REMARK    1  A    between atoms: C_5  and  C_6
REMARK    2  A    between atoms: C_10  and  C_11
REMARK    3  A    between atoms: C_11  and  O_12
REMARK    4  A    between atoms: O_12  and  C_13
REMARK                            x       y       z     vdW  Elec       q    Type
REMARK                         _______ _______ _______ _____ _____    ______ ____
ROOT
ATOM      1  C   UNL     1      46.486   6.147  12.241  0.00  0.00    +0.000 A 
ATOM      2  C   UNL     1      46.963   5.284  13.241  0.00  0.00    +0.000 A 
ATOM      3  C   UNL     1      46.463   3.988  13.383  0.00  0.00    +0.000 A 
ATOM      4  C   UNL     1      45.464   3.527  12.530  0.00  0.00    +0.000 A 
ATOM      5  C   UNL     1      44.957   4.358  11.528  0.00  0.00    +0.000 A 
ATOM      6  C   UNL     1      45.490   5.650  11.377  0.00  0.00    +0.000 A 
ENDROOT
BRANCH   1  11
ATOM      7  C   UNL     1      46.590   9.939  12.083  0.00  0.00    +0.000 A 
ATOM      8  C   UNL     1      47.929  10.114  11.792  0.00  0.00    +0.000 A 
ATOM      9  N   UNL     1      48.804   9.098  11.673  0.00  0.00    +0.000 NA
ATOM     10  C   UNL     1      48.306   7.846  11.845  0.00  0.00    +0.000 A 
ATOM     11  C   UNL     1      46.974   7.538  12.124  0.00  0.00    +0.000 A 
ATOM     12  C   UNL     1      46.112   8.639  12.250  0.00  0.00    +0.000 A 
ENDBRANCH   1  11
BRANCH   5  13
ATOM     13  C   UNL     1      43.839   3.891  10.626  0.00  0.00    +0.000 C 
BRANCH  13  14
ATOM     14  O   UNL     1      44.186   4.169   9.273  0.00  0.00    +0.000 OA
BRANCH  14  15
ATOM     15  C   UNL     1      45.098   3.335   8.685  0.00  0.00    +0.000 A 
ATOM     16  C   UNL     1      45.198   1.960   8.872  0.00  0.00    +0.000 A 
ATOM     17  C   UNL     1      46.182   1.274   8.174  0.00  0.00    +0.000 A 
ATOM     18  N   UNL     1      47.054   1.859   7.327  0.00  0.00    +0.000 NA
ATOM     19  C   UNL     1      46.938   3.193   7.168  0.00  0.00    +0.000 A 
ATOM     20  C   UNL     1      45.989   3.964   7.819  0.00  0.00    +0.000 A 
ENDBRANCH  14  15
ENDBRANCH  13  14
ENDBRANCH   5  13
TORSDOF 4
ENDMDL
MODEL 5
REMARK VINA RESULT:    -6.425      1.983      6.297
REMARK INTER + INTRA:          -8.643
REMARK INTER:                  -7.895
REMARK INTRA:                  -0.747
REMARK UNBOUND:                -0.716
REMARK  Name = 
REMARK  4 active torsions:
REMARK  status: ('A' for Active; 'I' for Inactive)
REMARK    1  A    between atoms: C_5  and  C_6
REMARK    2  A    between atoms: C_10  and  C_11
REMARK    3  A    between atoms: C_11  and  O_12
REMARK    4  A    between atoms: O_12  and  C_13
REMARK                            x       y       z     vdW  Elec       q    Type
REMARK                         _______ _______ _______ _____ _____    ______ ____
ROOT
ATOM      1  C   UNL     1      44.822   3.756   9.845  0.00  0.00    +0.000 A 
ATOM      2  C   UNL     1      43.904   3.026  10.618  0.00  0.00    +0.000 A 
ATOM      3  C   UNL     1      43.207   3.621  11.672  0.00  0.00    +0.000 A 
ATOM      4  C   UNL     1      43.419   4.961  11.983  0.00  0.00    +0.000 A 
ATOM      5  C   UNL     1      44.331   5.718  11.244  0.00  0.00    +0.000 A 
ATOM      6  C   UNL     1      45.004   5.116  10.167  0.00  0.00    +0.000 A 
ENDROOT
BRANCH   1  11
ATOM      7  C   UNL     1      46.831   3.217   6.669  0.00  0.00    +0.000 A 
ATOM      8  C   UNL     1      46.965   1.843   6.720  0.00  0.00    +0.000 A 
ATOM      9  N   UNL     1      46.480   1.084   7.720  0.00  0.00    +0.000 NA
ATOM     10  C   UNL     1      45.819   1.737   8.711  0.00  0.00    +0.000 A 
ATOM     11  C   UNL     1      45.603   3.115   8.766  0.00  0.00    +0.000 A 
ATOM     12  C   UNL     1      46.144   3.855   7.701  0.00  0.00    +0.000 A 
ENDBRANCH   1  11
BRANCH   5  13
ATOM     13  C   UNL     1      44.610   7.159  11.600  0.00  0.00    +0.000 C 
BRANCH  13  14
ATOM     14  O   UNL     1      45.564   7.201  12.658  0.00  0.00    +0.000 OA
BRANCH  14  15
ATOM     15  C   UNL     1      46.805   7.690  12.352  0.00  0.00    +0.000 A 
ATOM     16  C   UNL     1      47.955   6.939  12.131  0.00  0.00    +0.000 A 
ATOM     17  C   UNL     1      49.126   7.613  11.815  0.00  0.00    +0.000 A 
ATOM     18  N   UNL     1      49.221   8.954  11.712  0.00  0.00    +0.000 NA
ATOM     19  C   UNL     1      48.093   9.658  11.937  0.00  0.00    +0.000 A 
ATOM     20  C   UNL     1      46.877   9.077  12.257  0.00  0.00    +0.000 A 
ENDBRANCH  14  15
ENDBRANCH  13  14
ENDBRANCH   5  13
TORSDOF 4
ENDMDL
MODEL 6
REMARK VINA RESULT:    -6.167      3.051      7.073
REMARK INTER + INTRA:          -8.325
REMARK INTER:                  -7.604
REMARK INTRA:                  -0.721
REMARK UNBOUND:                -0.716
REMARK  Name = 
REMARK  4 active torsions:
REMARK  status: ('A' for Active; 'I' for Inactive)
REMARK    1  A    between atoms: C_5  and  C_6
REMARK    2  A    between atoms: C_10  and  C_11
REMARK    3  A    between atoms: C_11  and  O_12
REMARK    4  A    between atoms: O_12  and  C_13
REMARK                            x       y       z     vdW  Elec       q    Type
REMARK                         _______ _______ _______ _____ _____    ______ ____
ROOT
ATOM      1  C   UNL     1      45.580   6.189  11.385  0.00  0.00    +0.000 A 
ATOM      2  C   UNL     1      44.765   7.333  11.388  0.00  0.00    +0.000 A 
ATOM      3  C   UNL     1      45.057   8.431  12.199  0.00  0.00    +0.000 A 
ATOM      4  C   UNL     1      46.170   8.407  13.035  0.00  0.00    +0.000 A 
ATOM      5  C   UNL     1      46.999   7.284  13.068  0.00  0.00    +0.000 A 
ATOM      6  C   UNL     1      46.711   6.197  12.224  0.00  0.00    +0.000 A 
ENDROOT
BRANCH   1  11
ATOM      7  C   UNL     1      45.181   3.817   8.447  0.00  0.00    +0.000 A 
ATOM      8  C   UNL     1      44.489   2.800   9.074  0.00  0.00    +0.000 A 
ATOM      9  N   UNL     1      44.168   2.812  10.381  0.00  0.00    +0.000 NA
ATOM     10  C   UNL     1      44.555   3.905  11.089  0.00  0.00    +0.000 A 
ATOM     11  C   UNL     1      45.242   5.003  10.569  0.00  0.00    +0.000 A 
ATOM     12  C   UNL     1      45.559   4.926   9.203  0.00  0.00    +0.000 A 
ENDBRANCH   1  11
BRANCH   5  13
ATOM     13  C   UNL     1      48.182   7.221  14.006  0.00  0.00    +0.000 C 
BRANCH  13  14
ATOM     14  O   UNL     1      48.431   5.861  14.351  0.00  0.00    +0.000 OA
BRANCH  14  15
ATOM     15  C   UNL     1      48.197   5.500  15.650  0.00  0.00    +0.000 A 
ATOM     16  C   UNL     1      48.676   6.149  16.784  0.00  0.00    +0.000 A 
ATOM     17  C   UNL     1      48.319   5.643  18.026  0.00  0.00    +0.000 A 
ATOM     18  N   UNL     1      47.538   4.557  18.204  0.00  0.00    +0.000 NA
ATOM     19  C   UNL     1      47.092   3.946  17.088  0.00  0.00    +0.000 A 
ATOM     20  C   UNL     1      47.393   4.374  15.806  0.00  0.00    +0.000 A 
ENDBRANCH  14  15
ENDBRANCH  13  14
ENDBRANCH   5  13
TORSDOF 4
ENDMDL
MODEL 7
REMARK VINA RESULT:    -5.697      3.969      7.465
REMARK INTER + INTRA:          -7.744
REMARK INTER:                  -7.088
REMARK INTRA:                  -0.656
REMARK UNBOUND:                -0.716
REMARK  Name = 
REMARK  4 active torsions:
REMARK  status: ('A' for Active; 'I' for Inactive)
REMARK    1  A    between atoms: C_5  and  C_6
REMARK    2  A    between atoms: C_10  and  C_11
REMARK    3  A    between atoms: C_11  and  O_12
REMARK    4  A    between atoms: O_12  and  C_13
REMARK                            x       y       z     vdW  Elec       q    Type
REMARK                         _______ _______ _______ _____ _____    ______ ____
ROOT
ATOM      1  C   UNL     1      46.924   6.216  12.469  0.00  0.00    +0.000 A 
ATOM      2  C   UNL     1      47.371   7.136  11.506  0.00  0.00    +0.000 A 
ATOM      3  C   UNL     1      48.488   7.942  11.734  0.00  0.00    +0.000 A 
ATOM      4  C   UNL     1      49.181   7.853  12.938  0.00  0.00    +0.000 A 
ATOM      5  C   UNL     1      48.762   6.957  13.925  0.00  0.00    +0.000 A 
ATOM      6  C   UNL     1      47.655   6.130  13.671  0.00  0.00    +0.000 A 
ENDROOT
BRANCH   1  11
ATOM      7  C   UNL     1      43.883   4.622  10.850  0.00  0.00    +0.000 A 
ATOM      8  C   UNL     1      43.378   3.943  11.942  0.00  0.00    +0.000 A 
ATOM      9  N   UNL     1      43.965   3.940  13.153  0.00  0.00    +0.000 NA
ATOM     10  C   UNL     1      45.109   4.662  13.274  0.00  0.00    +0.000 A 
ATOM     11  C   UNL     1      45.709   5.403  12.253  0.00  0.00    +0.000 A 
ATOM     12  C   UNL     1      45.057   5.357  11.010  0.00  0.00    +0.000 A 
ENDBRANCH   1  11
BRANCH   5  13
ATOM     13  C   UNL     1      49.474   6.882  15.255  0.00  0.00    +0.000 C 
BRANCH  13  14
ATOM     14  O   UNL     1      48.523   6.587  16.275  0.00  0.00    +0.000 OA
BRANCH  14  15
ATOM     15  C   UNL     1      48.578   5.337  16.829  0.00  0.00    +0.000 A 
ATOM     16  C   UNL     1      47.518   4.443  16.950  0.00  0.00    +0.000 A 
ATOM     17  C   UNL     1      47.769   3.207  17.529  0.00  0.00    +0.000 A 
ATOM     18  N   UNL     1      48.977   2.817  17.986  0.00  0.00    +0.000 NA
ATOM     19  C   UNL     1      49.984   3.706  17.860  0.00  0.00    +0.000 A 
ATOM     20  C   UNL     1      49.834   4.962  17.297  0.00  0.00    +0.000 A 
ENDBRANCH  14  15
ENDBRANCH  13  14
ENDBRANCH   5  13
TORSDOF 4
ENDMDL
MODEL 8
REMARK VINA RESULT:    -5.637      3.109      5.366
REMARK INTER + INTRA:          -7.671
REMARK INTER:                  -6.929
REMARK INTRA:                  -0.742
REMARK UNBOUND:                -0.716
REMARK  Name = 
REMARK  4 active torsions:
REMARK  status: ('A' for Active; 'I' for Inactive)
REMARK    1  A    between atoms: C_5  and  C_6
REMARK    2  A    between atoms: C_10  and  C_11
REMARK    3  A    between atoms: C_11  and  O_12
REMARK    4  A    between atoms: O_12  and  C_13
REMARK                            x       y       z     vdW  Elec       q    Type
REMARK                         _______ _______ _______ _____ _____    ______ ____
ROOT
ATOM      1  C   UNL     1      48.327   6.112  15.168  0.00  0.00    +0.000 A 
ATOM      2  C   UNL     1      49.147   7.252  15.199  0.00  0.00    +0.000 A 
ATOM      3  C   UNL     1      49.190   8.147  14.128  0.00  0.00    +0.000 A 
ATOM      4  C   UNL     1      48.416   7.917  12.993  0.00  0.00    +0.000 A 
ATOM      5  C   UNL     1      47.595   6.789  12.920  0.00  0.00    +0.000 A 
ATOM      6  C   UNL     1      47.538   5.913  14.018  0.00  0.00    +0.000 A 
ENDROOT
BRANCH   1  11
ATOM      7  C   UNL     1      47.378   3.209  17.421  0.00  0.00    +0.000 A 
ATOM      8  C   UNL     1      48.301   3.398  18.431  0.00  0.00    +0.000 A 
ATOM      9  N   UNL     1      49.226   4.376  18.421  0.00  0.00    +0.000 NA
ATOM     10  C   UNL     1      49.213   5.210  17.349  0.00  0.00    +0.000 A 
ATOM     11  C   UNL     1      48.323   5.134  16.276  0.00  0.00    +0.000 A 
ATOM     12  C   UNL     1      47.392   4.085  16.337  0.00  0.00    +0.000 A 
ENDBRANCH   1  11
BRANCH   5  13
ATOM     13  C   UNL     1      46.787   6.499  11.677  0.00  0.00    +0.000 C 
BRANCH  13  14
ATOM     14  O   UNL     1      45.411   6.388  12.032  0.00  0.00    +0.000 OA
BRANCH  14  15
ATOM     15  C   UNL     1      44.769   5.235  11.668  0.00  0.00    +0.000 A 
ATOM     16  C   UNL     1      44.647   4.733  10.376  0.00  0.00    +0.000 A 
ATOM     17  C   UNL     1      43.970   3.535  10.202  0.00  0.00    +0.000 A 
ATOM     18  N   UNL     1      43.418   2.825  11.207  0.00  0.00    +0.000 NA
ATOM     19  C   UNL     1      43.547   3.338  12.448  0.00  0.00    +0.000 A 
ATOM     20  C   UNL     1      44.204   4.525  12.724  0.00  0.00    +0.000 A 
ENDBRANCH  14  15
ENDBRANCH  13  14
ENDBRANCH   5  13
TORSDOF 4
ENDMDL
MODEL 9
REMARK VINA RESULT:    -5.571      4.676      7.582
REMARK INTER + INTRA:          -7.590
REMARK INTER:                  -6.915
REMARK INTRA:                  -0.674
REMARK UNBOUND:                -0.716
REMARK  Name = 
REMARK  4 active torsions:
REMARK  status: ('A' for Active; 'I' for Inactive)
REMARK    1  A    between atoms: C_5  and  C_6
REMARK    2  A    between atoms: C_10  and  C_11
REMARK    3  A    between atoms: C_11  and  O_12
REMARK    4  A    between atoms: O_12  and  C_13
REMARK                            x       y       z     vdW  Elec       q    Type
REMARK                         _______ _______ _______ _____ _____    ______ ____
ROOT
ATOM      1  C   UNL     1      45.795   6.496  12.043  0.00  0.00    +0.000 A 
ATOM      2  C   UNL     1      47.197   6.462  12.118  0.00  0.00    +0.000 A 
ATOM      3  C   UNL     1      47.951   7.635  12.186  0.00  0.00    +0.000 A 
ATOM      4  C   UNL     1      47.318   8.875  12.173  0.00  0.00    +0.000 A 
ATOM      5  C   UNL     1      45.926   8.952  12.090  0.00  0.00    +0.000 A 
ATOM      6  C   UNL     1      45.177   7.763  12.053  0.00  0.00    +0.000 A 
ENDROOT
BRANCH   1  11
ATOM      7  C   UNL     1      43.902   3.555  10.568  0.00  0.00    +0.000 A 
ATOM      8  C   UNL     1      43.414   2.997  11.733  0.00  0.00    +0.000 A 
ATOM      9  N   UNL     1      43.676   3.484  12.960  0.00  0.00    +0.000 NA
ATOM     10  C   UNL     1      44.460   4.592  13.017  0.00  0.00    +0.000 A 
ATOM     11  C   UNL     1      44.998   5.258  11.914  0.00  0.00    +0.000 A 
ATOM     12  C   UNL     1      44.700   4.695  10.663  0.00  0.00    +0.000 A 
ENDBRANCH   1  11
BRANCH   5  13
ATOM     13  C   UNL     1      45.227  10.289  12.025  0.00  0.00    +0.000 C 
BRANCH  13  14
ATOM     14  O   UNL     1      44.464  10.357  10.823  0.00  0.00    +0.000 OA
BRANCH  14  15
ATOM     15  C   UNL     1      43.196  10.863  10.923  0.00  0.00    +0.000 A 
ATOM     16  C   UNL     1      42.854  12.167  11.264  0.00  0.00    +0.000 A 
ATOM     17  C   UNL     1      41.508  12.503  11.299  0.00  0.00    +0.000 A 
ATOM     18  N   UNL     1      40.507  11.640  11.027  0.00  0.00    +0.000 NA
ATOM     19  C   UNL     1      40.867  10.381  10.705  0.00  0.00    +0.000 A 
ATOM     20  C   UNL     1      42.182   9.951  10.642  0.00  0.00    +0.000 A 
ENDBRANCH  14  15
ENDBRANCH  13  14
ENDBRANCH   5  13
TORSDOF 4
ENDMDL
