MODEL 1
REMARK VINA RESULT:    -8.061      0.000      0.000
REMARK INTER + INTRA:         -12.355
REMARK INTER:                 -11.359
REMARK INTRA:                  -0.995
REMARK UNBOUND:                -0.995
REMARK  Name = 
REMARK  7 active torsions:
REMARK  status: ('A' for Active; 'I' for Inactive)
REMARK    1  A    between atoms: C_2  and  C_4
REMARK    2  A    between atoms: C_7  and  O_8
REMARK    3  A    between atoms: O_8  and  C_9
REMARK    4  A    between atoms: C_9  and  C_10
REMARK    5  A    between atoms: C_10  and  C_11
REMARK    6  A    between atoms: C_15  and  O_16
REMARK    7  A    between atoms: O_16  and  C_17
REMARK                            x       y       z     vdW  Elec       q    Type
REMARK                         _______ _______ _______ _____ _____    ______ ____
ROOT
ATOM      1  C   UNL     1      43.388   4.583  11.164  0.00  0.00    +0.000 C 
ENDROOT
BRANCH   1   2
ATOM      2  O   UNL     1      43.455   3.325  10.490  0.00  0.00    +0.000 OA
BRANCH   2   6
ATOM      3  C   UNL     1      46.426   2.734   7.612  0.00  0.00    +0.000 A 
ATOM      4  C   UNL     1      45.955   4.031   7.830  0.00  0.00    +0.000 A 
ATOM      5  C   UNL     1      44.959   4.269   8.782  0.00  0.00    +0.000 A 
ATOM      6  C   UNL     1      44.421   3.211   9.524  0.00  0.00    +0.000 A 
ATOM      7  C   UNL     1      44.878   1.911   9.287  0.00  0.00    +0.000 A 
ATOM      8  C   UNL     1      45.871   1.670   8.331  0.00  0.00    +0.000 A 
BRANCH   3  10
ATOM      9  N   UNL     1      47.430   3.123   5.429  0.00  0.00    +0.000 N 
ATOM     10  C   UNL     1      47.493   2.451   6.619  0.00  0.00    +0.000 C 
ATOM     11  O   UNL     1      48.415   1.685   6.862  0.00  0.00    +0.000 OA
ATOM     12  H   UNL     1      48.221   3.008   4.809  0.00  0.00    +0.000 HD
ATOM     13  H   UNL     1      46.849   3.940   5.301  0.00  0.00    +0.000 HD
ENDBRANCH   3  10
ENDBRANCH   2   6
ENDBRANCH   1   2
BRANCH   1  14
ATOM     14  C   UNL     1      43.879   4.423  12.602  0.00  0.00    +0.000 C 
BRANCH  14  15
ATOM     15  C   UNL     1      45.267   4.997  12.759  0.00  0.00    +0.000 A 
ATOM     16  C   UNL     1      45.755   5.943  11.850  0.00  0.00    +0.000 A 
ATOM     17  C   UNL     1      47.009   6.525  12.047  0.00  0.00    +0.000 A 
ATOM     18  C   UNL     1      47.788   6.171  13.150  0.00  0.00    +0.000 A 
ATOM     19  C   UNL     1      47.315   5.226  14.056  0.00  0.00    +0.000 A 
ATOM     20  C   UNL     1      46.057   4.647  13.862  0.00  0.00    +0.000 A 
BRANCH  19  21
ATOM     21  O   UNL     1      47.975   4.826  15.190  0.00  0.00    +0.000 OA
BRANCH  21  22
ATOM     22  C   UNL     1      47.239   4.124  16.217  0.00  0.00    +0.000 C 
ATOM     23  C   UNL     1      47.269   4.699  17.647  0.00  0.00    +0.000 C 
ATOM     24  N   UNL     1      47.694   3.395  18.180  0.00  0.00    +0.000 NA
ATOM     25  C   UNL     1      47.973   2.909  16.821  0.00  0.00    +0.000 C 
ATOM     26  H   UNL     1      46.959   2.881  18.663  0.00  0.00    +0.000 HD
ENDBRANCH  21  22
ENDBRANCH  19  21
ENDBRANCH  14  15
ENDBRANCH   1  14
TORSDOF 7
ENDMDL
MODEL 2
REMARK VINA RESULT:    -7.467      3.009      4.092
REMARK INTER + INTRA:         -11.518
REMARK INTER:                 -10.801
REMARK INTRA:                  -0.717
REMARK UNBOUND:                -0.995
REMARK  Name = 
REMARK  7 active torsions:
REMARK  status: ('A' for Active; 'I' for Inactive)
REMARK    1  A    between atoms: C_2  and  C_4
REMARK    2  A    between atoms: C_7  and  O_8
REMARK    3  A    between atoms: O_8  and  C_9
REMARK    4  A    between atoms: C_9  and  C_10
REMARK    5  A    between atoms: C_10  and  C_11
REMARK    6  A    between atoms: C_15  and  O_16
REMARK    7  A    between atoms: O_16  and  C_17
REMARK                            x       y       z     vdW  Elec       q    Type
REMARK                         _______ _______ _______ _____ _____    ______ ____
ROOT
ATOM      1  C   UNL     1      43.637   2.950  11.333  0.00  0.00    +0.000 C 
ENDROOT
BRANCH   1   2
ATOM      2  O   UNL     1      43.727   3.774  10.168  0.00  0.00    +0.000 OA
BRANCH   2   6
ATOM      3  C   UNL     1      46.580   2.399   7.442  0.00  0.00    +0.000 A 
ATOM      4  C   UNL     1      46.243   3.755   7.431  0.00  0.00    +0.000 A 
ATOM      5  C   UNL     1      45.290   4.252   8.325  0.00  0.00    +0.000 A 
ATOM      6  C   UNL     1      44.662   3.399   9.238  0.00  0.00    +0.000 A 
ATOM      7  C   UNL     1      44.984   2.038   9.231  0.00  0.00    +0.000 A 
ATOM      8  C   UNL     1      45.933   1.536   8.334  0.00  0.00    +0.000 A 
BRANCH   3  10
ATOM      9  N   UNL     1      48.748   2.566   6.348  0.00  0.00    +0.000 N 
ATOM     10  C   UNL     1      47.598   1.843   6.516  0.00  0.00    +0.000 C 
ATOM     11  O   UNL     1      47.444   0.768   5.956  0.00  0.00    +0.000 OA
ATOM     12  H   UNL     1      49.478   2.124   5.805  0.00  0.00    +0.000 HD
ATOM     13  H   UNL     1      49.017   3.306   6.982  0.00  0.00    +0.000 HD
ENDBRANCH   3  10
ENDBRANCH   2   6
ENDBRANCH   1   2
BRANCH   1  14
ATOM     14  C   UNL     1      43.483   3.829  12.573  0.00  0.00    +0.000 C 
BRANCH  14  15
ATOM     15  C   UNL     1      44.612   4.827  12.663  0.00  0.00    +0.000 A 
ATOM     16  C   UNL     1      45.840   4.466  13.230  0.00  0.00    +0.000 A 
ATOM     17  C   UNL     1      46.904   5.372  13.239  0.00  0.00    +0.000 A 
ATOM     18  C   UNL     1      46.755   6.644  12.681  0.00  0.00    +0.000 A 
ATOM     19  C   UNL     1      45.535   7.014  12.121  0.00  0.00    +0.000 A 
ATOM     20  C   UNL     1      44.473   6.106  12.108  0.00  0.00    +0.000 A 
BRANCH  19  21
ATOM     21  O   UNL     1      45.283   8.220  11.516  0.00  0.00    +0.000 OA
BRANCH  21  22
ATOM     22  C   UNL     1      45.171   9.405  12.337  0.00  0.00    +0.000 C 
ATOM     23  C   UNL     1      44.213  10.518  11.869  0.00  0.00    +0.000 C 
ATOM     24  N   UNL     1      45.291  11.514  11.979  0.00  0.00    +0.000 NA
ATOM     25  C   UNL     1      46.290  10.446  12.123  0.00  0.00    +0.000 C 
ATOM     26  H   UNL     1      45.214  12.124  12.791  0.00  0.00    +0.000 HD
ENDBRANCH  21  22
ENDBRANCH  19  21
ENDBRANCH  14  15
ENDBRANCH   1  14
TORSDOF 7
ENDMDL
MODEL 3
REMARK VINA RESULT:    -6.897      1.847      2.235
REMARK INTER + INTRA:         -10.715
REMARK INTER:                  -9.909
REMARK INTRA:                  -0.806
REMARK UNBOUND:                -0.995
REMARK  Name = 
REMARK  7 active torsions:
REMARK  status: ('A' for Active; 'I' for Inactive)
REMARK    1  A    between atoms: C_2  and  C_4
REMARK    2  A    between atoms: C_7  and  O_8
REMARK    3  A    between atoms: O_8  and  C_9
REMARK    4  A    between atoms: C_9  and  C_10
REMARK    5  A    between atoms: C_10  and  C_11
REMARK    6  A    between atoms: C_15  and  O_16
REMARK    7  A    between atoms: O_16  and  C_17
REMARK                            x       y       z     vdW  Elec       q    Type
REMARK                         _______ _______ _______ _____ _____    ______ ____
ROOT
ATOM      1  C   UNL     1      44.294   3.363  11.777  0.00  0.00    +0.000 C 
ENDROOT
BRANCH   1   2
ATOM      2  O   UNL     1      43.813   3.527  10.441  0.00  0.00    +0.000 OA
BRANCH   2   6
ATOM      3  C   UNL     1      46.474   2.768   7.310  0.00  0.00    +0.000 A 
ATOM      4  C   UNL     1      46.041   1.695   8.095  0.00  0.00    +0.000 A 
ATOM      5  C   UNL     1      45.154   1.910   9.154  0.00  0.00    +0.000 A 
ATOM      6  C   UNL     1      44.692   3.199   9.441  0.00  0.00    +0.000 A 
ATOM      7  C   UNL     1      45.145   4.273   8.669  0.00  0.00    +0.000 A 
ATOM      8  C   UNL     1      46.037   4.062   7.612  0.00  0.00    +0.000 A 
BRANCH   3  10
ATOM      9  N   UNL     1      48.737   2.476   6.464  0.00  0.00    +0.000 N 
ATOM     10  C   UNL     1      47.404   2.571   6.170  0.00  0.00    +0.000 C 
ATOM     11  O   UNL     1      47.003   2.455   5.022  0.00  0.00    +0.000 OA
ATOM     12  H   UNL     1      49.347   2.230   5.695  0.00  0.00    +0.000 HD
ATOM     13  H   UNL     1      49.072   2.304   7.401  0.00  0.00    +0.000 HD
ENDBRANCH   3  10
ENDBRANCH   2   6
ENDBRANCH   1   2
BRANCH   1  14
ATOM     14  C   UNL     1      44.221   4.697  12.518  0.00  0.00    +0.000 C 
BRANCH  14  15
ATOM     15  C   UNL     1      45.571   5.374  12.528  0.00  0.00    +0.000 A 
ATOM     16  C   UNL     1      45.960   6.208  11.473  0.00  0.00    +0.000 A 
ATOM     17  C   UNL     1      47.178   6.890  11.528  0.00  0.00    +0.000 A 
ATOM     18  C   UNL     1      48.018   6.749  12.635  0.00  0.00    +0.000 A 
ATOM     19  C   UNL     1      47.643   5.917  13.686  0.00  0.00    +0.000 A 
ATOM     20  C   UNL     1      46.422   5.239  13.633  0.00  0.00    +0.000 A 
BRANCH  19  21
ATOM     21  O   UNL     1      48.369   5.728  14.835  0.00  0.00    +0.000 OA
BRANCH  21  22
ATOM     22  C   UNL     1      49.212   6.801  15.315  0.00  0.00    +0.000 C 
ATOM     23  C   UNL     1      49.848   6.648  16.710  0.00  0.00    +0.000 C 
ATOM     24  N   UNL     1      49.316   7.959  17.114  0.00  0.00    +0.000 NA
ATOM     25  C   UNL     1      48.452   7.995  15.926  0.00  0.00    +0.000 C 
ATOM     26  H   UNL     1      50.013   8.702  17.145  0.00  0.00    +0.000 HD
ENDBRANCH  21  22
ENDBRANCH  19  21
ENDBRANCH  14  15
ENDBRANCH   1  14
TORSDOF 7
ENDMDL
MODEL 4
REMARK VINA RESULT:    -6.707      1.695      8.223
REMARK INTER + INTRA:         -10.447
REMARK INTER:                  -9.772
REMARK INTRA:                  -0.674
REMARK UNBOUND:                -0.995
REMARK  Name = 
REMARK  7 active torsions:
REMARK  status: ('A' for Active; 'I' for Inactive)
REMARK    1  A    between atoms: C_2  and  C_4
REMARK    2  A    between atoms: C_7  and  O_8
REMARK    3  A    between atoms: O_8  and  C_9
REMARK    4  A    between atoms: C_9  and  C_10
REMARK    5  A    between atoms: C_10  and  C_11
REMARK    6  A    between atoms: C_15  and  O_16
REMARK    7  A    between atoms: O_16  and  C_17
REMARK                            x       y       z     vdW  Elec       q    Type
REMARK                         _______ _______ _______ _____ _____    ______ ____
ROOT
ATOM      1  C   UNL     1      45.634   6.181  12.259  0.00  0.00    +0.000 C 
ENDROOT
BRANCH   1   2
ATOM      2  O   UNL     1      47.003   5.818  12.454  0.00  0.00    +0.000 OA
BRANCH   2   6
ATOM      3  C   UNL     1      48.016   4.999  16.424  0.00  0.00    +0.000 A 
ATOM      4  C   UNL     1      48.551   6.139  15.819  0.00  0.00    +0.000 A 
ATOM      5  C   UNL     1      48.239   6.445  14.491  0.00  0.00    +0.000 A 
ATOM      6  C   UNL     1      47.390   5.613  13.753  0.00  0.00    +0.000 A 
ATOM      7  C   UNL     1      46.876   4.460  14.354  0.00  0.00    +0.000 A 
ATOM      8  C   UNL     1      47.191   4.148  15.681  0.00  0.00    +0.000 A 
BRANCH   3  10
ATOM      9  N   UNL     1      47.347   4.922  18.763  0.00  0.00    +0.000 N 
ATOM     10  C   UNL     1      48.317   4.654  17.837  0.00  0.00    +0.000 C 
ATOM     11  O   UNL     1      49.366   4.116  18.161  0.00  0.00    +0.000 OA
ATOM     12  H   UNL     1      47.518   4.581  19.700  0.00  0.00    +0.000 HD
ATOM     13  H   UNL     1      46.390   5.115  18.502  0.00  0.00    +0.000 HD
ENDBRANCH   3  10
ENDBRANCH   2   6
ENDBRANCH   1   2
BRANCH   1  14
ATOM     14  C   UNL     1      45.334   6.268  10.763  0.00  0.00    +0.000 C 
BRANCH  14  15
ATOM     15  C   UNL     1      45.118   4.891  10.182  0.00  0.00    +0.000 A 
ATOM     16  C   UNL     1      44.461   3.899  10.920  0.00  0.00    +0.000 A 
ATOM     17  C   UNL     1      44.198   2.654  10.346  0.00  0.00    +0.000 A 
ATOM     18  C   UNL     1      44.586   2.384   9.031  0.00  0.00    +0.000 A 
ATOM     19  C   UNL     1      45.246   3.361   8.292  0.00  0.00    +0.000 A 
ATOM     20  C   UNL     1      45.504   4.610   8.865  0.00  0.00    +0.000 A 
BRANCH  19  21
ATOM     21  O   UNL     1      45.643   3.223   6.986  0.00  0.00    +0.000 OA
BRANCH  21  22
ATOM     22  C   UNL     1      47.047   3.037   6.696  0.00  0.00    +0.000 C 
ATOM     23  C   UNL     1      47.446   2.705   5.245  0.00  0.00    +0.000 C 
ATOM     24  N   UNL     1      48.204   1.531   5.705  0.00  0.00    +0.000 NA
ATOM     25  C   UNL     1      47.597   1.637   7.039  0.00  0.00    +0.000 C 
ATOM     26  H   UNL     1      49.216   1.657   5.697  0.00  0.00    +0.000 HD
ENDBRANCH  21  22
ENDBRANCH  19  21
ENDBRANCH  14  15
ENDBRANCH   1  14
TORSDOF 7
ENDMDL
MODEL 5
REMARK VINA RESULT:    -6.310      3.020      7.535
REMARK INTER + INTRA:          -9.888
REMARK INTER:                  -9.157
REMARK INTRA:                  -0.731
REMARK UNBOUND:                -0.995
REMARK  Name = 
REMARK  7 active torsions:
REMARK  status: ('A' for Active; 'I' for Inactive)
REMARK    1  A    between atoms: C_2  and  C_4
REMARK    2  A    between atoms: C_7  and  O_8
REMARK    3  A    between atoms: O_8  and  C_9
REMARK    4  A    between atoms: C_9  and  C_10
REMARK    5  A    between atoms: C_10  and  C_11
REMARK    6  A    between atoms: C_15  and  O_16
REMARK    7  A    between atoms: O_16  and  C_17
REMARK                            x       y       z     vdW  Elec       q    Type
REMARK                         _______ _______ _______ _____ _____    ______ ____
ROOT
ATOM      1  C   UNL     1      45.144   5.916  12.551  0.00  0.00    +0.000 C 
ENDROOT
BRANCH   1   2
ATOM      2  O   UNL     1      45.648   7.111  13.152  0.00  0.00    +0.000 OA
BRANCH   2   6
ATOM      3  C   UNL     1      49.539   8.134  12.026  0.00  0.00    +0.000 A 
ATOM      4  C   UNL     1      48.499   9.011  11.708  0.00  0.00    +0.000 A 
ATOM      5  C   UNL     1      47.183   8.702  12.064  0.00  0.00    +0.000 A 
ATOM      6  C   UNL     1      46.893   7.512  12.741  0.00  0.00    +0.000 A 
ATOM      7  C   UNL     1      47.932   6.626  13.037  0.00  0.00    +0.000 A 
ATOM      8  C   UNL     1      49.250   6.929  12.676  0.00  0.00    +0.000 A 
BRANCH   3  10
ATOM      9  N   UNL     1      51.921   7.898  12.470  0.00  0.00    +0.000 N 
ATOM     10  C   UNL     1      50.949   8.440  11.674  0.00  0.00    +0.000 C 
ATOM     11  O   UNL     1      51.239   9.110  10.695  0.00  0.00    +0.000 OA
ATOM     12  H   UNL     1      52.874   8.020  12.156  0.00  0.00    +0.000 HD
ATOM     13  H   UNL     1      51.732   7.141  13.113  0.00  0.00    +0.000 HD
ENDBRANCH   3  10
ENDBRANCH   2   6
ENDBRANCH   1   2
BRANCH   1  14
ATOM     14  C   UNL     1      44.863   6.164  11.070  0.00  0.00    +0.000 C 
BRANCH  14  15
ATOM     15  C   UNL     1      44.905   4.869  10.296  0.00  0.00    +0.000 A 
ATOM     16  C   UNL     1      44.245   3.730  10.773  0.00  0.00    +0.000 A 
ATOM     17  C   UNL     1      44.225   2.558  10.012  0.00  0.00    +0.000 A 
ATOM     18  C   UNL     1      44.861   2.511   8.769  0.00  0.00    +0.000 A 
ATOM     19  C   UNL     1      45.525   3.636   8.290  0.00  0.00    +0.000 A 
ATOM     20  C   UNL     1      45.540   4.810   9.048  0.00  0.00    +0.000 A 
BRANCH  19  21
ATOM     21  O   UNL     1      46.153   3.717   7.072  0.00  0.00    +0.000 OA
BRANCH  21  22
ATOM     22  C   UNL     1      46.624   2.503   6.445  0.00  0.00    +0.000 C 
ATOM     23  C   UNL     1      48.019   1.980   6.843  0.00  0.00    +0.000 C 
ATOM     24  N   UNL     1      48.417   1.917   5.428  0.00  0.00    +0.000 NA
ATOM     25  C   UNL     1      47.231   2.694   5.040  0.00  0.00    +0.000 C 
ATOM     26  H   UNL     1      48.441   0.975   5.042  0.00  0.00    +0.000 HD
ENDBRANCH  21  22
ENDBRANCH  19  21
ENDBRANCH  14  15
ENDBRANCH   1  14
TORSDOF 7
ENDMDL
MODEL 6
REMARK VINA RESULT:    -6.274      3.314      4.005
REMARK INTER + INTRA:          -9.837
REMARK INTER:                  -9.306
REMARK INTRA:                  -0.531
REMARK UNBOUND:                -0.995
REMARK  Name = 
REMARK  7 active torsions:
REMARK  status: ('A' for Active; 'I' for Inactive)
REMARK    1  A    between atoms: C_2  and  C_4
REMARK    2  A    between atoms: C_7  and  O_8
REMARK    3  A    between atoms: O_8  and  C_9
REMARK    4  A    between atoms: C_9  and  C_10
REMARK    5  A    between atoms: C_10  and  C_11
REMARK    6  A    between atoms: C_15  and  O_16
REMARK    7  A    between atoms: O_16  and  C_17
REMARK                            x       y       z     vdW  Elec       q    Type
REMARK                         _______ _______ _______ _____ _____    ______ ____
ROOT
ATOM      1  C   UNL     1      43.836   4.907  11.201  0.00  0.00    +0.000 C 
ENDROOT
BRANCH   1   2
ATOM      2  O   UNL     1      43.598   4.727   9.803  0.00  0.00    +0.000 OA
BRANCH   2   6
ATOM      3  C   UNL     1      46.300   2.170   7.900  0.00  0.00    +0.000 A 
ATOM      4  C   UNL     1      46.379   3.540   7.639  0.00  0.00    +0.000 A 
ATOM      5  C   UNL     1      45.490   4.427   8.253  0.00  0.00    +0.000 A 
ATOM      6  C   UNL     1      44.511   3.953   9.134  0.00  0.00    +0.000 A 
ATOM      7  C   UNL     1      44.420   2.579   9.375  0.00  0.00    +0.000 A 
ATOM      8  C   UNL     1      45.304   1.688   8.757  0.00  0.00    +0.000 A 
BRANCH   3  10
ATOM      9  N   UNL     1      46.919  -0.124   7.369  0.00  0.00    +0.000 N 
ATOM     10  C   UNL     1      47.238   1.204   7.275  0.00  0.00    +0.000 C 
ATOM     11  O   UNL     1      48.231   1.571   6.665  0.00  0.00    +0.000 OA
ATOM     12  H   UNL     1      47.504  -0.761   6.844  0.00  0.00    +0.000 HD
ATOM     13  H   UNL     1      45.995  -0.439   7.626  0.00  0.00    +0.000 HD
ENDBRANCH   3  10
ENDBRANCH   2   6
ENDBRANCH   1   2
BRANCH   1  14
ATOM     14  C   UNL     1      45.335   5.064  11.452  0.00  0.00    +0.000 C 
BRANCH  14  15
ATOM     15  C   UNL     1      45.692   6.518  11.648  0.00  0.00    +0.000 A 
ATOM     16  C   UNL     1      44.715   7.515  11.541  0.00  0.00    +0.000 A 
ATOM     17  C   UNL     1      45.040   8.848  11.800  0.00  0.00    +0.000 A 
ATOM     18  C   UNL     1      46.340   9.201  12.169  0.00  0.00    +0.000 A 
ATOM     19  C   UNL     1      47.320   8.218  12.271  0.00  0.00    +0.000 A 
ATOM     20  C   UNL     1      46.994   6.883  12.018  0.00  0.00    +0.000 A 
BRANCH  19  21
ATOM     21  O   UNL     1      48.618   8.441  12.657  0.00  0.00    +0.000 OA
BRANCH  21  22
ATOM     22  C   UNL     1      49.597   8.789  11.653  0.00  0.00    +0.000 C 
ATOM     23  C   UNL     1      50.622   7.714  11.241  0.00  0.00    +0.000 C 
ATOM     24  N   UNL     1      51.730   8.647  11.499  0.00  0.00    +0.000 NA
ATOM     25  C   UNL     1      50.816   9.573  12.183  0.00  0.00    +0.000 C 
ATOM     26  H   UNL     1      52.158   9.031  10.658  0.00  0.00    +0.000 HD
ENDBRANCH  21  22
ENDBRANCH  19  21
ENDBRANCH  14  15
ENDBRANCH   1  14
TORSDOF 7
ENDMDL
MODEL 7
REMARK VINA RESULT:    -6.200      2.969      7.856
REMARK INTER + INTRA:          -9.732
REMARK INTER:                  -9.231
REMARK INTRA:                  -0.501
REMARK UNBOUND:                -0.995
REMARK  Name = 
REMARK  7 active torsions:
REMARK  status: ('A' for Active; 'I' for Inactive)
REMARK    1  A    between atoms: C_2  and  C_4
REMARK    2  A    between atoms: C_7  and  O_8
REMARK    3  A    between atoms: O_8  and  C_9
REMARK    4  A    between atoms: C_9  and  C_10
REMARK    5  A    between atoms: C_10  and  C_11
REMARK    6  A    between atoms: C_15  and  O_16
REMARK    7  A    between atoms: O_16  and  C_17
REMARK                            x       y       z     vdW  Elec       q    Type
REMARK                         _______ _______ _______ _____ _____    ______ ____
ROOT
ATOM      1  C   UNL     1      46.949   4.580  15.094  0.00  0.00    +0.000 C 
ENDROOT
BRANCH   1   2
ATOM      2  O   UNL     1      47.368   4.689  16.456  0.00  0.00    +0.000 OA
BRANCH   2   6
ATOM      3  C   UNL     1      50.773   2.451  17.379  0.00  0.00    +0.000 A 
ATOM      4  C   UNL     1      50.733   3.795  17.760  0.00  0.00    +0.000 A 
ATOM      5  C   UNL     1      49.612   4.578  17.466  0.00  0.00    +0.000 A 
ATOM      6  C   UNL     1      48.521   4.025  16.785  0.00  0.00    +0.000 A 
ATOM      7  C   UNL     1      48.575   2.687  16.385  0.00  0.00    +0.000 A 
ATOM      8  C   UNL     1      49.697   1.903  16.673  0.00  0.00    +0.000 A 
BRANCH   3  10
ATOM      9  N   UNL     1      51.681   0.321  18.129  0.00  0.00    +0.000 N 
ATOM     10  C   UNL     1      51.943   1.590  17.690  0.00  0.00    +0.000 C 
ATOM     11  O   UNL     1      53.090   1.975  17.523  0.00  0.00    +0.000 OA
ATOM     12  H   UNL     1      52.481  -0.290  18.228  0.00  0.00    +0.000 HD
ATOM     13  H   UNL     1      50.773  -0.109  18.026  0.00  0.00    +0.000 HD
ENDBRANCH   3  10
ENDBRANCH   2   6
ENDBRANCH   1   2
BRANCH   1  14
ATOM     14  C   UNL     1      47.635   5.659  14.257  0.00  0.00    +0.000 C 
BRANCH  14  15
ATOM     15  C   UNL     1      46.685   6.217  13.225  0.00  0.00    +0.000 A 
ATOM     16  C   UNL     1      46.261   7.550  13.291  0.00  0.00    +0.000 A 
ATOM     17  C   UNL     1      45.444   8.078  12.289  0.00  0.00    +0.000 A 
ATOM     18  C   UNL     1      45.041   7.284  11.213  0.00  0.00    +0.000 A 
ATOM     19  C   UNL     1      45.452   5.956  11.142  0.00  0.00    +0.000 A 
ATOM     20  C   UNL     1      46.274   5.429  12.142  0.00  0.00    +0.000 A 
BRANCH  19  21
ATOM     21  O   UNL     1      45.149   5.094  10.119  0.00  0.00    +0.000 OA
BRANCH  21  22
ATOM     22  C   UNL     1      43.903   4.361  10.166  0.00  0.00    +0.000 C 
ATOM     23  C   UNL     1      43.105   4.380  11.484  0.00  0.00    +0.000 C 
ATOM     24  N   UNL     1      43.047   2.910  11.489  0.00  0.00    +0.000 NA
ATOM     25  C   UNL     1      44.054   2.847  10.420  0.00  0.00    +0.000 C 
ATOM     26  H   UNL     1      42.139   2.527  11.228  0.00  0.00    +0.000 HD
ENDBRANCH  21  22
ENDBRANCH  19  21
ENDBRANCH  14  15
ENDBRANCH   1  14
TORSDOF 7
ENDMDL
MODEL 8
REMARK VINA RESULT:    -6.144      2.709      4.483
REMARK INTER + INTRA:          -9.653
REMARK INTER:                  -8.785
REMARK INTRA:                  -0.868
REMARK UNBOUND:                -0.995
REMARK  Name = 
REMARK  7 active torsions:
REMARK  status: ('A' for Active; 'I' for Inactive)
REMARK    1  A    between atoms: C_2  and  C_4
REMARK    2  A    between atoms: C_7  and  O_8
REMARK    3  A    between atoms: O_8  and  C_9
REMARK    4  A    between atoms: C_9  and  C_10
REMARK    5  A    between atoms: C_10  and  C_11
REMARK    6  A    between atoms: C_15  and  O_16
REMARK    7  A    between atoms: O_16  and  C_17
REMARK                            x       y       z     vdW  Elec       q    Type
REMARK                         _______ _______ _______ _____ _____    ______ ____
ROOT
ATOM      1  C   UNL     1      48.268   7.408  11.894  0.00  0.00    +0.000 C 
ENDROOT
BRANCH   1   2
ATOM      2  O   UNL     1      46.852   7.470  12.084  0.00  0.00    +0.000 OA
BRANCH   2   6
ATOM      3  C   UNL     1      44.726   3.965  11.274  0.00  0.00    +0.000 A 
ATOM      4  C   UNL     1      45.134   4.212  12.588  0.00  0.00    +0.000 A 
ATOM      5  C   UNL     1      45.851   5.371  12.898  0.00  0.00    +0.000 A 
ATOM      6  C   UNL     1      46.169   6.296  11.897  0.00  0.00    +0.000 A 
ATOM      7  C   UNL     1      45.780   6.035  10.580  0.00  0.00    +0.000 A 
ATOM      8  C   UNL     1      45.068   4.872  10.266  0.00  0.00    +0.000 A 
BRANCH   3  10
ATOM      9  N   UNL     1      44.385   2.032   9.835  0.00  0.00    +0.000 N 
ATOM     10  C   UNL     1      43.952   2.750  10.916  0.00  0.00    +0.000 C 
ATOM     11  O   UNL     1      42.994   2.377  11.577  0.00  0.00    +0.000 OA
ATOM     12  H   UNL     1      43.920   1.149   9.670  0.00  0.00    +0.000 HD
ATOM     13  H   UNL     1      45.305   2.159   9.437  0.00  0.00    +0.000 HD
ENDBRANCH   3  10
ENDBRANCH   2   6
ENDBRANCH   1   2
BRANCH   1  14
ATOM     14  C   UNL     1      48.940   8.546  12.661  0.00  0.00    +0.000 C 
BRANCH  14  15
ATOM     15  C   UNL     1      48.976   8.242  14.140  0.00  0.00    +0.000 A 
ATOM     16  C   UNL     1      48.894   9.273  15.084  0.00  0.00    +0.000 A 
ATOM     17  C   UNL     1      48.851   8.975  16.448  0.00  0.00    +0.000 A 
ATOM     18  C   UNL     1      48.889   7.649  16.884  0.00  0.00    +0.000 A 
ATOM     19  C   UNL     1      48.979   6.617  15.954  0.00  0.00    +0.000 A 
ATOM     20  C   UNL     1      49.016   6.915  14.589  0.00  0.00    +0.000 A 
BRANCH  19  21
ATOM     21  O   UNL     1      48.989   5.281  16.263  0.00  0.00    +0.000 OA
BRANCH  21  22
ATOM     22  C   UNL     1      47.732   4.572  16.344  0.00  0.00    +0.000 C 
ATOM     23  C   UNL     1      47.044   4.478  17.720  0.00  0.00    +0.000 C 
ATOM     24  N   UNL     1      46.945   3.016  17.589  0.00  0.00    +0.000 NA
ATOM     25  C   UNL     1      47.860   3.037  16.440  0.00  0.00    +0.000 C 
ATOM     26  H   UNL     1      46.009   2.678  17.370  0.00  0.00    +0.000 HD
ENDBRANCH  21  22
ENDBRANCH  19  21
ENDBRANCH  14  15
ENDBRANCH   1  14
TORSDOF 7
ENDMDL
MODEL 9
REMARK VINA RESULT:    -6.128      2.909      7.572
REMARK INTER + INTRA:          -9.631
REMARK INTER:                  -8.738
REMARK INTRA:                  -0.894
REMARK UNBOUND:                -0.995
REMARK  Name = 
REMARK  7 active torsions:
REMARK  status: ('A' for Active; 'I' for Inactive)
REMARK    1  A    between atoms: C_2  and  C_4
REMARK    2  A    between atoms: C_7  and  O_8
REMARK    3  A    between atoms: O_8  and  C_9
REMARK    4  A    between atoms: C_9  and  C_10
REMARK    5  A    between atoms: C_10  and  C_11
REMARK    6  A    between atoms: C_15  and  O_16
REMARK    7  A    between atoms: O_16  and  C_17
REMARK                            x       y       z     vdW  Elec       q    Type
REMARK                         _______ _______ _______ _____ _____    ______ ____
ROOT
ATOM      1  C   UNL     1      49.332   7.307  12.984  0.00  0.00    +0.000 C 
ENDROOT
BRANCH   1   2
ATOM      2  O   UNL     1      49.134   7.581  14.373  0.00  0.00    +0.000 OA
BRANCH   2   6
ATOM      3  C   UNL     1      47.953   4.440  16.863  0.00  0.00    +0.000 A 
ATOM      4  C   UNL     1      47.358   4.556  15.604  0.00  0.00    +0.000 A 
ATOM      5  C   UNL     1      47.723   5.595  14.744  0.00  0.00    +0.000 A 
ATOM      6  C   UNL     1      48.687   6.532  15.134  0.00  0.00    +0.000 A 
ATOM      7  C   UNL     1      49.263   6.428  16.403  0.00  0.00    +0.000 A 
ATOM      8  C   UNL     1      48.895   5.392  17.269  0.00  0.00    +0.000 A 
BRANCH   3  10
ATOM      9  N   UNL     1      48.401   3.165  18.887  0.00  0.00    +0.000 N 
ATOM     10  C   UNL     1      47.597   3.340  17.794  0.00  0.00    +0.000 C 
ATOM     11  O   UNL     1      46.608   2.643  17.621  0.00  0.00    +0.000 OA
ATOM     12  H   UNL     1      48.084   2.489  19.570  0.00  0.00    +0.000 HD
ATOM     13  H   UNL     1      49.053   3.872  19.196  0.00  0.00    +0.000 HD
ENDBRANCH   3  10
ENDBRANCH   2   6
ENDBRANCH   1   2
BRANCH   1  14
ATOM     14  C   UNL     1      48.544   8.311  12.144  0.00  0.00    +0.000 C 
BRANCH  14  15
ATOM     15  C   UNL     1      47.117   7.850  11.963  0.00  0.00    +0.000 A 
ATOM     16  C   UNL     1      46.057   8.760  12.046  0.00  0.00    +0.000 A 
ATOM     17  C   UNL     1      44.748   8.339  11.802  0.00  0.00    +0.000 A 
ATOM     18  C   UNL     1      44.483   7.008  11.472  0.00  0.00    +0.000 A 
ATOM     19  C   UNL     1      45.530   6.093  11.395  0.00  0.00    +0.000 A 
ATOM     20  C   UNL     1      46.840   6.517  11.633  0.00  0.00    +0.000 A 
BRANCH  19  21
ATOM     21  O   UNL     1      45.395   4.773  11.047  0.00  0.00    +0.000 OA
BRANCH  21  22
ATOM     22  C   UNL     1      44.075   4.184  11.033  0.00  0.00    +0.000 C 
ATOM     23  C   UNL     1      43.593   3.463  12.307  0.00  0.00    +0.000 C 
ATOM     24  N   UNL     1      43.266   2.262  11.523  0.00  0.00    +0.000 NA
ATOM     25  C   UNL     1      43.993   2.797  10.364  0.00  0.00    +0.000 C 
ATOM     26  H   UNL     1      42.268   2.127  11.362  0.00  0.00    +0.000 HD
ENDBRANCH  21  22
ENDBRANCH  19  21
ENDBRANCH  14  15
ENDBRANCH   1  14
TORSDOF 7
ENDMDL
