MODEL 1
REMARK VINA RESULT:    -8.597      0.000      0.000
REMARK INTER + INTRA:         -11.728
REMARK INTER:                 -11.110
REMARK INTRA:                  -0.618
REMARK UNBOUND:                -0.618
REMARK  Name = 
REMARK  5 active torsions:
REMARK  status: ('A' for Active; 'I' for Inactive)
REMARK    1  A    between atoms: C_2  and  C_18
REMARK    2  A    between atoms: N_3  and  C_4
REMARK    3  A    between atoms: C_4  and  C_5
REMARK    4  A    between atoms: N_8  and  C_9
REMARK    5  A    between atoms: C_9  and  C_10
REMARK                            x       y       z     vdW  Elec       q    Type
REMARK                         _______ _______ _______ _____ _____    ______ ____
ROOT
ATOM      1  O   UNL     1      46.850   3.482  14.077  0.00  0.00    +0.000 OA
ATOM      2  C   UNL     1      46.790   4.649  14.452  0.00  0.00    +0.000 C 
ATOM      3  N   UNL     1      45.846   5.540  14.018  0.00  0.00    +0.000 N 
ATOM      4  H   UNL     1      45.816   6.459  14.438  0.00  0.00    +0.000 HD
ENDROOT
BRANCH   2   5
ATOM      5  C   UNL     1      47.789   5.225  15.358  0.00  0.00    +0.000 A 
ATOM      6  C   UNL     1      48.653   6.219  14.928  0.00  0.00    +0.000 A 
ATOM      7  S   UNL     1      49.658   6.819  16.173  0.00  0.00    +0.000 S 
ATOM      8  C   UNL     1      49.014   5.722  17.304  0.00  0.00    +0.000 A 
ATOM      9  N   UNL     1      49.440   5.708  18.597  0.00  0.00    +0.000 NA
ATOM     10  C   UNL     1      48.887   4.797  19.330  0.00  0.00    +0.000 A 
ATOM     11  N   UNL     1      47.958   3.891  18.884  0.00  0.00    +0.000 N 
ATOM     12  C   UNL     1      47.486   3.880  17.593  0.00  0.00    +0.000 A 
ATOM     13  O   UNL     1      46.631   3.076  17.236  0.00  0.00    +0.000 OA
ATOM     14  C   UNL     1      48.059   4.902  16.739  0.00  0.00    +0.000 A 
ATOM     15  H   UNL     1      47.570   3.201  19.511  0.00  0.00    +0.000 HD
ENDBRANCH   2   5
BRANCH   3  16
ATOM     16  C   UNL     1      44.689   5.160  13.240  0.00  0.00    +0.000 C 
BRANCH  16  17
ATOM     17  C   UNL     1      44.461   6.063  12.015  0.00  0.00    +0.000 C 
ATOM     18  C   UNL     1      43.178   5.738  11.239  0.00  0.00    +0.000 C 
ATOM     19  C   UNL     1      43.239   4.371  10.553  0.00  0.00    +0.000 C 
ATOM     20  N   UNL     1      44.437   4.180   9.715  0.00  0.00    +0.000 NA
ATOM     21  C   UNL     1      45.688   4.554  10.390  0.00  0.00    +0.000 C 
ATOM     22  C   UNL     1      45.626   5.946  11.026  0.00  0.00    +0.000 C 
BRANCH  20  23
ATOM     23  C   UNL     1      44.533   2.761   9.278  0.00  0.00    +0.000 C 
BRANCH  23  24
ATOM     24  C   UNL     1      45.602   2.495   8.232  0.00  0.00    +0.000 A 
ATOM     25  C   UNL     1      45.852   3.434   7.234  0.00  0.00    +0.000 A 
ATOM     26  C   UNL     1      46.791   3.136   6.252  0.00  0.00    +0.000 A 
ATOM     27  C   UNL     1      47.462   1.920   6.298  0.00  0.00    +0.000 A 
ATOM     28  C   UNL     1      47.169   1.049   7.333  0.00  0.00    +0.000 A 
ATOM     29  N   UNL     1      46.257   1.305   8.296  0.00  0.00    +0.000 NA
ENDBRANCH  23  24
ENDBRANCH  20  23
ENDBRANCH  16  17
ENDBRANCH   3  16
TORSDOF 5
ENDMDL
MODEL 2
REMARK VINA RESULT:    -7.993      1.607      2.301
REMARK INTER + INTRA:         -10.947
REMARK INTER:                 -10.726
REMARK INTRA:                  -0.220
REMARK UNBOUND:                -0.618
REMARK  Name = 
REMARK  5 active torsions:
REMARK  status: ('A' for Active; 'I' for Inactive)
REMARK    1  A    between atoms: C_2  and  C_18
REMARK    2  A    between atoms: N_3  and  C_4
REMARK    3  A    between atoms: C_4  and  C_5
REMARK    4  A    between atoms: N_8  and  C_9
REMARK    5  A    between atoms: C_9  and  C_10
REMARK                            x       y       z     vdW  Elec       q    Type
REMARK                         _______ _______ _______ _____ _____    ______ ____
ROOT
ATOM      1  O   UNL     1      47.735   3.044  15.223  0.00  0.00    +0.000 OA
ATOM      2  C   UNL     1      47.357   4.197  15.403  0.00  0.00    +0.000 C 
ATOM      3  N   UNL     1      46.497   4.856  14.567  0.00  0.00    +0.000 N 
ATOM      4  H   UNL     1      46.172   5.776  14.831  0.00  0.00    +0.000 HD
ENDROOT
BRANCH   2   5
ATOM      5  C   UNL     1      47.861   5.014  16.512  0.00  0.00    +0.000 A 
ATOM      6  C   UNL     1      47.477   4.761  17.818  0.00  0.00    +0.000 A 
ATOM      7  S   UNL     1      48.265   5.761  18.957  0.00  0.00    +0.000 S 
ATOM      8  C   UNL     1      49.092   6.606  17.732  0.00  0.00    +0.000 A 
ATOM      9  N   UNL     1      49.960   7.612  18.028  0.00  0.00    +0.000 NA
ATOM     10  C   UNL     1      50.485   8.184  16.995  0.00  0.00    +0.000 A 
ATOM     11  N   UNL     1      50.210   7.852  15.692  0.00  0.00    +0.000 N 
ATOM     12  C   UNL     1      49.356   6.832  15.346  0.00  0.00    +0.000 A 
ATOM     13  O   UNL     1      49.158   6.541  14.171  0.00  0.00    +0.000 OA
ATOM     14  C   UNL     1      48.761   6.142  16.474  0.00  0.00    +0.000 A 
ATOM     15  H   UNL     1      50.654   8.345  14.931  0.00  0.00    +0.000 HD
ENDBRANCH   2   5
BRANCH   3  16
ATOM     16  C   UNL     1      45.770   4.208  13.499  0.00  0.00    +0.000 C 
BRANCH  16  17
ATOM     17  C   UNL     1      44.833   5.163  12.738  0.00  0.00    +0.000 C 
ATOM     18  C   UNL     1      43.425   4.598  12.515  0.00  0.00    +0.000 C 
ATOM     19  C   UNL     1      43.418   3.403  11.559  0.00  0.00    +0.000 C 
ATOM     20  N   UNL     1      44.102   3.662  10.279  0.00  0.00    +0.000 NA
ATOM     21  C   UNL     1      45.427   4.279  10.439  0.00  0.00    +0.000 C 
ATOM     22  C   UNL     1      45.405   5.504  11.358  0.00  0.00    +0.000 C 
BRANCH  20  23
ATOM     23  C   UNL     1      44.252   2.394   9.514  0.00  0.00    +0.000 C 
BRANCH  23  24
ATOM     24  C   UNL     1      45.370   2.408   8.485  0.00  0.00    +0.000 A 
ATOM     25  C   UNL     1      45.538   3.511   7.651  0.00  0.00    +0.000 A 
ATOM     26  C   UNL     1      46.529   3.470   6.675  0.00  0.00    +0.000 A 
ATOM     27  C   UNL     1      47.329   2.339   6.565  0.00  0.00    +0.000 A 
ATOM     28  C   UNL     1      47.110   1.293   7.445  0.00  0.00    +0.000 A 
ATOM     29  N   UNL     1      46.151   1.299   8.396  0.00  0.00    +0.000 NA
ENDBRANCH  23  24
ENDBRANCH  20  23
ENDBRANCH  16  17
ENDBRANCH   3  16
TORSDOF 5
ENDMDL
MODEL 3
REMARK VINA RESULT:    -7.986      2.150      3.313
REMARK INTER + INTRA:         -10.937
REMARK INTER:                 -10.187
REMARK INTRA:                  -0.751
REMARK UNBOUND:                -0.618
REMARK  Name = 
REMARK  5 active torsions:
REMARK  status: ('A' for Active; 'I' for Inactive)
REMARK    1  A    between atoms: C_2  and  C_18
REMARK    2  A    between atoms: N_3  and  C_4
REMARK    3  A    between atoms: C_4  and  C_5
REMARK    4  A    between atoms: N_8  and  C_9
REMARK    5  A    between atoms: C_9  and  C_10
REMARK                            x       y       z     vdW  Elec       q    Type
REMARK                         _______ _______ _______ _____ _____    ______ ____
ROOT
ATOM      1  O   UNL     1      47.455   4.317  13.483  0.00  0.00    +0.000 OA
ATOM      2  C   UNL     1      47.270   5.475  13.843  0.00  0.00    +0.000 C 
ATOM      3  N   UNL     1      46.095   6.152  13.657  0.00  0.00    +0.000 N 
ATOM      4  H   UNL     1      45.998   7.076  14.056  0.00  0.00    +0.000 HD
ENDROOT
BRANCH   2   5
ATOM      5  C   UNL     1      48.337   6.278  14.451  0.00  0.00    +0.000 A 
ATOM      6  C   UNL     1      48.654   6.146  15.793  0.00  0.00    +0.000 A 
ATOM      7  S   UNL     1      49.994   7.095  16.263  0.00  0.00    +0.000 S 
ATOM      8  C   UNL     1      50.146   7.761  14.703  0.00  0.00    +0.000 A 
ATOM      9  N   UNL     1      51.124   8.661  14.411  0.00  0.00    +0.000 NA
ATOM     10  C   UNL     1      51.094   9.106  13.197  0.00  0.00    +0.000 A 
ATOM     11  N   UNL     1      50.165   8.743  12.254  0.00  0.00    +0.000 N 
ATOM     12  C   UNL     1      49.172   7.825  12.499  0.00  0.00    +0.000 A 
ATOM     13  O   UNL     1      48.377   7.499  11.623  0.00  0.00    +0.000 OA
ATOM     14  C   UNL     1      49.182   7.278  13.842  0.00  0.00    +0.000 A 
ATOM     15  H   UNL     1      50.197   9.134  11.323  0.00  0.00    +0.000 HD
ENDBRANCH   2   5
BRANCH   3  16
ATOM     16  C   UNL     1      44.874   5.522  13.211  0.00  0.00    +0.000 C 
BRANCH  16  17
ATOM     17  C   UNL     1      44.265   6.195  11.968  0.00  0.00    +0.000 C 
ATOM     18  C   UNL     1      42.972   5.530  11.478  0.00  0.00    +0.000 C 
ATOM     19  C   UNL     1      43.210   4.122  10.927  0.00  0.00    +0.000 C 
ATOM     20  N   UNL     1      44.269   4.055   9.904  0.00  0.00    +0.000 NA
ATOM     21  C   UNL     1      45.505   4.748  10.297  0.00  0.00    +0.000 C 
ATOM     22  C   UNL     1      45.253   6.174  10.797  0.00  0.00    +0.000 C 
BRANCH  20  23
ATOM     23  C   UNL     1      44.593   2.635   9.596  0.00  0.00    +0.000 C 
BRANCH  23  24
ATOM     24  C   UNL     1      45.563   2.447   8.442  0.00  0.00    +0.000 A 
ATOM     25  C   UNL     1      45.699   3.441   7.475  0.00  0.00    +0.000 A 
ATOM     26  C   UNL     1      46.546   3.214   6.395  0.00  0.00    +0.000 A 
ATOM     27  C   UNL     1      47.241   2.013   6.314  0.00  0.00    +0.000 A 
ATOM     28  C   UNL     1      47.064   1.085   7.327  0.00  0.00    +0.000 A 
ATOM     29  N   UNL     1      46.242   1.271   8.383  0.00  0.00    +0.000 NA
ENDBRANCH  23  24
ENDBRANCH  20  23
ENDBRANCH  16  17
ENDBRANCH   3  16
TORSDOF 5
ENDMDL
MODEL 4
REMARK VINA RESULT:    -7.578      1.396      1.647
REMARK INTER + INTRA:         -10.411
REMARK INTER:                 -10.078
REMARK INTRA:                  -0.333
REMARK UNBOUND:                -0.618
REMARK  Name = 
REMARK  5 active torsions:
REMARK  status: ('A' for Active; 'I' for Inactive)
REMARK    1  A    between atoms: C_2  and  C_18
REMARK    2  A    between atoms: N_3  and  C_4
REMARK    3  A    between atoms: C_4  and  C_5
REMARK    4  A    between atoms: N_8  and  C_9
REMARK    5  A    between atoms: C_9  and  C_10
REMARK                            x       y       z     vdW  Elec       q    Type
REMARK                         _______ _______ _______ _____ _____    ______ ____
ROOT
ATOM      1  O   UNL     1      48.101   5.369  12.980  0.00  0.00    +0.000 OA
ATOM      2  C   UNL     1      47.572   6.171  13.743  0.00  0.00    +0.000 C 
ATOM      3  N   UNL     1      46.220   6.364  13.827  0.00  0.00    +0.000 N 
ATOM      4  H   UNL     1      45.860   6.986  14.538  0.00  0.00    +0.000 HD
ENDROOT
BRANCH   2   5
ATOM      5  C   UNL     1      48.361   7.067  14.596  0.00  0.00    +0.000 A 
ATOM      6  C   UNL     1      48.657   8.359  14.193  0.00  0.00    +0.000 A 
ATOM      7  S   UNL     1      49.490   9.259  15.382  0.00  0.00    +0.000 S 
ATOM      8  C   UNL     1      49.538   7.928  16.442  0.00  0.00    +0.000 A 
ATOM      9  N   UNL     1      50.117   8.022  17.671  0.00  0.00    +0.000 NA
ATOM     10  C   UNL     1      50.109   6.922  18.349  0.00  0.00    +0.000 A 
ATOM     11  N   UNL     1      49.590   5.732  17.905  0.00  0.00    +0.000 N 
ATOM     12  C   UNL     1      48.981   5.595  16.680  0.00  0.00    +0.000 A 
ATOM     13  O   UNL     1      48.498   4.523  16.328  0.00  0.00    +0.000 OA
ATOM     14  C   UNL     1      48.941   6.811  15.892  0.00  0.00    +0.000 A 
ATOM     15  H   UNL     1      49.622   4.907  18.486  0.00  0.00    +0.000 HD
ENDBRANCH   2   5
BRANCH   3  16
ATOM     16  C   UNL     1      45.251   5.502  13.189  0.00  0.00    +0.000 C 
BRANCH  16  17
ATOM     17  C   UNL     1      44.476   6.199  12.056  0.00  0.00    +0.000 C 
ATOM     18  C   UNL     1      43.118   5.553  11.750  0.00  0.00    +0.000 C 
ATOM     19  C   UNL     1      43.257   4.151  11.153  0.00  0.00    +0.000 C 
ATOM     20  N   UNL     1      44.156   4.088   9.987  0.00  0.00    +0.000 NA
ATOM     21  C   UNL     1      45.443   4.763  10.205  0.00  0.00    +0.000 C 
ATOM     22  C   UNL     1      45.284   6.185  10.753  0.00  0.00    +0.000 C 
BRANCH  20  23
ATOM     23  C   UNL     1      44.415   2.670   9.617  0.00  0.00    +0.000 C 
BRANCH  23  24
ATOM     24  C   UNL     1      45.416   2.485   8.490  0.00  0.00    +0.000 A 
ATOM     25  C   UNL     1      45.560   3.470   7.516  0.00  0.00    +0.000 A 
ATOM     26  C   UNL     1      46.438   3.246   6.459  0.00  0.00    +0.000 A 
ATOM     27  C   UNL     1      47.154   2.057   6.410  0.00  0.00    +0.000 A 
ATOM     28  C   UNL     1      46.968   1.137   7.428  0.00  0.00    +0.000 A 
ATOM     29  N   UNL     1      46.117   1.320   8.461  0.00  0.00    +0.000 NA
ENDBRANCH  23  24
ENDBRANCH  20  23
ENDBRANCH  16  17
ENDBRANCH   3  16
TORSDOF 5
ENDMDL
MODEL 5
REMARK VINA RESULT:    -6.976      3.088      9.714
REMARK INTER + INTRA:          -9.632
REMARK INTER:                  -8.908
REMARK INTRA:                  -0.724
REMARK UNBOUND:                -0.618
REMARK  Name = 
REMARK  5 active torsions:
REMARK  status: ('A' for Active; 'I' for Inactive)
REMARK    1  A    between atoms: C_2  and  C_18
REMARK    2  A    between atoms: N_3  and  C_4
REMARK    3  A    between atoms: C_4  and  C_5
REMARK    4  A    between atoms: N_8  and  C_9
REMARK    5  A    between atoms: C_9  and  C_10
REMARK                            x       y       z     vdW  Elec       q    Type
REMARK                         _______ _______ _______ _____ _____    ______ ____
ROOT
ATOM      1  O   UNL     1      48.552   6.171  13.271  0.00  0.00    +0.000 OA
ATOM      2  C   UNL     1      47.436   5.897  13.701  0.00  0.00    +0.000 C 
ATOM      3  N   UNL     1      47.204   5.415  14.961  0.00  0.00    +0.000 N 
ATOM      4  H   UNL     1      46.247   5.292  15.265  0.00  0.00    +0.000 HD
ENDROOT
BRANCH   2   5
ATOM      5  C   UNL     1      46.236   5.992  12.863  0.00  0.00    +0.000 A 
ATOM      6  C   UNL     1      45.738   7.222  12.467  0.00  0.00    +0.000 A 
ATOM      7  S   UNL     1      44.402   7.097  11.409  0.00  0.00    +0.000 S 
ATOM      8  C   UNL     1      44.410   5.396  11.505  0.00  0.00    +0.000 A 
ATOM      9  N   UNL     1      43.508   4.645  10.815  0.00  0.00    +0.000 NA
ATOM     10  C   UNL     1      43.613   3.372  11.014  0.00  0.00    +0.000 A 
ATOM     11  N   UNL     1      44.527   2.783  11.851  0.00  0.00    +0.000 N 
ATOM     12  C   UNL     1      45.467   3.500  12.552  0.00  0.00    +0.000 A 
ATOM     13  O   UNL     1      46.291   2.938  13.267  0.00  0.00    +0.000 OA
ATOM     14  C   UNL     1      45.406   4.933  12.341  0.00  0.00    +0.000 A 
ATOM     15  H   UNL     1      44.550   1.780  11.963  0.00  0.00    +0.000 HD
ENDBRANCH   2   5
BRANCH   3  16
ATOM     16  C   UNL     1      48.209   5.375  15.998  0.00  0.00    +0.000 C 
BRANCH  16  17
ATOM     17  C   UNL     1      47.841   4.437  17.162  0.00  0.00    +0.000 C 
ATOM     18  C   UNL     1      47.694   5.156  18.509  0.00  0.00    +0.000 C 
ATOM     19  C   UNL     1      49.024   5.711  19.026  0.00  0.00    +0.000 C 
ATOM     20  N   UNL     1      50.109   4.713  19.065  0.00  0.00    +0.000 NA
ATOM     21  C   UNL     1      50.238   3.942  17.820  0.00  0.00    +0.000 C 
ATOM     22  C   UNL     1      48.907   3.351  17.346  0.00  0.00    +0.000 C 
BRANCH  20  23
ATOM     23  C   UNL     1      51.407   5.382  19.353  0.00  0.00    +0.000 C 
BRANCH  23  24
ATOM     24  C   UNL     1      52.381   4.543  20.163  0.00  0.00    +0.000 A 
ATOM     25  C   UNL     1      52.351   4.588  21.555  0.00  0.00    +0.000 A 
ATOM     26  C   UNL     1      53.297   3.860  22.270  0.00  0.00    +0.000 A 
ATOM     27  C   UNL     1      54.235   3.100  21.581  0.00  0.00    +0.000 A 
ATOM     28  C   UNL     1      54.184   3.094  20.198  0.00  0.00    +0.000 A 
ATOM     29  N   UNL     1      53.285   3.797  19.475  0.00  0.00    +0.000 NA
ENDBRANCH  23  24
ENDBRANCH  20  23
ENDBRANCH  16  17
ENDBRANCH   3  16
TORSDOF 5
ENDMDL
MODEL 6
REMARK VINA RESULT:    -6.888      3.563      9.904
REMARK INTER + INTRA:          -9.519
REMARK INTER:                  -8.909
REMARK INTRA:                  -0.610
REMARK UNBOUND:                -0.618
REMARK  Name = 
REMARK  5 active torsions:
REMARK  status: ('A' for Active; 'I' for Inactive)
REMARK    1  A    between atoms: C_2  and  C_18
REMARK    2  A    between atoms: N_3  and  C_4
REMARK    3  A    between atoms: C_4  and  C_5
REMARK    4  A    between atoms: N_8  and  C_9
REMARK    5  A    between atoms: C_9  and  C_10
REMARK                            x       y       z     vdW  Elec       q    Type
REMARK                         _______ _______ _______ _____ _____    ______ ____
ROOT
ATOM      1  O   UNL     1      49.212   6.556  13.907  0.00  0.00    +0.000 OA
ATOM      2  C   UNL     1      48.104   6.205  14.302  0.00  0.00    +0.000 C 
ATOM      3  N   UNL     1      47.855   5.754  15.569  0.00  0.00    +0.000 N 
ATOM      4  H   UNL     1      46.899   5.562  15.838  0.00  0.00    +0.000 HD
ENDROOT
BRANCH   2   5
ATOM      5  C   UNL     1      46.939   6.167  13.410  0.00  0.00    +0.000 A 
ATOM      6  C   UNL     1      46.379   7.334  12.918  0.00  0.00    +0.000 A 
ATOM      7  S   UNL     1      45.103   7.054  11.817  0.00  0.00    +0.000 S 
ATOM      8  C   UNL     1      45.219   5.367  12.019  0.00  0.00    +0.000 A 
ATOM      9  N   UNL     1      44.401   4.515  11.342  0.00  0.00    +0.000 NA
ATOM     10  C   UNL     1      44.581   3.266  11.624  0.00  0.00    +0.000 A 
ATOM     11  N   UNL     1      45.494   2.794  12.533  0.00  0.00    +0.000 N 
ATOM     12  C   UNL     1      46.351   3.614  13.226  0.00  0.00    +0.000 A 
ATOM     13  O   UNL     1      47.178   3.154  14.007  0.00  0.00    +0.000 OA
ATOM     14  C   UNL     1      46.205   5.024  12.923  0.00  0.00    +0.000 A 
ATOM     15  H   UNL     1      45.578   1.803  12.709  0.00  0.00    +0.000 HD
ENDBRANCH   2   5
BRANCH   3  16
ATOM     16  C   UNL     1      48.813   5.838  16.648  0.00  0.00    +0.000 C 
BRANCH  16  17
ATOM     17  C   UNL     1      48.423   4.988  17.871  0.00  0.00    +0.000 C 
ATOM     18  C   UNL     1      47.183   5.506  18.611  0.00  0.00    +0.000 C 
ATOM     19  C   UNL     1      47.428   6.855  19.292  0.00  0.00    +0.000 C 
ATOM     20  N   UNL     1      48.619   6.875  20.161  0.00  0.00    +0.000 NA
ATOM     21  C   UNL     1      49.818   6.314  19.521  0.00  0.00    +0.000 C 
ATOM     22  C   UNL     1      49.567   4.941  18.890  0.00  0.00    +0.000 C 
BRANCH  20  23
ATOM     23  C   UNL     1      48.912   8.268  20.593  0.00  0.00    +0.000 C 
BRANCH  23  24
ATOM     24  C   UNL     1      47.681   9.123  20.841  0.00  0.00    +0.000 A 
ATOM     25  C   UNL     1      47.248  10.021  19.868  0.00  0.00    +0.000 A 
ATOM     26  C   UNL     1      46.156  10.838  20.148  0.00  0.00    +0.000 A 
ATOM     27  C   UNL     1      45.522  10.729  21.380  0.00  0.00    +0.000 A 
ATOM     28  C   UNL     1      46.004   9.798  22.284  0.00  0.00    +0.000 A 
ATOM     29  N   UNL     1      47.066   8.998  22.047  0.00  0.00    +0.000 NA
ENDBRANCH  23  24
ENDBRANCH  20  23
ENDBRANCH  16  17
ENDBRANCH   3  16
TORSDOF 5
ENDMDL
MODEL 7
REMARK VINA RESULT:    -6.878      3.799      9.165
REMARK INTER + INTRA:          -9.506
REMARK INTER:                  -8.798
REMARK INTRA:                  -0.708
REMARK UNBOUND:                -0.618
REMARK  Name = 
REMARK  5 active torsions:
REMARK  status: ('A' for Active; 'I' for Inactive)
REMARK    1  A    between atoms: C_2  and  C_18
REMARK    2  A    between atoms: N_3  and  C_4
REMARK    3  A    between atoms: C_4  and  C_5
REMARK    4  A    between atoms: N_8  and  C_9
REMARK    5  A    between atoms: C_9  and  C_10
REMARK                            x       y       z     vdW  Elec       q    Type
REMARK                         _______ _______ _______ _____ _____    ______ ____
ROOT
ATOM      1  O   UNL     1      46.942   3.121  13.619  0.00  0.00    +0.000 OA
ATOM      2  C   UNL     1      46.661   4.205  14.121  0.00  0.00    +0.000 C 
ATOM      3  N   UNL     1      46.809   4.488  15.452  0.00  0.00    +0.000 N 
ATOM      4  H   UNL     1      46.630   5.431  15.771  0.00  0.00    +0.000 HD
ENDROOT
BRANCH   2   5
ATOM      5  C   UNL     1      46.059   5.289  13.339  0.00  0.00    +0.000 A 
ATOM      6  C   UNL     1      46.775   6.437  13.041  0.00  0.00    +0.000 A 
ATOM      7  S   UNL     1      45.921   7.519  12.032  0.00  0.00    +0.000 S 
ATOM      8  C   UNL     1      44.545   6.516  12.020  0.00  0.00    +0.000 A 
ATOM      9  N   UNL     1      43.428   6.855  11.320  0.00  0.00    +0.000 NA
ATOM     10  C   UNL     1      42.452   6.015  11.434  0.00  0.00    +0.000 A 
ATOM     11  N   UNL     1      42.487   4.874  12.195  0.00  0.00    +0.000 N 
ATOM     12  C   UNL     1      43.598   4.482  12.902  0.00  0.00    +0.000 A 
ATOM     13  O   UNL     1      43.605   3.438  13.547  0.00  0.00    +0.000 OA
ATOM     14  C   UNL     1      44.729   5.381  12.785  0.00  0.00    +0.000 A 
ATOM     15  H   UNL     1      41.684   4.263  12.243  0.00  0.00    +0.000 HD
ENDBRANCH   2   5
BRANCH   3  16
ATOM     16  C   UNL     1      47.508   3.626  16.378  0.00  0.00    +0.000 C 
BRANCH  16  17
ATOM     17  C   UNL     1      47.609   4.217  17.796  0.00  0.00    +0.000 C 
ATOM     18  C   UNL     1      48.222   5.622  17.836  0.00  0.00    +0.000 C 
ATOM     19  C   UNL     1      49.701   5.628  17.441  0.00  0.00    +0.000 C 
ATOM     20  N   UNL     1      50.521   4.662  18.194  0.00  0.00    +0.000 NA
ATOM     21  C   UNL     1      49.933   3.316  18.251  0.00  0.00    +0.000 C 
ATOM     22  C   UNL     1      48.468   3.325  18.698  0.00  0.00    +0.000 C 
BRANCH  20  23
ATOM     23  C   UNL     1      51.880   4.568  17.594  0.00  0.00    +0.000 C 
BRANCH  23  24
ATOM     24  C   UNL     1      52.882   3.786  18.425  0.00  0.00    +0.000 A 
ATOM     25  C   UNL     1      53.517   2.670  17.883  0.00  0.00    +0.000 A 
ATOM     26  C   UNL     1      54.382   1.934  18.688  0.00  0.00    +0.000 A 
ATOM     27  C   UNL     1      54.598   2.336  20.000  0.00  0.00    +0.000 A 
ATOM     28  C   UNL     1      53.943   3.467  20.456  0.00  0.00    +0.000 A 
ATOM     29  N   UNL     1      53.091   4.197  19.703  0.00  0.00    +0.000 NA
ENDBRANCH  23  24
ENDBRANCH  20  23
ENDBRANCH  16  17
ENDBRANCH   3  16
TORSDOF 5
ENDMDL
MODEL 8
REMARK VINA RESULT:    -6.869      3.110      8.132
REMARK INTER + INTRA:          -9.494
REMARK INTER:                  -8.769
REMARK INTRA:                  -0.725
REMARK UNBOUND:                -0.618
REMARK  Name = 
REMARK  5 active torsions:
REMARK  status: ('A' for Active; 'I' for Inactive)
REMARK    1  A    between atoms: C_2  and  C_18
REMARK    2  A    between atoms: N_3  and  C_4
REMARK    3  A    between atoms: C_4  and  C_5
REMARK    4  A    between atoms: N_8  and  C_9
REMARK    5  A    between atoms: C_9  and  C_10
REMARK                            x       y       z     vdW  Elec       q    Type
REMARK                         _______ _______ _______ _____ _____    ______ ____
ROOT
ATOM      1  O   UNL     1      44.435   8.138  11.447  0.00  0.00    +0.000 OA
ATOM      2  C   UNL     1      45.161   7.178  11.687  0.00  0.00    +0.000 C 
ATOM      3  N   UNL     1      46.506   7.281  11.920  0.00  0.00    +0.000 N 
ATOM      4  H   UNL     1      47.017   6.451  12.189  0.00  0.00    +0.000 HD
ENDROOT
BRANCH   2   5
ATOM      5  C   UNL     1      44.658   5.801  11.669  0.00  0.00    +0.000 A 
ATOM      6  C   UNL     1      43.952   5.285  12.744  0.00  0.00    +0.000 A 
ATOM      7  S   UNL     1      43.368   3.704  12.467  0.00  0.00    +0.000 S 
ATOM      8  C   UNL     1      44.100   3.637  10.931  0.00  0.00    +0.000 A 
ATOM      9  N   UNL     1      43.981   2.538  10.138  0.00  0.00    +0.000 NA
ATOM     10  C   UNL     1      44.619   2.618   9.016  0.00  0.00    +0.000 A 
ATOM     11  N   UNL     1      45.377   3.692   8.623  0.00  0.00    +0.000 N 
ATOM     12  C   UNL     1      45.510   4.830   9.382  0.00  0.00    +0.000 A 
ATOM     13  O   UNL     1      46.170   5.786   8.985  0.00  0.00    +0.000 OA
ATOM     14  C   UNL     1      44.790   4.797  10.640  0.00  0.00    +0.000 A 
ATOM     15  H   UNL     1      45.854   3.687   7.733  0.00  0.00    +0.000 HD
ENDBRANCH   2   5
BRANCH   3  16
ATOM     16  C   UNL     1      47.186   8.539  12.123  0.00  0.00    +0.000 C 
BRANCH  16  17
ATOM     17  C   UNL     1      48.714   8.389  12.241  0.00  0.00    +0.000 C 
ATOM     18  C   UNL     1      49.175   6.947  12.488  0.00  0.00    +0.000 C 
ATOM     19  C   UNL     1      48.750   6.424  13.862  0.00  0.00    +0.000 C 
ATOM     20  N   UNL     1      49.131   7.308  14.979  0.00  0.00    +0.000 NA
ATOM     21  C   UNL     1      48.780   8.718  14.753  0.00  0.00    +0.000 C 
ATOM     22  C   UNL     1      49.258   9.239  13.395  0.00  0.00    +0.000 C 
BRANCH  20  23
ATOM     23  C   UNL     1      48.485   6.848  16.238  0.00  0.00    +0.000 C 
BRANCH  23  24
ATOM     24  C   UNL     1      48.799   5.411  16.618  0.00  0.00    +0.000 A 
ATOM     25  C   UNL     1      47.785   4.455  16.633  0.00  0.00    +0.000 A 
ATOM     26  C   UNL     1      48.088   3.162  17.047  0.00  0.00    +0.000 A 
ATOM     27  C   UNL     1      49.390   2.855  17.422  0.00  0.00    +0.000 A 
ATOM     28  C   UNL     1      50.343   3.857  17.361  0.00  0.00    +0.000 A 
ATOM     29  N   UNL     1      50.079   5.123  16.972  0.00  0.00    +0.000 NA
ENDBRANCH  23  24
ENDBRANCH  20  23
ENDBRANCH  16  17
ENDBRANCH   3  16
TORSDOF 5
ENDMDL
MODEL 9
REMARK VINA RESULT:    -6.735      3.714      8.157
REMARK INTER + INTRA:          -9.322
REMARK INTER:                  -8.933
REMARK INTRA:                  -0.389
REMARK UNBOUND:                -0.618
REMARK  Name = 
REMARK  5 active torsions:
REMARK  status: ('A' for Active; 'I' for Inactive)
REMARK    1  A    between atoms: C_2  and  C_18
REMARK    2  A    between atoms: N_3  and  C_4
REMARK    3  A    between atoms: C_4  and  C_5
REMARK    4  A    between atoms: N_8  and  C_9
REMARK    5  A    between atoms: C_9  and  C_10
REMARK                            x       y       z     vdW  Elec       q    Type
REMARK                         _______ _______ _______ _____ _____    ______ ____
ROOT
ATOM      1  O   UNL     1      46.985   3.104  13.560  0.00  0.00    +0.000 OA
ATOM      2  C   UNL     1      46.714   4.162  14.119  0.00  0.00    +0.000 C 
ATOM      3  N   UNL     1      46.919   4.392  15.453  0.00  0.00    +0.000 N 
ATOM      4  H   UNL     1      46.744   5.318  15.818  0.00  0.00    +0.000 HD
ENDROOT
BRANCH   2   5
ATOM      5  C   UNL     1      46.064   5.269  13.411  0.00  0.00    +0.000 A 
ATOM      6  C   UNL     1      46.700   6.490  13.258  0.00  0.00    +0.000 A 
ATOM      7  S   UNL     1      45.809   7.598  12.310  0.00  0.00    +0.000 S 
ATOM      8  C   UNL     1      44.518   6.501  12.135  0.00  0.00    +0.000 A 
ATOM      9  N   UNL     1      43.410   6.823  11.413  0.00  0.00    +0.000 NA
ATOM     10  C   UNL     1      42.499   5.906  11.398  0.00  0.00    +0.000 A 
ATOM     11  N   UNL     1      42.589   4.703  12.051  0.00  0.00    +0.000 N 
ATOM     12  C   UNL     1      43.696   4.328  12.775  0.00  0.00    +0.000 A 
ATOM     13  O   UNL     1      43.756   3.230  13.320  0.00  0.00    +0.000 OA
ATOM     14  C   UNL     1      44.757   5.315  12.799  0.00  0.00    +0.000 A 
ATOM     15  H   UNL     1      41.836   4.032  12.000  0.00  0.00    +0.000 HD
ENDBRANCH   2   5
BRANCH   3  16
ATOM     16  C   UNL     1      47.669   3.503  16.309  0.00  0.00    +0.000 C 
BRANCH  16  17
ATOM     17  C   UNL     1      47.394   3.730  17.807  0.00  0.00    +0.000 C 
ATOM     18  C   UNL     1      47.074   5.188  18.161  0.00  0.00    +0.000 C 
ATOM     19  C   UNL     1      48.277   6.115  17.969  0.00  0.00    +0.000 C 
ATOM     20  N   UNL     1      49.499   5.652  18.651  0.00  0.00    +0.000 NA
ATOM     21  C   UNL     1      49.804   4.235  18.405  0.00  0.00    +0.000 C 
ATOM     22  C   UNL     1      48.604   3.317  18.653  0.00  0.00    +0.000 C 
BRANCH  20  23
ATOM     23  C   UNL     1      50.664   6.475  18.227  0.00  0.00    +0.000 C 
BRANCH  23  24
ATOM     24  C   UNL     1      50.437   7.282  16.960  0.00  0.00    +0.000 A 
ATOM     25  C   UNL     1      50.359   8.672  17.022  0.00  0.00    +0.000 A 
ATOM     26  C   UNL     1      50.085   9.381  15.856  0.00  0.00    +0.000 A 
ATOM     27  C   UNL     1      49.909   8.690  14.664  0.00  0.00    +0.000 A 
ATOM     28  C   UNL     1      50.021   7.310  14.684  0.00  0.00    +0.000 A 
ATOM     29  N   UNL     1      50.276   6.592  15.799  0.00  0.00    +0.000 NA
ENDBRANCH  23  24
ENDBRANCH  20  23
ENDBRANCH  16  17
ENDBRANCH   3  16
TORSDOF 5
ENDMDL
