MODEL 1
REMARK VINA RESULT:    -7.610      0.000      0.000
REMARK INTER + INTRA:         -12.166
REMARK INTER:                 -10.724
REMARK INTRA:                  -1.442
REMARK UNBOUND:                -1.442
REMARK  Name = 
REMARK  9 active torsions:
REMARK  status: ('A' for Active; 'I' for Inactive)
REMARK    1  A    between atoms: C_1  and  C_2
REMARK    2  A    between atoms: C_2  and  N_3
REMARK    3  A    between atoms: C_2  and  C_11
REMARK    4  A    between atoms: N_3  and  C_4
REMARK    5  A    between atoms: C_4  and  C_5
REMARK    6  A    between atoms: C_14  and  C_15
REMARK    7  A    between atoms: C_15  and  N_16
REMARK    8  A    between atoms: N_16  and  C_17
REMARK    9  A    between atoms: C_18  and  C_20
REMARK                            x       y       z     vdW  Elec       q    Type
REMARK                         _______ _______ _______ _____ _____    ______ ____
ROOT
ATOM      1  C   UNL     1      45.466   4.880  12.332  0.00  0.00    +0.000 A 
ATOM      2  C   UNL     1      46.194   4.564  13.493  0.00  0.00    +0.000 A 
ATOM      3  C   UNL     1      47.346   5.270  13.832  0.00  0.00    +0.000 A 
ATOM      4  C   UNL     1      47.769   6.359  13.062  0.00  0.00    +0.000 A 
ATOM      5  C   UNL     1      47.042   6.687  11.910  0.00  0.00    +0.000 A 
ATOM      6  C   UNL     1      45.915   5.944  11.539  0.00  0.00    +0.000 A 
ENDROOT
BRANCH   1   8
ATOM      7  C   UNL     1      43.256   4.739  11.083  0.00  0.00    +0.000 C 
ATOM      8  C   UNL     1      44.296   3.990  11.931  0.00  0.00    +0.000 C 
BRANCH   8   9
ATOM      9  N   UNL     1      44.739   2.785  11.200  0.00  0.00    +0.000 NA
ATOM     10  H   UNL     1      44.415   1.961  11.702  0.00  0.00    +0.000 HD
BRANCH   9  11
ATOM     11  C   UNL     1      44.201   2.740   9.837  0.00  0.00    +0.000 C 
BRANCH  11  12
ATOM     12  C   UNL     1      45.277   2.698   8.783  0.00  0.00    +0.000 A 
ATOM     13  C   UNL     1      45.718   3.879   8.176  0.00  0.00    +0.000 A 
ATOM     14  C   UNL     1      46.760   3.811   7.264  0.00  0.00    +0.000 A 
ATOM     15  N   UNL     1      47.377   2.663   6.915  0.00  0.00    +0.000 NA
ATOM     16  C   UNL     1      46.931   1.538   7.504  0.00  0.00    +0.000 A 
ATOM     17  C   UNL     1      45.899   1.499   8.433  0.00  0.00    +0.000 A 
ENDBRANCH  11  12
ENDBRANCH   9  11
ENDBRANCH   8   9
ENDBRANCH   1   8
BRANCH   4  18
ATOM     18  C   UNL     1      48.974   7.161  13.491  0.00  0.00    +0.000 C 
BRANCH  18  19
ATOM     19  N   UNL     1      48.847   7.739  14.825  0.00  0.00    +0.000 N 
ATOM     20  C   UNL     1      47.813   8.747  14.998  0.00  0.00    +0.000 C 
ATOM     21  C   UNL     1      49.655   7.211  15.844  0.00  0.00    +0.000 C 
ATOM     22  O   UNL     1      50.507   6.357  15.608  0.00  0.00    +0.000 OA
BRANCH  21  23
ATOM     23  C   UNL     1      49.431   7.633  17.235  0.00  0.00    +0.000 A 
ATOM     24  C   UNL     1      49.835   8.853  17.755  0.00  0.00    +0.000 A 
ATOM     25  S   UNL     1      49.364   9.096  19.377  0.00  0.00    +0.000 S 
ATOM     26  C   UNL     1      48.486   7.638  19.394  0.00  0.00    +0.000 A 
ATOM     27  N   UNL     1      47.746   7.282  20.477  0.00  0.00    +0.000 NA
ATOM     28  C   UNL     1      47.082   6.185  20.324  0.00  0.00    +0.000 A 
ATOM     29  N   UNL     1      47.118   5.397  19.202  0.00  0.00    +0.000 N 
ATOM     30  C   UNL     1      47.952   5.652  18.131  0.00  0.00    +0.000 A 
ATOM     31  O   UNL     1      48.125   4.813  17.254  0.00  0.00    +0.000 OA
ATOM     32  C   UNL     1      48.629   6.935  18.211  0.00  0.00    +0.000 A 
ATOM     33  H   UNL     1      46.620   4.520  19.171  0.00  0.00    +0.000 HD
ENDBRANCH  21  23
ENDBRANCH  18  19
ENDBRANCH   4  18
TORSDOF 7
ENDMDL
MODEL 2
REMARK VINA RESULT:    -6.992      1.632      2.593
REMARK INTER + INTRA:         -11.296
REMARK INTER:                  -9.900
REMARK INTRA:                  -1.396
REMARK UNBOUND:                -1.442
REMARK  Name = 
REMARK  9 active torsions:
REMARK  status: ('A' for Active; 'I' for Inactive)
REMARK    1  A    between atoms: C_1  and  C_2
REMARK    2  A    between atoms: C_2  and  N_3
REMARK    3  A    between atoms: C_2  and  C_11
REMARK    4  A    between atoms: N_3  and  C_4
REMARK    5  A    between atoms: C_4  and  C_5
REMARK    6  A    between atoms: C_14  and  C_15
REMARK    7  A    between atoms: C_15  and  N_16
REMARK    8  A    between atoms: N_16  and  C_17
REMARK    9  A    between atoms: C_18  and  C_20
REMARK                            x       y       z     vdW  Elec       q    Type
REMARK                         _______ _______ _______ _____ _____    ______ ____
ROOT
ATOM      1  C   UNL     1      45.035   5.219  11.947  0.00  0.00    +0.000 A 
ATOM      2  C   UNL     1      45.601   4.833  13.174  0.00  0.00    +0.000 A 
ATOM      3  C   UNL     1      46.845   5.317  13.575  0.00  0.00    +0.000 A 
ATOM      4  C   UNL     1      47.529   6.256  12.797  0.00  0.00    +0.000 A 
ATOM      5  C   UNL     1      46.965   6.655  11.577  0.00  0.00    +0.000 A 
ATOM      6  C   UNL     1      45.742   6.128  11.148  0.00  0.00    +0.000 A 
ENDROOT
BRANCH   1   8
ATOM      7  C   UNL     1      42.509   5.437  11.746  0.00  0.00    +0.000 C 
ATOM      8  C   UNL     1      43.741   4.555  11.490  0.00  0.00    +0.000 C 
BRANCH   8   9
ATOM      9  N   UNL     1      43.781   4.183  10.061  0.00  0.00    +0.000 NA
ATOM     10  H   UNL     1      44.405   4.823   9.573  0.00  0.00    +0.000 HD
BRANCH   9  11
ATOM     11  C   UNL     1      44.270   2.815   9.863  0.00  0.00    +0.000 C 
BRANCH  11  12
ATOM     12  C   UNL     1      45.304   2.715   8.772  0.00  0.00    +0.000 A 
ATOM     13  C   UNL     1      45.728   3.861   8.091  0.00  0.00    +0.000 A 
ATOM     14  C   UNL     1      46.732   3.742   7.144  0.00  0.00    +0.000 A 
ATOM     15  N   UNL     1      47.329   2.574   6.827  0.00  0.00    +0.000 NA
ATOM     16  C   UNL     1      46.899   1.481   7.487  0.00  0.00    +0.000 A 
ATOM     17  C   UNL     1      45.905   1.495   8.456  0.00  0.00    +0.000 A 
ENDBRANCH  11  12
ENDBRANCH   9  11
ENDBRANCH   8   9
ENDBRANCH   1   8
BRANCH   4  18
ATOM     18  C   UNL     1      48.837   6.829  13.287  0.00  0.00    +0.000 C 
BRANCH  18  19
ATOM     19  N   UNL     1      48.698   7.677  14.467  0.00  0.00    +0.000 N 
ATOM     20  C   UNL     1      47.776   8.797  14.354  0.00  0.00    +0.000 C 
ATOM     21  C   UNL     1      49.380   7.292  15.631  0.00  0.00    +0.000 C 
ATOM     22  O   UNL     1      50.142   6.327  15.637  0.00  0.00    +0.000 OA
BRANCH  21  23
ATOM     23  C   UNL     1      49.124   8.009  16.889  0.00  0.00    +0.000 A 
ATOM     24  C   UNL     1      48.309   7.535  17.906  0.00  0.00    +0.000 A 
ATOM     25  S   UNL     1      48.268   8.547  19.279  0.00  0.00    +0.000 S 
ATOM     26  C   UNL     1      49.445   9.581  18.615  0.00  0.00    +0.000 A 
ATOM     27  N   UNL     1      49.944  10.622  19.333  0.00  0.00    +0.000 NA
ATOM     28  C   UNL     1      50.876  11.282  18.729  0.00  0.00    +0.000 A 
ATOM     29  N   UNL     1      51.328  11.014  17.461  0.00  0.00    +0.000 N 
ATOM     30  C   UNL     1      50.763  10.051  16.649  0.00  0.00    +0.000 A 
ATOM     31  O   UNL     1      51.038   9.994  15.456  0.00  0.00    +0.000 OA
ATOM     32  C   UNL     1      49.793   9.211  17.329  0.00  0.00    +0.000 A 
ATOM     33  H   UNL     1      52.018  11.607  17.025  0.00  0.00    +0.000 HD
ENDBRANCH  21  23
ENDBRANCH  18  19
ENDBRANCH   4  18
TORSDOF 7
ENDMDL
MODEL 3
REMARK VINA RESULT:    -6.989      1.680      1.831
REMARK INTER + INTRA:         -11.291
REMARK INTER:                 -10.112
REMARK INTRA:                  -1.179
REMARK UNBOUND:                -1.442
REMARK  Name = 
REMARK  9 active torsions:
REMARK  status: ('A' for Active; 'I' for Inactive)
REMARK    1  A    between atoms: C_1  and  C_2
REMARK    2  A    between atoms: C_2  and  N_3
REMARK    3  A    between atoms: C_2  and  C_11
REMARK    4  A    between atoms: N_3  and  C_4
REMARK    5  A    between atoms: C_4  and  C_5
REMARK    6  A    between atoms: C_14  and  C_15
REMARK    7  A    between atoms: C_15  and  N_16
REMARK    8  A    between atoms: N_16  and  C_17
REMARK    9  A    between atoms: C_18  and  C_20
REMARK                            x       y       z     vdW  Elec       q    Type
REMARK                         _______ _______ _______ _____ _____    ______ ____
ROOT
ATOM      1  C   UNL     1      45.615   6.470  12.011  0.00  0.00    +0.000 A 
ATOM      2  C   UNL     1      46.982   6.142  12.050  0.00  0.00    +0.000 A 
ATOM      3  C   UNL     1      47.914   7.013  12.608  0.00  0.00    +0.000 A 
ATOM      4  C   UNL     1      47.504   8.207  13.210  0.00  0.00    +0.000 A 
ATOM      5  C   UNL     1      46.142   8.536  13.186  0.00  0.00    +0.000 A 
ATOM      6  C   UNL     1      45.211   7.687  12.577  0.00  0.00    +0.000 A 
ENDROOT
BRANCH   1   8
ATOM      7  C   UNL     1      43.201   6.036  11.343  0.00  0.00    +0.000 C 
ATOM      8  C   UNL     1      44.656   5.550  11.266  0.00  0.00    +0.000 C 
BRANCH   8   9
ATOM      9  N   UNL     1      45.036   5.382   9.848  0.00  0.00    +0.000 NA
ATOM     10  H   UNL     1      46.046   5.274   9.790  0.00  0.00    +0.000 HD
BRANCH   9  11
ATOM     11  C   UNL     1      44.407   4.202   9.246  0.00  0.00    +0.000 C 
BRANCH  11  12
ATOM     12  C   UNL     1      45.382   3.341   8.487  0.00  0.00    +0.000 A 
ATOM     13  C   UNL     1      46.287   3.920   7.591  0.00  0.00    +0.000 A 
ATOM     14  C   UNL     1      47.218   3.106   6.965  0.00  0.00    +0.000 A 
ATOM     15  N   UNL     1      47.301   1.774   7.160  0.00  0.00    +0.000 NA
ATOM     16  C   UNL     1      46.414   1.236   8.018  0.00  0.00    +0.000 A 
ATOM     17  C   UNL     1      45.447   1.964   8.700  0.00  0.00    +0.000 A 
ENDBRANCH  11  12
ENDBRANCH   9  11
ENDBRANCH   8   9
ENDBRANCH   1   8
BRANCH   4  18
ATOM     18  C   UNL     1      48.520   9.100  13.881  0.00  0.00    +0.000 C 
BRANCH  18  19
ATOM     19  N   UNL     1      48.854   8.686  15.241  0.00  0.00    +0.000 N 
ATOM     20  C   UNL     1      47.950   9.128  16.292  0.00  0.00    +0.000 C 
ATOM     21  C   UNL     1      49.949   7.825  15.410  0.00  0.00    +0.000 C 
ATOM     22  O   UNL     1      50.662   7.501  14.463  0.00  0.00    +0.000 OA
BRANCH  21  23
ATOM     23  C   UNL     1      50.208   7.239  16.734  0.00  0.00    +0.000 A 
ATOM     24  C   UNL     1      51.027   7.812  17.695  0.00  0.00    +0.000 A 
ATOM     25  S   UNL     1      51.071   6.943  19.163  0.00  0.00    +0.000 S 
ATOM     26  C   UNL     1      49.890   5.849  18.611  0.00  0.00    +0.000 A 
ATOM     27  N   UNL     1      49.393   4.887  19.432  0.00  0.00    +0.000 NA
ATOM     28  C   UNL     1      48.458   4.171  18.900  0.00  0.00    +0.000 A 
ATOM     29  N   UNL     1      48.002   4.310  17.613  0.00  0.00    +0.000 N 
ATOM     30  C   UNL     1      48.565   5.185  16.707  0.00  0.00    +0.000 A 
ATOM     31  O   UNL     1      48.286   5.122  15.515  0.00  0.00    +0.000 OA
ATOM     32  C   UNL     1      49.539   6.089  17.294  0.00  0.00    +0.000 A 
ATOM     33  H   UNL     1      47.309   3.678  17.242  0.00  0.00    +0.000 HD
ENDBRANCH  21  23
ENDBRANCH  18  19
ENDBRANCH   4  18
TORSDOF 7
ENDMDL
MODEL 4
REMARK VINA RESULT:    -6.572      3.370      4.999
REMARK INTER + INTRA:         -10.704
REMARK INTER:                  -9.388
REMARK INTRA:                  -1.316
REMARK UNBOUND:                -1.442
REMARK  Name = 
REMARK  9 active torsions:
REMARK  status: ('A' for Active; 'I' for Inactive)
REMARK    1  A    between atoms: C_1  and  C_2
REMARK    2  A    between atoms: C_2  and  N_3
REMARK    3  A    between atoms: C_2  and  C_11
REMARK    4  A    between atoms: N_3  and  C_4
REMARK    5  A    between atoms: C_4  and  C_5
REMARK    6  A    between atoms: C_14  and  C_15
REMARK    7  A    between atoms: C_15  and  N_16
REMARK    8  A    between atoms: N_16  and  C_17
REMARK    9  A    between atoms: C_18  and  C_20
REMARK                            x       y       z     vdW  Elec       q    Type
REMARK                         _______ _______ _______ _____ _____    ______ ____
ROOT
ATOM      1  C   UNL     1      45.677   5.450  11.514  0.00  0.00    +0.000 A 
ATOM      2  C   UNL     1      46.066   5.029  12.798  0.00  0.00    +0.000 A 
ATOM      3  C   UNL     1      46.697   5.904  13.680  0.00  0.00    +0.000 A 
ATOM      4  C   UNL     1      46.896   7.245  13.335  0.00  0.00    +0.000 A 
ATOM      5  C   UNL     1      46.500   7.674  12.061  0.00  0.00    +0.000 A 
ATOM      6  C   UNL     1      45.915   6.783  11.155  0.00  0.00    +0.000 A 
ENDROOT
BRANCH   1   8
ATOM      7  C   UNL     1      43.641   4.100  10.809  0.00  0.00    +0.000 C 
ATOM      8  C   UNL     1      45.119   4.421  10.539  0.00  0.00    +0.000 C 
BRANCH   8   9
ATOM      9  N   UNL     1      45.273   4.846   9.133  0.00  0.00    +0.000 NA
ATOM     10  H   UNL     1      46.263   4.975   8.936  0.00  0.00    +0.000 HD
BRANCH   9  11
ATOM     11  C   UNL     1      44.738   3.853   8.196  0.00  0.00    +0.000 C 
BRANCH  11  12
ATOM     12  C   UNL     1      45.801   2.943   7.636  0.00  0.00    +0.000 A 
ATOM     13  C   UNL     1      46.646   3.389   6.615  0.00  0.00    +0.000 A 
ATOM     14  C   UNL     1      47.659   2.552   6.174  0.00  0.00    +0.000 A 
ATOM     15  N   UNL     1      47.878   1.316   6.669  0.00  0.00    +0.000 NA
ATOM     16  C   UNL     1      47.047   0.903   7.644  0.00  0.00    +0.000 A 
ATOM     17  C   UNL     1      46.007   1.666   8.159  0.00  0.00    +0.000 A 
ENDBRANCH  11  12
ENDBRANCH   9  11
ENDBRANCH   8   9
ENDBRANCH   1   8
BRANCH   4  18
ATOM     18  C   UNL     1      47.508   8.196  14.334  0.00  0.00    +0.000 C 
BRANCH  18  19
ATOM     19  N   UNL     1      48.948   8.371  14.170  0.00  0.00    +0.000 N 
ATOM     20  C   UNL     1      49.792   7.312  14.702  0.00  0.00    +0.000 C 
ATOM     21  C   UNL     1      49.391   9.480  13.435  0.00  0.00    +0.000 C 
ATOM     22  O   UNL     1      48.605  10.330  13.021  0.00  0.00    +0.000 OA
BRANCH  21  23
ATOM     23  C   UNL     1      50.816   9.595  13.089  0.00  0.00    +0.000 A 
ATOM     24  C   UNL     1      51.720  10.402  13.763  0.00  0.00    +0.000 A 
ATOM     25  S   UNL     1      53.320  10.266  13.186  0.00  0.00    +0.000 S 
ATOM     26  C   UNL     1      52.882   9.024  12.110  0.00  0.00    +0.000 A 
ATOM     27  N   UNL     1      53.821   8.383  11.364  0.00  0.00    +0.000 NA
ATOM     28  C   UNL     1      53.353   7.419  10.641  0.00  0.00    +0.000 A 
ATOM     29  N   UNL     1      52.030   7.064  10.572  0.00  0.00    +0.000 N 
ATOM     30  C   UNL     1      51.028   7.766  11.211  0.00  0.00    +0.000 A 
ATOM     31  O   UNL     1      49.849   7.561  10.947  0.00  0.00    +0.000 OA
ATOM     32  C   UNL     1      51.520   8.783  12.125  0.00  0.00    +0.000 A 
ATOM     33  H   UNL     1      51.724   6.338   9.941  0.00  0.00    +0.000 HD
ENDBRANCH  21  23
ENDBRANCH  18  19
ENDBRANCH   4  18
TORSDOF 7
ENDMDL
MODEL 5
REMARK VINA RESULT:    -6.426      3.776      5.034
REMARK INTER + INTRA:         -10.498
REMARK INTER:                  -9.369
REMARK INTRA:                  -1.129
REMARK UNBOUND:                -1.442
REMARK  Name = 
REMARK  9 active torsions:
REMARK  status: ('A' for Active; 'I' for Inactive)
REMARK    1  A    between atoms: C_1  and  C_2
REMARK    2  A    between atoms: C_2  and  N_3
REMARK    3  A    between atoms: C_2  and  C_11
REMARK    4  A    between atoms: N_3  and  C_4
REMARK    5  A    between atoms: C_4  and  C_5
REMARK    6  A    between atoms: C_14  and  C_15
REMARK    7  A    between atoms: C_15  and  N_16
REMARK    8  A    between atoms: N_16  and  C_17
REMARK    9  A    between atoms: C_18  and  C_20
REMARK                            x       y       z     vdW  Elec       q    Type
REMARK                         _______ _______ _______ _____ _____    ______ ____
ROOT
ATOM      1  C   UNL     1      44.932   4.728  11.414  0.00  0.00    +0.000 A 
ATOM      2  C   UNL     1      44.563   5.078  12.725  0.00  0.00    +0.000 A 
ATOM      3  C   UNL     1      44.797   6.359  13.219  0.00  0.00    +0.000 A 
ATOM      4  C   UNL     1      45.342   7.352  12.397  0.00  0.00    +0.000 A 
ATOM      5  C   UNL     1      45.701   7.014  11.086  0.00  0.00    +0.000 A 
ATOM      6  C   UNL     1      45.516   5.712  10.606  0.00  0.00    +0.000 A 
ENDROOT
BRANCH   1   8
ATOM      7  C   UNL     1      43.551   2.600  11.585  0.00  0.00    +0.000 C 
ATOM      8  C   UNL     1      44.784   3.278  10.969  0.00  0.00    +0.000 C 
BRANCH   8   9
ATOM      9  N   UNL     1      44.722   3.152   9.498  0.00  0.00    +0.000 NA
ATOM     10  H   UNL     1      45.220   3.935   9.081  0.00  0.00    +0.000 HD
BRANCH   9  11
ATOM     11  C   UNL     1      45.338   1.907   9.028  0.00  0.00    +0.000 C 
BRANCH  11  12
ATOM     12  C   UNL     1      46.178   2.099   7.792  0.00  0.00    +0.000 A 
ATOM     13  C   UNL     1      47.002   1.067   7.330  0.00  0.00    +0.000 A 
ATOM     14  C   UNL     1      47.704   1.252   6.150  0.00  0.00    +0.000 A 
ATOM     15  N   UNL     1      47.650   2.382   5.414  0.00  0.00    +0.000 NA
ATOM     16  C   UNL     1      46.859   3.366   5.882  0.00  0.00    +0.000 A 
ATOM     17  C   UNL     1      46.111   3.278   7.049  0.00  0.00    +0.000 A 
ENDBRANCH  11  12
ENDBRANCH   9  11
ENDBRANCH   8   9
ENDBRANCH   1   8
BRANCH   4  18
ATOM     18  C   UNL     1      45.513   8.756  12.926  0.00  0.00    +0.000 C 
BRANCH  18  19
ATOM     19  N   UNL     1      46.907   9.143  13.118  0.00  0.00    +0.000 N 
ATOM     20  C   UNL     1      47.630   8.453  14.175  0.00  0.00    +0.000 C 
ATOM     21  C   UNL     1      47.458  10.065  12.215  0.00  0.00    +0.000 C 
ATOM     22  O   UNL     1      46.771  10.601  11.348  0.00  0.00    +0.000 OA
BRANCH  21  23
ATOM     23  C   UNL     1      48.902  10.342  12.257  0.00  0.00    +0.000 A 
ATOM     24  C   UNL     1      49.459  11.502  12.774  0.00  0.00    +0.000 A 
ATOM     25  S   UNL     1      51.165  11.505  12.762  0.00  0.00    +0.000 S 
ATOM     26  C   UNL     1      51.216   9.903  12.193  0.00  0.00    +0.000 A 
ATOM     27  N   UNL     1      52.400   9.249  12.052  0.00  0.00    +0.000 NA
ATOM     28  C   UNL     1      52.283   8.020  11.674  0.00  0.00    +0.000 A 
ATOM     29  N   UNL     1      51.093   7.398  11.393  0.00  0.00    +0.000 N 
ATOM     30  C   UNL     1      49.880   8.057  11.398  0.00  0.00    +0.000 A 
ATOM     31  O   UNL     1      48.877   7.534  10.925  0.00  0.00    +0.000 OA
ATOM     32  C   UNL     1      49.952   9.407  11.928  0.00  0.00    +0.000 A 
ATOM     33  H   UNL     1      51.077   6.451  11.044  0.00  0.00    +0.000 HD
ENDBRANCH  21  23
ENDBRANCH  18  19
ENDBRANCH   4  18
TORSDOF 7
ENDMDL
MODEL 6
REMARK VINA RESULT:    -6.397      2.032      2.681
REMARK INTER + INTRA:         -10.457
REMARK INTER:                  -9.055
REMARK INTRA:                  -1.403
REMARK UNBOUND:                -1.442
REMARK  Name = 
REMARK  9 active torsions:
REMARK  status: ('A' for Active; 'I' for Inactive)
REMARK    1  A    between atoms: C_1  and  C_2
REMARK    2  A    between atoms: C_2  and  N_3
REMARK    3  A    between atoms: C_2  and  C_11
REMARK    4  A    between atoms: N_3  and  C_4
REMARK    5  A    between atoms: C_4  and  C_5
REMARK    6  A    between atoms: C_14  and  C_15
REMARK    7  A    between atoms: C_15  and  N_16
REMARK    8  A    between atoms: N_16  and  C_17
REMARK    9  A    between atoms: C_18  and  C_20
REMARK                            x       y       z     vdW  Elec       q    Type
REMARK                         _______ _______ _______ _____ _____    ______ ____
ROOT
ATOM      1  C   UNL     1      45.346   6.523  12.003  0.00  0.00    +0.000 A 
ATOM      2  C   UNL     1      45.087   7.865  12.332  0.00  0.00    +0.000 A 
ATOM      3  C   UNL     1      46.127   8.779  12.491  0.00  0.00    +0.000 A 
ATOM      4  C   UNL     1      47.452   8.399  12.255  0.00  0.00    +0.000 A 
ATOM      5  C   UNL     1      47.717   7.066  11.915  0.00  0.00    +0.000 A 
ATOM      6  C   UNL     1      46.678   6.134  11.809  0.00  0.00    +0.000 A 
ENDROOT
BRANCH   1   8
ATOM      7  C   UNL     1      42.937   6.112  11.302  0.00  0.00    +0.000 C 
ATOM      8  C   UNL     1      44.188   5.533  11.979  0.00  0.00    +0.000 C 
BRANCH   8   9
ATOM      9  N   UNL     1      44.554   4.264  11.316  0.00  0.00    +0.000 NA
ATOM     10  H   UNL     1      44.129   3.493  11.827  0.00  0.00    +0.000 HD
BRANCH   9  11
ATOM     11  C   UNL     1      44.086   4.215   9.928  0.00  0.00    +0.000 C 
BRANCH  11  12
ATOM     12  C   UNL     1      45.051   3.513   9.008  0.00  0.00    +0.000 A 
ATOM     13  C   UNL     1      45.271   2.137   9.132  0.00  0.00    +0.000 A 
ATOM     14  C   UNL     1      46.109   1.512   8.223  0.00  0.00    +0.000 A 
ATOM     15  N   UNL     1      46.741   2.155   7.219  0.00  0.00    +0.000 NA
ATOM     16  C   UNL     1      46.524   3.481   7.125  0.00  0.00    +0.000 A 
ATOM     17  C   UNL     1      45.698   4.199   7.980  0.00  0.00    +0.000 A 
ENDBRANCH  11  12
ENDBRANCH   9  11
ENDBRANCH   8   9
ENDBRANCH   1   8
BRANCH   4  18
ATOM     18  C   UNL     1      48.557   9.424  12.353  0.00  0.00    +0.000 C 
BRANCH  18  19
ATOM     19  N   UNL     1      49.305   9.360  13.605  0.00  0.00    +0.000 N 
ATOM     20  C   UNL     1      48.702  10.020  14.753  0.00  0.00    +0.000 C 
ATOM     21  C   UNL     1      50.480   8.594  13.625  0.00  0.00    +0.000 C 
ATOM     22  O   UNL     1      50.919   8.068  12.605  0.00  0.00    +0.000 OA
BRANCH  21  23
ATOM     23  C   UNL     1      51.163   8.351  14.905  0.00  0.00    +0.000 A 
ATOM     24  C   UNL     1      52.264   9.067  15.350  0.00  0.00    +0.000 A 
ATOM     25  S   UNL     1      52.789   8.615  16.909  0.00  0.00    +0.000 S 
ATOM     26  C   UNL     1      51.480   7.545  17.097  0.00  0.00    +0.000 A 
ATOM     27  N   UNL     1      51.277   6.890  18.271  0.00  0.00    +0.000 NA
ATOM     28  C   UNL     1      50.209   6.163  18.291  0.00  0.00    +0.000 A 
ATOM     29  N   UNL     1      49.349   6.006  17.234  0.00  0.00    +0.000 N 
ATOM     30  C   UNL     1      49.583   6.548  15.986  0.00  0.00    +0.000 A 
ATOM     31  O   UNL     1      48.920   6.203  15.015  0.00  0.00    +0.000 OA
ATOM     32  C   UNL     1      50.709   7.466  15.951  0.00  0.00    +0.000 A 
ATOM     33  H   UNL     1      48.564   5.374  17.298  0.00  0.00    +0.000 HD
ENDBRANCH  21  23
ENDBRANCH  18  19
ENDBRANCH   4  18
TORSDOF 7
ENDMDL
MODEL 7
REMARK VINA RESULT:    -6.301      3.386      7.714
REMARK INTER + INTRA:         -10.322
REMARK INTER:                  -8.564
REMARK INTRA:                  -1.758
REMARK UNBOUND:                -1.442
REMARK  Name = 
REMARK  9 active torsions:
REMARK  status: ('A' for Active; 'I' for Inactive)
REMARK    1  A    between atoms: C_1  and  C_2
REMARK    2  A    between atoms: C_2  and  N_3
REMARK    3  A    between atoms: C_2  and  C_11
REMARK    4  A    between atoms: N_3  and  C_4
REMARK    5  A    between atoms: C_4  and  C_5
REMARK    6  A    between atoms: C_14  and  C_15
REMARK    7  A    between atoms: C_15  and  N_16
REMARK    8  A    between atoms: N_16  and  C_17
REMARK    9  A    between atoms: C_18  and  C_20
REMARK                            x       y       z     vdW  Elec       q    Type
REMARK                         _______ _______ _______ _____ _____    ______ ____
ROOT
ATOM      1  C   UNL     1      49.962   7.823  17.106  0.00  0.00    +0.000 A 
ATOM      2  C   UNL     1      49.031   8.865  16.954  0.00  0.00    +0.000 A 
ATOM      3  C   UNL     1      48.669   9.325  15.689  0.00  0.00    +0.000 A 
ATOM      4  C   UNL     1      49.171   8.711  14.536  0.00  0.00    +0.000 A 
ATOM      5  C   UNL     1      50.090   7.664  14.681  0.00  0.00    +0.000 A 
ATOM      6  C   UNL     1      50.496   7.238  15.951  0.00  0.00    +0.000 A 
ENDROOT
BRANCH   1   8
ATOM      7  C   UNL     1      49.417   7.859  19.589  0.00  0.00    +0.000 C 
ATOM      8  C   UNL     1      50.430   7.452  18.509  0.00  0.00    +0.000 C 
BRANCH   8   9
ATOM      9  N   UNL     1      50.719   6.009  18.635  0.00  0.00    +0.000 NA
ATOM     10  H   UNL     1      51.262   5.857  19.482  0.00  0.00    +0.000 HD
BRANCH   9  11
ATOM     11  C   UNL     1      49.494   5.208  18.718  0.00  0.00    +0.000 C 
BRANCH  11  12
ATOM     12  C   UNL     1      49.522   4.000  17.819  0.00  0.00    +0.000 A 
ATOM     13  C   UNL     1      50.662   3.193  17.754  0.00  0.00    +0.000 A 
ATOM     14  C   UNL     1      50.627   2.049  16.972  0.00  0.00    +0.000 A 
ATOM     15  N   UNL     1      49.551   1.665  16.254  0.00  0.00    +0.000 NA
ATOM     16  C   UNL     1      48.467   2.461  16.323  0.00  0.00    +0.000 A 
ATOM     17  C   UNL     1      48.399   3.623  17.080  0.00  0.00    +0.000 A 
ENDBRANCH  11  12
ENDBRANCH   9  11
ENDBRANCH   8   9
ENDBRANCH   1   8
BRANCH   4  18
ATOM     18  C   UNL     1      48.704   9.170  13.176  0.00  0.00    +0.000 C 
BRANCH  18  19
ATOM     19  N   UNL     1      47.842   8.207  12.497  0.00  0.00    +0.000 N 
ATOM     20  C   UNL     1      48.491   7.316  11.548  0.00  0.00    +0.000 C 
ATOM     21  C   UNL     1      46.494   8.154  12.882  0.00  0.00    +0.000 C 
ATOM     22  O   UNL     1      46.028   8.950  13.695  0.00  0.00    +0.000 OA
BRANCH  21  23
ATOM     23  C   UNL     1      45.636   7.080  12.360  0.00  0.00    +0.000 A 
ATOM     24  C   UNL     1      44.689   7.253  11.362  0.00  0.00    +0.000 A 
ATOM     25  S   UNL     1      43.903   5.809  10.906  0.00  0.00    +0.000 S 
ATOM     26  C   UNL     1      44.899   4.883  11.929  0.00  0.00    +0.000 A 
ATOM     27  N   UNL     1      44.813   3.527  11.946  0.00  0.00    +0.000 NA
ATOM     28  C   UNL     1      45.673   2.953  12.721  0.00  0.00    +0.000 A 
ATOM     29  N   UNL     1      46.585   3.615  13.503  0.00  0.00    +0.000 N 
ATOM     30  C   UNL     1      46.623   4.990  13.614  0.00  0.00    +0.000 A 
ATOM     31  O   UNL     1      47.292   5.533  14.486  0.00  0.00    +0.000 OA
ATOM     32  C   UNL     1      45.753   5.676  12.675  0.00  0.00    +0.000 A 
ATOM     33  H   UNL     1      47.189   3.106  14.131  0.00  0.00    +0.000 HD
ENDBRANCH  21  23
ENDBRANCH  18  19
ENDBRANCH   4  18
TORSDOF 7
ENDMDL
MODEL 8
REMARK VINA RESULT:    -6.153      3.661      5.134
REMARK INTER + INTRA:         -10.114
REMARK INTER:                  -8.983
REMARK INTRA:                  -1.131
REMARK UNBOUND:                -1.442
REMARK  Name = 
REMARK  9 active torsions:
REMARK  status: ('A' for Active; 'I' for Inactive)
REMARK    1  A    between atoms: C_1  and  C_2
REMARK    2  A    between atoms: C_2  and  N_3
REMARK    3  A    between atoms: C_2  and  C_11
REMARK    4  A    between atoms: N_3  and  C_4
REMARK    5  A    between atoms: C_4  and  C_5
REMARK    6  A    between atoms: C_14  and  C_15
REMARK    7  A    between atoms: C_15  and  N_16
REMARK    8  A    between atoms: N_16  and  C_17
REMARK    9  A    between atoms: C_18  and  C_20
REMARK                            x       y       z     vdW  Elec       q    Type
REMARK                         _______ _______ _______ _____ _____    ______ ____
ROOT
ATOM      1  C   UNL     1      47.765   7.826  13.919  0.00  0.00    +0.000 A 
ATOM      2  C   UNL     1      48.111   6.546  14.385  0.00  0.00    +0.000 A 
ATOM      3  C   UNL     1      48.738   6.376  15.619  0.00  0.00    +0.000 A 
ATOM      4  C   UNL     1      48.974   7.472  16.455  0.00  0.00    +0.000 A 
ATOM      5  C   UNL     1      48.620   8.749  16.002  0.00  0.00    +0.000 A 
ATOM      6  C   UNL     1      48.040   8.927  14.741  0.00  0.00    +0.000 A 
ENDROOT
BRANCH   1   8
ATOM      7  C   UNL     1      48.251   7.620  11.432  0.00  0.00    +0.000 C 
ATOM      8  C   UNL     1      47.211   7.971  12.507  0.00  0.00    +0.000 C 
BRANCH   8   9
ATOM      9  N   UNL     1      46.002   7.149  12.297  0.00  0.00    +0.000 NA
ATOM     10  H   UNL     1      45.221   7.764  12.077  0.00  0.00    +0.000 HD
BRANCH   9  11
ATOM     11  C   UNL     1      46.169   6.198  11.193  0.00  0.00    +0.000 C 
BRANCH  11  12
ATOM     12  C   UNL     1      45.204   5.043  11.263  0.00  0.00    +0.000 A 
ATOM     13  C   UNL     1      44.493   4.787  12.440  0.00  0.00    +0.000 A 
ATOM     14  C   UNL     1      43.560   3.761  12.446  0.00  0.00    +0.000 A 
ATOM     15  N   UNL     1      43.299   2.979  11.378  0.00  0.00    +0.000 NA
ATOM     16  C   UNL     1      44.002   3.236  10.259  0.00  0.00    +0.000 A 
ATOM     17  C   UNL     1      44.952   4.243  10.148  0.00  0.00    +0.000 A 
ENDBRANCH  11  12
ENDBRANCH   9  11
ENDBRANCH   8   9
ENDBRANCH   1   8
BRANCH   4  18
ATOM     18  C   UNL     1      49.580   7.258  17.822  0.00  0.00    +0.000 C 
BRANCH  18  19
ATOM     19  N   UNL     1      50.719   6.345  17.819  0.00  0.00    +0.000 N 
ATOM     20  C   UNL     1      51.887   6.770  17.062  0.00  0.00    +0.000 C 
ATOM     21  C   UNL     1      50.635   5.194  18.617  0.00  0.00    +0.000 C 
ATOM     22  O   UNL     1      49.605   4.911  19.226  0.00  0.00    +0.000 OA
BRANCH  21  23
ATOM     23  C   UNL     1      51.823   4.345  18.789  0.00  0.00    +0.000 A 
ATOM     24  C   UNL     1      52.877   4.641  19.641  0.00  0.00    +0.000 A 
ATOM     25  S   UNL     1      54.077   3.429  19.691  0.00  0.00    +0.000 S 
ATOM     26  C   UNL     1      53.162   2.409  18.682  0.00  0.00    +0.000 A 
ATOM     27  N   UNL     1      53.583   1.147  18.400  0.00  0.00    +0.000 NA
ATOM     28  C   UNL     1      52.758   0.466  17.676  0.00  0.00    +0.000 A 
ATOM     29  N   UNL     1      51.569   0.943  17.183  0.00  0.00    +0.000 N 
ATOM     30  C   UNL     1      51.164   2.254  17.337  0.00  0.00    +0.000 A 
ATOM     31  O   UNL     1      50.218   2.699  16.697  0.00  0.00    +0.000 OA
ATOM     32  C   UNL     1      52.003   3.022  18.240  0.00  0.00    +0.000 A 
ATOM     33  H   UNL     1      50.999   0.376  16.574  0.00  0.00    +0.000 HD
ENDBRANCH  21  23
ENDBRANCH  18  19
ENDBRANCH   4  18
TORSDOF 7
ENDMDL
MODEL 9
REMARK VINA RESULT:    -6.102      4.725      8.339
REMARK INTER + INTRA:         -10.041
REMARK INTER:                  -8.759
REMARK INTRA:                  -1.282
REMARK UNBOUND:                -1.442
REMARK  Name = 
REMARK  9 active torsions:
REMARK  status: ('A' for Active; 'I' for Inactive)
REMARK    1  A    between atoms: C_1  and  C_2
REMARK    2  A    between atoms: C_2  and  N_3
REMARK    3  A    between atoms: C_2  and  C_11
REMARK    4  A    between atoms: N_3  and  C_4
REMARK    5  A    between atoms: C_4  and  C_5
REMARK    6  A    between atoms: C_14  and  C_15
REMARK    7  A    between atoms: C_15  and  N_16
REMARK    8  A    between atoms: N_16  and  C_17
REMARK    9  A    between atoms: C_18  and  C_20
REMARK                            x       y       z     vdW  Elec       q    Type
REMARK                         _______ _______ _______ _____ _____    ______ ____
ROOT
ATOM      1  C   UNL     1      51.345   8.929  12.288  0.00  0.00    +0.000 A 
ATOM      2  C   UNL     1      50.731   9.216  13.520  0.00  0.00    +0.000 A 
ATOM      3  C   UNL     1      49.358   9.053  13.693  0.00  0.00    +0.000 A 
ATOM      4  C   UNL     1      48.566   8.531  12.665  0.00  0.00    +0.000 A 
ATOM      5  C   UNL     1      49.173   8.231  11.439  0.00  0.00    +0.000 A 
ATOM      6  C   UNL     1      50.543   8.445  11.246  0.00  0.00    +0.000 A 
ENDROOT
BRANCH   1   8
ATOM      7  C   UNL     1      53.737   8.218  12.771  0.00  0.00    +0.000 C 
ATOM      8  C   UNL     1      52.822   9.257  12.106  0.00  0.00    +0.000 C 
BRANCH   8   9
ATOM      9  N   UNL     1      53.192   9.386  10.682  0.00  0.00    +0.000 NA
ATOM     10  H   UNL     1      53.628  10.295  10.538  0.00  0.00    +0.000 HD
BRANCH   9  11
ATOM     11  C   UNL     1      54.136   8.346  10.262  0.00  0.00    +0.000 C 
BRANCH  11  12
ATOM     12  C   UNL     1      53.623   7.519   9.112  0.00  0.00    +0.000 A 
ATOM     13  C   UNL     1      53.009   8.135   8.016  0.00  0.00    +0.000 A 
ATOM     14  C   UNL     1      52.616   7.351   6.944  0.00  0.00    +0.000 A 
ATOM     15  N   UNL     1      52.782   6.013   6.892  0.00  0.00    +0.000 NA
ATOM     16  C   UNL     1      53.366   5.438   7.961  0.00  0.00    +0.000 A 
ATOM     17  C   UNL     1      53.801   6.135   9.081  0.00  0.00    +0.000 A 
ENDBRANCH  11  12
ENDBRANCH   9  11
ENDBRANCH   8   9
ENDBRANCH   1   8
BRANCH   4  18
ATOM     18  C   UNL     1      47.095   8.285  12.900  0.00  0.00    +0.000 C 
BRANCH  18  19
ATOM     19  N   UNL     1      46.685   6.907  12.649  0.00  0.00    +0.000 N 
ATOM     20  C   UNL     1      47.456   5.871  13.319  0.00  0.00    +0.000 C 
ATOM     21  C   UNL     1      45.536   6.700  11.872  0.00  0.00    +0.000 C 
ATOM     22  O   UNL     1      44.943   7.637  11.342  0.00  0.00    +0.000 OA
BRANCH  21  23
ATOM     23  C   UNL     1      44.983   5.342  11.748  0.00  0.00    +0.000 A 
ATOM     24  C   UNL     1      44.256   4.702  12.740  0.00  0.00    +0.000 A 
ATOM     25  S   UNL     1      43.674   3.166  12.279  0.00  0.00    +0.000 S 
ATOM     26  C   UNL     1      44.255   3.365  10.692  0.00  0.00    +0.000 A 
ATOM     27  N   UNL     1      44.002   2.434   9.734  0.00  0.00    +0.000 NA
ATOM     28  C   UNL     1      44.448   2.747   8.563  0.00  0.00    +0.000 A 
ATOM     29  N   UNL     1      45.152   3.889   8.273  0.00  0.00    +0.000 N 
ATOM     30  C   UNL     1      45.541   4.797   9.237  0.00  0.00    +0.000 A 
ATOM     31  O   UNL     1      46.354   5.678   8.979  0.00  0.00    +0.000 OA
ATOM     32  C   UNL     1      44.964   4.544  10.545  0.00  0.00    +0.000 A 
ATOM     33  H   UNL     1      45.522   4.044   7.348  0.00  0.00    +0.000 HD
ENDBRANCH  21  23
ENDBRANCH  18  19
ENDBRANCH   4  18
TORSDOF 7
ENDMDL
