MODEL 1
REMARK VINA RESULT:    -7.552      0.000      0.000
REMARK INTER + INTRA:         -10.778
REMARK INTER:                  -9.759
REMARK INTRA:                  -1.019
REMARK UNBOUND:                -1.019
REMARK  Name = 
REMARK  5 active torsions:
REMARK  status: ('A' for Active; 'I' for Inactive)
REMARK    1  A    between atoms: C_2  and  C_3
REMARK    2  A    between atoms: C_7  and  C_8
REMARK    3  A    between atoms: C_8  and  C_9
REMARK    4  A    between atoms: C_9  and  C_10
REMARK    5  A    between atoms: C_14  and  C_15
REMARK                            x       y       z     vdW  Elec       q    Type
REMARK                         _______ _______ _______ _____ _____    ______ ____
ROOT
ATOM      1  C   UNL     1      45.180   6.410  11.557  0.00  0.00    +0.000 A 
ATOM      2  C   UNL     1      43.793   6.401  11.736  0.00  0.00    +0.000 A 
ATOM      3  C   UNL     1      43.001   5.463  11.079  0.00  0.00    +0.000 A 
ATOM      4  C   UNL     1      43.578   4.546  10.203  0.00  0.00    +0.000 A 
ATOM      5  C   UNL     1      44.959   4.557   9.939  0.00  0.00    +0.000 A 
ATOM      6  C   UNL     1      45.742   5.487  10.654  0.00  0.00    +0.000 A 
ENDROOT
BRANCH   5   7
ATOM      7  C   UNL     1      45.546   3.697   8.882  0.00  0.00    +0.000 A 
ATOM      8  C   UNL     1      46.277   4.278   7.821  0.00  0.00    +0.000 A 
ATOM      9  C   UNL     1      46.922   3.501   6.852  0.00  0.00    +0.000 A 
ATOM     10  C   UNL     1      46.861   2.115   6.924  0.00  0.00    +0.000 A 
ATOM     11  C   UNL     1      46.137   1.521   7.949  0.00  0.00    +0.000 A 
ATOM     12  F   UNL     1      46.088   0.182   8.020  0.00  0.00    +0.000 F 
ATOM     13  C   UNL     1      45.480   2.295   8.908  0.00  0.00    +0.000 A 
ATOM     14  F   UNL     1      44.788   1.660   9.868  0.00  0.00    +0.000 F 
ENDBRANCH   5   7
BRANCH   1  15
ATOM     15  C   UNL     1      46.089   7.432  12.215  0.00  0.00    +0.000 C 
BRANCH  15  16
ATOM     16  C   UNL     1      47.574   7.052  12.256  0.00  0.00    +0.000 C 
BRANCH  16  21
ATOM     17  C   UNL     1      47.879   5.240  15.592  0.00  0.00    +0.000 A 
ATOM     18  C   UNL     1      49.040   5.837  16.053  0.00  0.00    +0.000 A 
ATOM     19  N   UNL     1      49.705   6.808  15.382  0.00  0.00    +0.000 NA
ATOM     20  C   UNL     1      49.196   7.185  14.186  0.00  0.00    +0.000 A 
ATOM     21  C   UNL     1      48.049   6.634  13.622  0.00  0.00    +0.000 A 
ATOM     22  C   UNL     1      47.373   5.653  14.357  0.00  0.00    +0.000 A 
BRANCH  17  24
ATOM     23  N   UNL     1      46.713   3.388  16.975  0.00  0.00    +0.000 NA
ATOM     24  C   UNL     1      47.237   4.218  16.353  0.00  0.00    +0.000 C 
ENDBRANCH  17  24
ENDBRANCH  16  21
ENDBRANCH  15  16
ENDBRANCH   1  15
TORSDOF 5
ENDMDL
MODEL 2
REMARK VINA RESULT:    -7.376      4.241      7.296
REMARK INTER + INTRA:         -10.550
REMARK INTER:                  -9.526
REMARK INTRA:                  -1.024
REMARK UNBOUND:                -1.019
REMARK  Name = 
REMARK  5 active torsions:
REMARK  status: ('A' for Active; 'I' for Inactive)
REMARK    1  A    between atoms: C_2  and  C_3
REMARK    2  A    between atoms: C_7  and  C_8
REMARK    3  A    between atoms: C_8  and  C_9
REMARK    4  A    between atoms: C_9  and  C_10
REMARK    5  A    between atoms: C_14  and  C_15
REMARK                            x       y       z     vdW  Elec       q    Type
REMARK                         _______ _______ _______ _____ _____    ______ ____
ROOT
ATOM      1  C   UNL     1      45.182   5.459  11.910  0.00  0.00    +0.000 A 
ATOM      2  C   UNL     1      45.435   4.590  12.976  0.00  0.00    +0.000 A 
ATOM      3  C   UNL     1      46.511   4.815  13.832  0.00  0.00    +0.000 A 
ATOM      4  C   UNL     1      47.371   5.889  13.612  0.00  0.00    +0.000 A 
ATOM      5  C   UNL     1      47.198   6.752  12.515  0.00  0.00    +0.000 A 
ATOM      6  C   UNL     1      46.074   6.527  11.693  0.00  0.00    +0.000 A 
ENDROOT
BRANCH   5   7
ATOM      7  C   UNL     1      48.209   7.786  12.184  0.00  0.00    +0.000 A 
ATOM      8  C   UNL     1      49.523   7.405  11.834  0.00  0.00    +0.000 A 
ATOM      9  C   UNL     1      50.484   8.339  11.428  0.00  0.00    +0.000 A 
ATOM     10  C   UNL     1      50.149   9.686  11.353  0.00  0.00    +0.000 A 
ATOM     11  C   UNL     1      48.867  10.086  11.706  0.00  0.00    +0.000 A 
ATOM     12  F   UNL     1      48.546  11.386  11.622  0.00  0.00    +0.000 F 
ATOM     13  C   UNL     1      47.913   9.158  12.125  0.00  0.00    +0.000 A 
ATOM     14  F   UNL     1      46.694   9.610  12.462  0.00  0.00    +0.000 F 
ENDBRANCH   5   7
BRANCH   1  15
ATOM     15  C   UNL     1      44.050   5.242  10.922  0.00  0.00    +0.000 C 
BRANCH  15  16
ATOM     16  C   UNL     1      43.908   3.809  10.397  0.00  0.00    +0.000 C 
BRANCH  16  21
ATOM     17  C   UNL     1      46.185   1.836   8.067  0.00  0.00    +0.000 A 
ATOM     18  C   UNL     1      46.647   2.883   7.286  0.00  0.00    +0.000 A 
ATOM     19  N   UNL     1      46.306   4.178   7.485  0.00  0.00    +0.000 NA
ATOM     20  C   UNL     1      45.449   4.438   8.499  0.00  0.00    +0.000 A 
ATOM     21  C   UNL     1      44.909   3.459   9.329  0.00  0.00    +0.000 A 
ATOM     22  C   UNL     1      45.306   2.135   9.111  0.00  0.00    +0.000 A 
BRANCH  17  24
ATOM     23  N   UNL     1      46.908  -0.600   7.572  0.00  0.00    +0.000 NA
ATOM     24  C   UNL     1      46.583   0.495   7.792  0.00  0.00    +0.000 C 
ENDBRANCH  17  24
ENDBRANCH  16  21
ENDBRANCH  15  16
ENDBRANCH   1  15
TORSDOF 5
ENDMDL
MODEL 3
REMARK VINA RESULT:    -7.049      1.847      2.963
REMARK INTER + INTRA:         -10.128
REMARK INTER:                  -9.003
REMARK INTRA:                  -1.125
REMARK UNBOUND:                -1.019
REMARK  Name = 
REMARK  5 active torsions:
REMARK  status: ('A' for Active; 'I' for Inactive)
REMARK    1  A    between atoms: C_2  and  C_3
REMARK    2  A    between atoms: C_7  and  C_8
REMARK    3  A    between atoms: C_8  and  C_9
REMARK    4  A    between atoms: C_9  and  C_10
REMARK    5  A    between atoms: C_14  and  C_15
REMARK                            x       y       z     vdW  Elec       q    Type
REMARK                         _______ _______ _______ _____ _____    ______ ____
ROOT
ATOM      1  C   UNL     1      47.567   7.543  12.781  0.00  0.00    +0.000 A 
ATOM      2  C   UNL     1      46.815   8.722  12.802  0.00  0.00    +0.000 A 
ATOM      3  C   UNL     1      45.518   8.743  12.295  0.00  0.00    +0.000 A 
ATOM      4  C   UNL     1      44.968   7.597  11.724  0.00  0.00    +0.000 A 
ATOM      5  C   UNL     1      45.707   6.405  11.619  0.00  0.00    +0.000 A 
ATOM      6  C   UNL     1      47.000   6.400  12.182  0.00  0.00    +0.000 A 
ENDROOT
BRANCH   5   7
ATOM      7  C   UNL     1      45.185   5.242  10.860  0.00  0.00    +0.000 A 
ATOM      8  C   UNL     1      45.530   5.072   9.500  0.00  0.00    +0.000 A 
ATOM      9  C   UNL     1      45.135   3.944   8.770  0.00  0.00    +0.000 A 
ATOM     10  C   UNL     1      44.388   2.949   9.387  0.00  0.00    +0.000 A 
ATOM     11  C   UNL     1      44.025   3.101  10.719  0.00  0.00    +0.000 A 
ATOM     12  F   UNL     1      43.312   2.132  11.313  0.00  0.00    +0.000 F 
ATOM     13  C   UNL     1      44.406   4.231  11.444  0.00  0.00    +0.000 A 
ATOM     14  F   UNL     1      44.014   4.323  12.726  0.00  0.00    +0.000 F 
ENDBRANCH   5   7
BRANCH   1  15
ATOM     15  C   UNL     1      48.997   7.469  13.282  0.00  0.00    +0.000 C 
BRANCH  15  16
ATOM     16  C   UNL     1      49.199   7.893  14.742  0.00  0.00    +0.000 C 
BRANCH  16  21
ATOM     17  C   UNL     1      48.490   4.772  16.805  0.00  0.00    +0.000 A 
ATOM     18  C   UNL     1      49.758   4.569  17.325  0.00  0.00    +0.000 A 
ATOM     19  N   UNL     1      50.809   5.389  17.087  0.00  0.00    +0.000 NA
ATOM     20  C   UNL     1      50.588   6.450  16.277  0.00  0.00    +0.000 A 
ATOM     21  C   UNL     1      49.360   6.733  15.687  0.00  0.00    +0.000 A 
ATOM     22  C   UNL     1      48.289   5.879  15.978  0.00  0.00    +0.000 A 
BRANCH  17  24
ATOM     23  N   UNL     1      46.572   3.115  17.334  0.00  0.00    +0.000 NA
ATOM     24  C   UNL     1      47.432   3.860  17.095  0.00  0.00    +0.000 C 
ENDBRANCH  17  24
ENDBRANCH  16  21
ENDBRANCH  15  16
ENDBRANCH   1  15
TORSDOF 5
ENDMDL
MODEL 4
REMARK VINA RESULT:    -6.877      1.702      3.173
REMARK INTER + INTRA:          -9.906
REMARK INTER:                  -9.256
REMARK INTRA:                  -0.650
REMARK UNBOUND:                -1.019
REMARK  Name = 
REMARK  5 active torsions:
REMARK  status: ('A' for Active; 'I' for Inactive)
REMARK    1  A    between atoms: C_2  and  C_3
REMARK    2  A    between atoms: C_7  and  C_8
REMARK    3  A    between atoms: C_8  and  C_9
REMARK    4  A    between atoms: C_9  and  C_10
REMARK    5  A    between atoms: C_14  and  C_15
REMARK                            x       y       z     vdW  Elec       q    Type
REMARK                         _______ _______ _______ _____ _____    ______ ____
ROOT
ATOM      1  C   UNL     1      44.688   5.249  10.889  0.00  0.00    +0.000 A 
ATOM      2  C   UNL     1      43.724   4.426  11.480  0.00  0.00    +0.000 A 
ATOM      3  C   UNL     1      43.537   3.121  11.033  0.00  0.00    +0.000 A 
ATOM      4  C   UNL     1      44.283   2.632   9.961  0.00  0.00    +0.000 A 
ATOM      5  C   UNL     1      45.218   3.441   9.291  0.00  0.00    +0.000 A 
ATOM      6  C   UNL     1      45.419   4.742   9.796  0.00  0.00    +0.000 A 
ENDROOT
BRANCH   5   7
ATOM      7  C   UNL     1      45.884   2.978   8.049  0.00  0.00    +0.000 A 
ATOM      8  C   UNL     1      46.332   3.918   7.094  0.00  0.00    +0.000 A 
ATOM      9  C   UNL     1      47.044   3.532   5.951  0.00  0.00    +0.000 A 
ATOM     10  C   UNL     1      47.334   2.190   5.738  0.00  0.00    +0.000 A 
ATOM     11  C   UNL     1      46.892   1.247   6.656  0.00  0.00    +0.000 A 
ATOM     12  F   UNL     1      47.183  -0.046   6.451  0.00  0.00    +0.000 F 
ATOM     13  C   UNL     1      46.169   1.629   7.788  0.00  0.00    +0.000 A 
ATOM     14  F   UNL     1      45.760   0.667   8.632  0.00  0.00    +0.000 F 
ENDBRANCH   5   7
BRANCH   1  15
ATOM     15  C   UNL     1      44.910   6.690  11.309  0.00  0.00    +0.000 C 
BRANCH  15  16
ATOM     16  C   UNL     1      45.386   6.883  12.754  0.00  0.00    +0.000 C 
BRANCH  16  21
ATOM     17  C   UNL     1      48.887   8.320  12.330  0.00  0.00    +0.000 A 
ATOM     18  C   UNL     1      49.560   7.508  13.229  0.00  0.00    +0.000 A 
ATOM     19  N   UNL     1      48.970   6.509  13.928  0.00  0.00    +0.000 NA
ATOM     20  C   UNL     1      47.644   6.325  13.734  0.00  0.00    +0.000 A 
ATOM     21  C   UNL     1      46.871   7.097  12.872  0.00  0.00    +0.000 A 
ATOM     22  C   UNL     1      47.520   8.103  12.146  0.00  0.00    +0.000 A 
BRANCH  17  24
ATOM     23  N   UNL     1      50.138  10.200  11.065  0.00  0.00    +0.000 NA
ATOM     24  C   UNL     1      49.575   9.357  11.634  0.00  0.00    +0.000 C 
ENDBRANCH  17  24
ENDBRANCH  16  21
ENDBRANCH  15  16
ENDBRANCH   1  15
TORSDOF 5
ENDMDL
MODEL 5
REMARK VINA RESULT:    -6.672      2.359      4.233
REMARK INTER + INTRA:          -9.641
REMARK INTER:                  -8.629
REMARK INTRA:                  -1.012
REMARK UNBOUND:                -1.019
REMARK  Name = 
REMARK  5 active torsions:
REMARK  status: ('A' for Active; 'I' for Inactive)
REMARK    1  A    between atoms: C_2  and  C_3
REMARK    2  A    between atoms: C_7  and  C_8
REMARK    3  A    between atoms: C_8  and  C_9
REMARK    4  A    between atoms: C_9  and  C_10
REMARK    5  A    between atoms: C_14  and  C_15
REMARK                            x       y       z     vdW  Elec       q    Type
REMARK                         _______ _______ _______ _____ _____    ______ ____
ROOT
ATOM      1  C   UNL     1      47.783   7.216  14.060  0.00  0.00    +0.000 A 
ATOM      2  C   UNL     1      47.412   8.521  13.722  0.00  0.00    +0.000 A 
ATOM      3  C   UNL     1      46.282   8.757  12.942  0.00  0.00    +0.000 A 
ATOM      4  C   UNL     1      45.530   7.689  12.456  0.00  0.00    +0.000 A 
ATOM      5  C   UNL     1      45.899   6.357  12.713  0.00  0.00    +0.000 A 
ATOM      6  C   UNL     1      47.020   6.151  13.543  0.00  0.00    +0.000 A 
ENDROOT
BRANCH   5   7
ATOM      7  C   UNL     1      45.201   5.225  12.055  0.00  0.00    +0.000 A 
ATOM      8  C   UNL     1      44.431   4.324  12.824  0.00  0.00    +0.000 A 
ATOM      9  C   UNL     1      43.684   3.296  12.236  0.00  0.00    +0.000 A 
ATOM     10  C   UNL     1      43.680   3.149  10.855  0.00  0.00    +0.000 A 
ATOM     11  C   UNL     1      44.440   4.014  10.078  0.00  0.00    +0.000 A 
ATOM     12  F   UNL     1      44.425   3.873   8.744  0.00  0.00    +0.000 F 
ATOM     13  C   UNL     1      45.197   5.030  10.665  0.00  0.00    +0.000 A 
ATOM     14  F   UNL     1      45.919   5.827   9.859  0.00  0.00    +0.000 F 
ENDBRANCH   5   7
BRANCH   1  15
ATOM     15  C   UNL     1      49.024   6.897  14.873  0.00  0.00    +0.000 C 
BRANCH  15  16
ATOM     16  C   UNL     1      48.778   6.648  16.366  0.00  0.00    +0.000 C 
BRANCH  16  21
ATOM     17  C   UNL     1      49.273   2.954  17.149  0.00  0.00    +0.000 A 
ATOM     18  C   UNL     1      47.957   2.617  17.423  0.00  0.00    +0.000 A 
ATOM     19  N   UNL     1      46.923   3.487  17.333  0.00  0.00    +0.000 NA
ATOM     20  C   UNL     1      47.220   4.757  16.972  0.00  0.00    +0.000 A 
ATOM     21  C   UNL     1      48.509   5.205  16.697  0.00  0.00    +0.000 A 
ATOM     22  C   UNL     1      49.549   4.271  16.773  0.00  0.00    +0.000 A 
BRANCH  17  24
ATOM     23  N   UNL     1      51.159   1.194  17.368  0.00  0.00    +0.000 NA
ATOM     24  C   UNL     1      50.311   1.984  17.272  0.00  0.00    +0.000 C 
ENDBRANCH  17  24
ENDBRANCH  16  21
ENDBRANCH  15  16
ENDBRANCH   1  15
TORSDOF 5
ENDMDL
MODEL 6
REMARK VINA RESULT:    -6.342      1.229      2.315
REMARK INTER + INTRA:          -9.214
REMARK INTER:                  -9.275
REMARK INTRA:                   0.060
REMARK UNBOUND:                -1.019
REMARK  Name = 
REMARK  5 active torsions:
REMARK  status: ('A' for Active; 'I' for Inactive)
REMARK    1  A    between atoms: C_2  and  C_3
REMARK    2  A    between atoms: C_7  and  C_8
REMARK    3  A    between atoms: C_8  and  C_9
REMARK    4  A    between atoms: C_9  and  C_10
REMARK    5  A    between atoms: C_14  and  C_15
REMARK                            x       y       z     vdW  Elec       q    Type
REMARK                         _______ _______ _______ _____ _____    ______ ____
ROOT
ATOM      1  C   UNL     1      44.540   4.972  10.930  0.00  0.00    +0.000 A 
ATOM      2  C   UNL     1      43.631   4.065  11.482  0.00  0.00    +0.000 A 
ATOM      3  C   UNL     1      43.531   2.769  10.981  0.00  0.00    +0.000 A 
ATOM      4  C   UNL     1      44.311   2.374   9.895  0.00  0.00    +0.000 A 
ATOM      5  C   UNL     1      45.192   3.269   9.263  0.00  0.00    +0.000 A 
ATOM      6  C   UNL     1      45.305   4.559   9.821  0.00  0.00    +0.000 A 
ENDROOT
BRANCH   5   7
ATOM      7  C   UNL     1      45.891   2.902   8.007  0.00  0.00    +0.000 A 
ATOM      8  C   UNL     1      46.331   3.910   7.121  0.00  0.00    +0.000 A 
ATOM      9  C   UNL     1      47.072   3.614   5.970  0.00  0.00    +0.000 A 
ATOM     10  C   UNL     1      47.400   2.296   5.679  0.00  0.00    +0.000 A 
ATOM     11  C   UNL     1      46.966   1.286   6.528  0.00  0.00    +0.000 A 
ATOM     12  F   UNL     1      47.293   0.016   6.248  0.00  0.00    +0.000 F 
ATOM     13  C   UNL     1      46.215   1.578   7.668  0.00  0.00    +0.000 A 
ATOM     14  F   UNL     1      45.816   0.556   8.443  0.00  0.00    +0.000 F 
ENDBRANCH   5   7
BRANCH   1  15
ATOM     15  C   UNL     1      44.665   6.407  11.408  0.00  0.00    +0.000 C 
BRANCH  15  16
ATOM     16  C   UNL     1      46.089   6.856  11.757  0.00  0.00    +0.000 C 
BRANCH  16  21
ATOM     17  C   UNL     1      48.187   6.130  14.851  0.00  0.00    +0.000 A 
ATOM     18  C   UNL     1      47.519   5.003  15.301  0.00  0.00    +0.000 A 
ATOM     19  N   UNL     1      46.468   4.443  14.655  0.00  0.00    +0.000 NA
ATOM     20  C   UNL     1      46.054   5.048  13.518  0.00  0.00    +0.000 A 
ATOM     21  C   UNL     1      46.641   6.195  12.991  0.00  0.00    +0.000 A 
ATOM     22  C   UNL     1      47.742   6.729  13.670  0.00  0.00    +0.000 A 
BRANCH  17  24
ATOM     23  N   UNL     1      50.179   7.104  16.187  0.00  0.00    +0.000 NA
ATOM     24  C   UNL     1      49.284   6.667  15.589  0.00  0.00    +0.000 C 
ENDBRANCH  17  24
ENDBRANCH  16  21
ENDBRANCH  15  16
ENDBRANCH   1  15
TORSDOF 5
ENDMDL
MODEL 7
REMARK VINA RESULT:    -6.219      3.369      4.684
REMARK INTER + INTRA:          -9.055
REMARK INTER:                  -7.896
REMARK INTRA:                  -1.159
REMARK UNBOUND:                -1.019
REMARK  Name = 
REMARK  5 active torsions:
REMARK  status: ('A' for Active; 'I' for Inactive)
REMARK    1  A    between atoms: C_2  and  C_3
REMARK    2  A    between atoms: C_7  and  C_8
REMARK    3  A    between atoms: C_8  and  C_9
REMARK    4  A    between atoms: C_9  and  C_10
REMARK    5  A    between atoms: C_14  and  C_15
REMARK                            x       y       z     vdW  Elec       q    Type
REMARK                         _______ _______ _______ _____ _____    ______ ____
ROOT
ATOM      1  C   UNL     1      48.464   7.741  13.999  0.00  0.00    +0.000 A 
ATOM      2  C   UNL     1      49.269   8.072  12.904  0.00  0.00    +0.000 A 
ATOM      3  C   UNL     1      48.869   7.751  11.609  0.00  0.00    +0.000 A 
ATOM      4  C   UNL     1      47.678   7.060  11.392  0.00  0.00    +0.000 A 
ATOM      5  C   UNL     1      46.867   6.647  12.464  0.00  0.00    +0.000 A 
ATOM      6  C   UNL     1      47.273   7.027  13.760  0.00  0.00    +0.000 A 
ENDROOT
BRANCH   5   7
ATOM      7  C   UNL     1      45.693   5.766  12.244  0.00  0.00    +0.000 A 
ATOM      8  C   UNL     1      45.792   4.380  12.497  0.00  0.00    +0.000 A 
ATOM      9  C   UNL     1      44.687   3.525  12.389  0.00  0.00    +0.000 A 
ATOM     10  C   UNL     1      43.447   4.041  12.032  0.00  0.00    +0.000 A 
ATOM     11  C   UNL     1      43.329   5.399  11.765  0.00  0.00    +0.000 A 
ATOM     12  F   UNL     1      42.128   5.893  11.431  0.00  0.00    +0.000 F 
ATOM     13  C   UNL     1      44.433   6.249  11.858  0.00  0.00    +0.000 A 
ATOM     14  F   UNL     1      44.255   7.551  11.577  0.00  0.00    +0.000 F 
ENDBRANCH   5   7
BRANCH   1  15
ATOM     15  C   UNL     1      48.865   8.030  15.433  0.00  0.00    +0.000 C 
BRANCH  15  16
ATOM     16  C   UNL     1      50.222   7.456  15.859  0.00  0.00    +0.000 C 
BRANCH  16  21
ATOM     17  C   UNL     1      48.841   4.213  17.302  0.00  0.00    +0.000 A 
ATOM     18  C   UNL     1      50.023   3.678  17.787  0.00  0.00    +0.000 A 
ATOM     19  N   UNL     1      51.220   4.306  17.716  0.00  0.00    +0.000 NA
ATOM     20  C   UNL     1      51.241   5.518  17.114  0.00  0.00    +0.000 A 
ATOM     21  C   UNL     1      50.117   6.136  16.574  0.00  0.00    +0.000 A 
ATOM     22  C   UNL     1      48.892   5.469  16.691  0.00  0.00    +0.000 A 
BRANCH  17  24
ATOM     23  N   UNL     1      46.619   2.900  17.497  0.00  0.00    +0.000 NA
ATOM     24  C   UNL     1      47.618   3.488  17.408  0.00  0.00    +0.000 C 
ENDBRANCH  17  24
ENDBRANCH  16  21
ENDBRANCH  15  16
ENDBRANCH   1  15
TORSDOF 5
ENDMDL
MODEL 8
REMARK VINA RESULT:    -6.136      1.961      3.533
REMARK INTER + INTRA:          -8.949
REMARK INTER:                  -8.048
REMARK INTRA:                  -0.901
REMARK UNBOUND:                -1.019
REMARK  Name = 
REMARK  5 active torsions:
REMARK  status: ('A' for Active; 'I' for Inactive)
REMARK    1  A    between atoms: C_2  and  C_3
REMARK    2  A    between atoms: C_7  and  C_8
REMARK    3  A    between atoms: C_8  and  C_9
REMARK    4  A    between atoms: C_9  and  C_10
REMARK    5  A    between atoms: C_14  and  C_15
REMARK                            x       y       z     vdW  Elec       q    Type
REMARK                         _______ _______ _______ _____ _____    ______ ____
ROOT
ATOM      1  C   UNL     1      47.513   7.643  12.689  0.00  0.00    +0.000 A 
ATOM      2  C   UNL     1      46.721   8.795  12.729  0.00  0.00    +0.000 A 
ATOM      3  C   UNL     1      45.412   8.770  12.256  0.00  0.00    +0.000 A 
ATOM      4  C   UNL     1      44.888   7.604  11.699  0.00  0.00    +0.000 A 
ATOM      5  C   UNL     1      45.665   6.439  11.577  0.00  0.00    +0.000 A 
ATOM      6  C   UNL     1      46.972   6.481  12.107  0.00  0.00    +0.000 A 
ENDROOT
BRANCH   5   7
ATOM      7  C   UNL     1      45.166   5.257  10.832  0.00  0.00    +0.000 A 
ATOM      8  C   UNL     1      45.545   5.057   9.486  0.00  0.00    +0.000 A 
ATOM      9  C   UNL     1      45.171   3.911   8.772  0.00  0.00    +0.000 A 
ATOM     10  C   UNL     1      44.411   2.928   9.393  0.00  0.00    +0.000 A 
ATOM     11  C   UNL     1      44.015   3.109  10.712  0.00  0.00    +0.000 A 
ATOM     12  F   UNL     1      43.290   2.152  11.311  0.00  0.00    +0.000 F 
ATOM     13  C   UNL     1      44.375   4.257  11.420  0.00  0.00    +0.000 A 
ATOM     14  F   UNL     1      43.951   4.378  12.689  0.00  0.00    +0.000 F 
ENDBRANCH   5   7
BRANCH   1  15
ATOM     15  C   UNL     1      48.958   7.621  13.154  0.00  0.00    +0.000 C 
BRANCH  15  16
ATOM     16  C   UNL     1      49.178   8.028  14.616  0.00  0.00    +0.000 C 
BRANCH  16  21
ATOM     17  C   UNL     1      50.865   5.657  17.073  0.00  0.00    +0.000 A 
ATOM     18  C   UNL     1      49.812   4.779  17.276  0.00  0.00    +0.000 A 
ATOM     19  N   UNL     1      48.617   4.878  16.648  0.00  0.00    +0.000 NA
ATOM     20  C   UNL     1      48.459   5.913  15.791  0.00  0.00    +0.000 A 
ATOM     21  C   UNL     1      49.443   6.863  15.530  0.00  0.00    +0.000 A 
ATOM     22  C   UNL     1      50.675   6.712  16.177  0.00  0.00    +0.000 A 
BRANCH  17  24
ATOM     23  N   UNL     1      53.094   5.356  18.354  0.00  0.00    +0.000 NA
ATOM     24  C   UNL     1      52.094   5.492  17.777  0.00  0.00    +0.000 C 
ENDBRANCH  17  24
ENDBRANCH  16  21
ENDBRANCH  15  16
ENDBRANCH   1  15
TORSDOF 5
ENDMDL
MODEL 9
REMARK VINA RESULT:    -6.020      2.316      3.663
REMARK INTER + INTRA:          -8.799
REMARK INTER:                  -7.629
REMARK INTRA:                  -1.170
REMARK UNBOUND:                -1.019
REMARK  Name = 
REMARK  5 active torsions:
REMARK  status: ('A' for Active; 'I' for Inactive)
REMARK    1  A    between atoms: C_2  and  C_3
REMARK    2  A    between atoms: C_7  and  C_8
REMARK    3  A    between atoms: C_8  and  C_9
REMARK    4  A    between atoms: C_9  and  C_10
REMARK    5  A    between atoms: C_14  and  C_15
REMARK                            x       y       z     vdW  Elec       q    Type
REMARK                         _______ _______ _______ _____ _____    ______ ____
ROOT
ATOM      1  C   UNL     1      47.472   8.029  12.955  0.00  0.00    +0.000 A 
ATOM      2  C   UNL     1      46.841   9.191  12.501  0.00  0.00    +0.000 A 
ATOM      3  C   UNL     1      45.567   9.132  11.940  0.00  0.00    +0.000 A 
ATOM      4  C   UNL     1      44.922   7.905  11.790  0.00  0.00    +0.000 A 
ATOM      5  C   UNL     1      45.542   6.701  12.171  0.00  0.00    +0.000 A 
ATOM      6  C   UNL     1      46.812   6.797  12.778  0.00  0.00    +0.000 A 
ENDROOT
BRANCH   5   7
ATOM      7  C   UNL     1      44.929   5.388  11.854  0.00  0.00    +0.000 A 
ATOM      8  C   UNL     1      44.215   4.681  12.848  0.00  0.00    +0.000 A 
ATOM      9  C   UNL     1      43.546   3.483  12.570  0.00  0.00    +0.000 A 
ATOM     10  C   UNL     1      43.567   2.963  11.282  0.00  0.00    +0.000 A 
ATOM     11  C   UNL     1      44.274   3.633  10.292  0.00  0.00    +0.000 A 
ATOM     12  F   UNL     1      44.282   3.132   9.047  0.00  0.00    +0.000 F 
ATOM     13  C   UNL     1      44.954   4.820  10.571  0.00  0.00    +0.000 A 
ATOM     14  F   UNL     1      45.628   5.413   9.572  0.00  0.00    +0.000 F 
ENDBRANCH   5   7
BRANCH   1  15
ATOM     15  C   UNL     1      48.874   8.027  13.538  0.00  0.00    +0.000 C 
BRANCH  15  16
ATOM     16  C   UNL     1      49.010   8.701  14.909  0.00  0.00    +0.000 C 
BRANCH  16  21
ATOM     17  C   UNL     1      48.660   5.551  17.021  0.00  0.00    +0.000 A 
ATOM     18  C   UNL     1      48.373   6.144  18.240  0.00  0.00    +0.000 A 
ATOM     19  N   UNL     1      48.246   7.481  18.415  0.00  0.00    +0.000 NA
ATOM     20  C   UNL     1      48.434   8.263  17.327  0.00  0.00    +0.000 A 
ATOM     21  C   UNL     1      48.747   7.772  16.063  0.00  0.00    +0.000 A 
ATOM     22  C   UNL     1      48.843   6.383  15.913  0.00  0.00    +0.000 A 
BRANCH  17  24
ATOM     23  N   UNL     1      48.889   2.980  16.824  0.00  0.00    +0.000 NA
ATOM     24  C   UNL     1      48.785   4.135  16.914  0.00  0.00    +0.000 C 
ENDBRANCH  17  24
ENDBRANCH  16  21
ENDBRANCH  15  16
ENDBRANCH   1  15
TORSDOF 5
ENDMDL
