MODEL 1
REMARK VINA RESULT:    -6.107      0.000      0.000
REMARK INTER + INTRA:          -8.063
REMARK INTER:                  -7.713
REMARK INTRA:                  -0.350
REMARK UNBOUND:                -0.350
REMARK  Name = 
REMARK  5 active torsions:
REMARK  status: ('A' for Active; 'I' for Inactive)
REMARK    1  A    between atoms: N_1  and  C_2
REMARK    2  A    between atoms: C_2  and  C_3
REMARK    3  A    between atoms: C_7  and  C_8
REMARK    4  A    between atoms: C_9  and  C_10
REMARK    5  A    between atoms: C_14  and  C_15
REMARK                            x       y       z     vdW  Elec       q    Type
REMARK                         _______ _______ _______ _____ _____    ______ ____
ROOT
ATOM      1  C   UNL     1      46.776   4.579  14.320  0.00  0.00    +0.000 C 
ATOM      2  C   UNL     1      47.247   4.435  15.416  0.00  0.00    +0.000 C 
ENDROOT
BRANCH   1   7
ATOM      3  C   UNL     1      44.763   3.938  11.233  0.00  0.00    +0.000 A 
ATOM      4  C   UNL     1      45.051   5.106  10.508  0.00  0.00    +0.000 A 
ATOM      5  C   UNL     1      45.892   6.086  11.039  0.00  0.00    +0.000 A 
ATOM      6  C   UNL     1      46.453   5.909  12.302  0.00  0.00    +0.000 A 
ATOM      7  C   UNL     1      46.170   4.759  13.038  0.00  0.00    +0.000 A 
ATOM      8  C   UNL     1      45.324   3.780  12.510  0.00  0.00    +0.000 A 
BRANCH   3   9
ATOM      9  C   UNL     1      43.881   2.870  10.639  0.00  0.00    +0.000 C 
BRANCH   9  10
ATOM     10  N   UNL     1      43.082   2.215  11.667  0.00  0.00    +0.000 NA
ATOM     11  H   UNL     1      42.388   1.616  11.226  0.00  0.00    +0.000 HD
ATOM     12  H   UNL     1      42.567   2.926  12.186  0.00  0.00    +0.000 HD
ENDBRANCH   9  10
ENDBRANCH   3   9
ENDBRANCH   1   7
BRANCH   2  13
ATOM     13  C   UNL     1      47.785   4.295  16.732  0.00  0.00    +0.000 A 
ATOM     14  C   UNL     1      48.628   3.224  17.033  0.00  0.00    +0.000 A 
ATOM     15  C   UNL     1      49.129   3.078  18.326  0.00  0.00    +0.000 A 
ATOM     16  C   UNL     1      48.786   4.002  19.315  0.00  0.00    +0.000 A 
ATOM     17  C   UNL     1      47.942   5.084  19.019  0.00  0.00    +0.000 A 
ATOM     18  C   UNL     1      47.442   5.225  17.719  0.00  0.00    +0.000 A 
BRANCH  17  19
ATOM     19  C   UNL     1      47.613   6.035  20.120  0.00  0.00    +0.000 C 
ATOM     20  N   UNL     1      47.051   5.547  21.266  0.00  0.00    +0.000 N 
ATOM     21  O   UNL     1      47.837   7.237  20.015  0.00  0.00    +0.000 OA
ATOM     22  H   UNL     1      46.825   4.582  21.445  0.00  0.00    +0.000 HD
ATOM     23  H   UNL     1      46.840   6.222  21.989  0.00  0.00    +0.000 HD
ENDBRANCH  17  19
ENDBRANCH   2  13
TORSDOF 5
ENDMDL
MODEL 2
REMARK VINA RESULT:    -6.059      2.594      8.172
REMARK INTER + INTRA:          -8.003
REMARK INTER:                  -7.665
REMARK INTRA:                  -0.337
REMARK UNBOUND:                -0.350
REMARK  Name = 
REMARK  5 active torsions:
REMARK  status: ('A' for Active; 'I' for Inactive)
REMARK    1  A    between atoms: N_1  and  C_2
REMARK    2  A    between atoms: C_2  and  C_3
REMARK    3  A    between atoms: C_7  and  C_8
REMARK    4  A    between atoms: C_9  and  C_10
REMARK    5  A    between atoms: C_14  and  C_15
REMARK                            x       y       z     vdW  Elec       q    Type
REMARK                         _______ _______ _______ _____ _____    ______ ____
ROOT
ATOM      1  C   UNL     1      47.345   4.591  15.554  0.00  0.00    +0.000 C 
ATOM      2  C   UNL     1      46.868   4.689  14.456  0.00  0.00    +0.000 C 
ENDROOT
BRANCH   1   7
ATOM      3  C   UNL     1      47.912   5.214  19.199  0.00  0.00    +0.000 A 
ATOM      4  C   UNL     1      48.944   4.294  19.445  0.00  0.00    +0.000 A 
ATOM      5  C   UNL     1      49.434   3.481  18.422  0.00  0.00    +0.000 A 
ATOM      6  C   UNL     1      48.897   3.578  17.140  0.00  0.00    +0.000 A 
ATOM      7  C   UNL     1      47.866   4.482  16.881  0.00  0.00    +0.000 A 
ATOM      8  C   UNL     1      47.371   5.292  17.906  0.00  0.00    +0.000 A 
BRANCH   3   9
ATOM      9  C   UNL     1      47.411   6.111  20.301  0.00  0.00    +0.000 C 
BRANCH   9  10
ATOM     10  N   UNL     1      47.281   5.381  21.556  0.00  0.00    +0.000 NA
ATOM     11  H   UNL     1      47.922   5.772  22.243  0.00  0.00    +0.000 HD
ATOM     12  H   UNL     1      47.568   4.415  21.406  0.00  0.00    +0.000 HD
ENDBRANCH   9  10
ENDBRANCH   3   9
ENDBRANCH   1   7
BRANCH   2  13
ATOM     13  C   UNL     1      46.269   4.785  13.162  0.00  0.00    +0.000 A 
ATOM     14  C   UNL     1      46.464   5.926  12.384  0.00  0.00    +0.000 A 
ATOM     15  C   UNL     1      45.855   6.025  11.133  0.00  0.00    +0.000 A 
ATOM     16  C   UNL     1      45.054   4.982  10.665  0.00  0.00    +0.000 A 
ATOM     17  C   UNL     1      44.856   3.829  11.440  0.00  0.00    +0.000 A 
ATOM     18  C   UNL     1      45.469   3.737  12.695  0.00  0.00    +0.000 A 
BRANCH  17  19
ATOM     19  C   UNL     1      43.987   2.752  10.882  0.00  0.00    +0.000 C 
ATOM     20  N   UNL     1      44.397   2.093   9.757  0.00  0.00    +0.000 N 
ATOM     21  O   UNL     1      42.922   2.450  11.411  0.00  0.00    +0.000 OA
ATOM     22  H   UNL     1      45.249   2.270   9.249  0.00  0.00    +0.000 HD
ATOM     23  H   UNL     1      43.782   1.371   9.407  0.00  0.00    +0.000 HD
ENDBRANCH  17  19
ENDBRANCH   2  13
TORSDOF 5
ENDMDL
MODEL 3
REMARK VINA RESULT:    -5.902      3.479      8.382
REMARK INTER + INTRA:          -7.805
REMARK INTER:                  -7.479
REMARK INTRA:                  -0.326
REMARK UNBOUND:                -0.350
REMARK  Name = 
REMARK  5 active torsions:
REMARK  status: ('A' for Active; 'I' for Inactive)
REMARK    1  A    between atoms: N_1  and  C_2
REMARK    2  A    between atoms: C_2  and  C_3
REMARK    3  A    between atoms: C_7  and  C_8
REMARK    4  A    between atoms: C_9  and  C_10
REMARK    5  A    between atoms: C_14  and  C_15
REMARK                            x       y       z     vdW  Elec       q    Type
REMARK                         _______ _______ _______ _____ _____    ______ ____
ROOT
ATOM      1  C   UNL     1      46.793   4.614  14.787  0.00  0.00    +0.000 C 
ATOM      2  C   UNL     1      46.033   4.749  13.866  0.00  0.00    +0.000 C 
ENDROOT
BRANCH   1   7
ATOM      3  C   UNL     1      49.357   5.284  17.426  0.00  0.00    +0.000 A 
ATOM      4  C   UNL     1      49.385   4.033  18.062  0.00  0.00    +0.000 A 
ATOM      5  C   UNL     1      48.564   2.992  17.624  0.00  0.00    +0.000 A 
ATOM      6  C   UNL     1      47.704   3.193  16.546  0.00  0.00    +0.000 A 
ATOM      7  C   UNL     1      47.659   4.433  15.909  0.00  0.00    +0.000 A 
ATOM      8  C   UNL     1      48.477   5.477  16.350  0.00  0.00    +0.000 A 
BRANCH   3   9
ATOM      9  C   UNL     1      50.271   6.392  17.884  0.00  0.00    +0.000 C 
BRANCH   9  10
ATOM     10  N   UNL     1      51.628   6.194  17.391  0.00  0.00    +0.000 NA
ATOM     11  H   UNL     1      52.262   6.086  18.180  0.00  0.00    +0.000 HD
ATOM     12  H   UNL     1      51.923   7.033  16.893  0.00  0.00    +0.000 HD
ENDBRANCH   9  10
ENDBRANCH   3   9
ENDBRANCH   1   7
BRANCH   2  13
ATOM     13  C   UNL     1      45.114   4.874  12.779  0.00  0.00    +0.000 A 
ATOM     14  C   UNL     1      43.784   5.221  13.024  0.00  0.00    +0.000 A 
ATOM     15  C   UNL     1      42.885   5.316  11.963  0.00  0.00    +0.000 A 
ATOM     16  C   UNL     1      43.318   5.065  10.660  0.00  0.00    +0.000 A 
ATOM     17  C   UNL     1      44.654   4.720  10.405  0.00  0.00    +0.000 A 
ATOM     18  C   UNL     1      45.551   4.626  11.475  0.00  0.00    +0.000 A 
BRANCH  17  19
ATOM     19  C   UNL     1      45.052   4.463   8.990  0.00  0.00    +0.000 C 
ATOM     20  N   UNL     1      44.350   3.541   8.266  0.00  0.00    +0.000 N 
ATOM     21  O   UNL     1      45.990   5.060   8.470  0.00  0.00    +0.000 OA
ATOM     22  H   UNL     1      43.571   2.998   8.602  0.00  0.00    +0.000 HD
ATOM     23  H   UNL     1      44.650   3.392   7.311  0.00  0.00    +0.000 HD
ENDBRANCH  17  19
ENDBRANCH   2  13
TORSDOF 5
ENDMDL
MODEL 4
REMARK VINA RESULT:    -5.827      2.625      3.089
REMARK INTER + INTRA:          -7.710
REMARK INTER:                  -7.362
REMARK INTRA:                  -0.348
REMARK UNBOUND:                -0.350
REMARK  Name = 
REMARK  5 active torsions:
REMARK  status: ('A' for Active; 'I' for Inactive)
REMARK    1  A    between atoms: N_1  and  C_2
REMARK    2  A    between atoms: C_2  and  C_3
REMARK    3  A    between atoms: C_7  and  C_8
REMARK    4  A    between atoms: C_9  and  C_10
REMARK    5  A    between atoms: C_14  and  C_15
REMARK                            x       y       z     vdW  Elec       q    Type
REMARK                         _______ _______ _______ _____ _____    ______ ____
ROOT
ATOM      1  C   UNL     1      46.213   4.416  14.129  0.00  0.00    +0.000 C 
ATOM      2  C   UNL     1      46.884   4.243  15.110  0.00  0.00    +0.000 C 
ENDROOT
BRANCH   1   7
ATOM      3  C   UNL     1      44.473   3.880  10.861  0.00  0.00    +0.000 A 
ATOM      4  C   UNL     1      43.781   5.097  10.752  0.00  0.00    +0.000 A 
ATOM      5  C   UNL     1      43.887   6.070  11.747  0.00  0.00    +0.000 A 
ATOM      6  C   UNL     1      44.686   5.836  12.864  0.00  0.00    +0.000 A 
ATOM      7  C   UNL     1      45.374   4.629  12.991  0.00  0.00    +0.000 A 
ATOM      8  C   UNL     1      45.264   3.652  11.998  0.00  0.00    +0.000 A 
BRANCH   3   9
ATOM      9  C   UNL     1      44.379   2.849   9.766  0.00  0.00    +0.000 C 
BRANCH   9  10
ATOM     10  N   UNL     1      44.285   3.478   8.455  0.00  0.00    +0.000 NA
ATOM     11  H   UNL     1      45.056   3.162   7.871  0.00  0.00    +0.000 HD
ATOM     12  H   UNL     1      44.397   4.486   8.565  0.00  0.00    +0.000 HD
ENDBRANCH   9  10
ENDBRANCH   3   9
ENDBRANCH   1   7
BRANCH   2  13
ATOM     13  C   UNL     1      47.663   4.068  16.296  0.00  0.00    +0.000 A 
ATOM     14  C   UNL     1      47.326   4.755  17.462  0.00  0.00    +0.000 A 
ATOM     15  C   UNL     1      48.105   4.601  18.608  0.00  0.00    +0.000 A 
ATOM     16  C   UNL     1      49.219   3.759  18.585  0.00  0.00    +0.000 A 
ATOM     17  C   UNL     1      49.562   3.062  17.416  0.00  0.00    +0.000 A 
ATOM     18  C   UNL     1      48.776   3.222  16.269  0.00  0.00    +0.000 A 
BRANCH  17  19
ATOM     19  C   UNL     1      50.764   2.179  17.457  0.00  0.00    +0.000 C 
ATOM     20  N   UNL     1      51.862   2.595  18.156  0.00  0.00    +0.000 N 
ATOM     21  O   UNL     1      50.784   1.098  16.879  0.00  0.00    +0.000 OA
ATOM     22  H   UNL     1      51.946   3.464  18.658  0.00  0.00    +0.000 HD
ATOM     23  H   UNL     1      52.659   1.972  18.160  0.00  0.00    +0.000 HD
ENDBRANCH  17  19
ENDBRANCH   2  13
TORSDOF 5
ENDMDL
MODEL 5
REMARK VINA RESULT:    -5.630      2.791      3.529
REMARK INTER + INTRA:          -7.461
REMARK INTER:                  -7.116
REMARK INTRA:                  -0.345
REMARK UNBOUND:                -0.350
REMARK  Name = 
REMARK  5 active torsions:
REMARK  status: ('A' for Active; 'I' for Inactive)
REMARK    1  A    between atoms: N_1  and  C_2
REMARK    2  A    between atoms: C_2  and  C_3
REMARK    3  A    between atoms: C_7  and  C_8
REMARK    4  A    between atoms: C_9  and  C_10
REMARK    5  A    between atoms: C_14  and  C_15
REMARK                            x       y       z     vdW  Elec       q    Type
REMARK                         _______ _______ _______ _____ _____    ______ ____
ROOT
ATOM      1  C   UNL     1      46.397   4.424  14.230  0.00  0.00    +0.000 C 
ATOM      2  C   UNL     1      47.032   4.243  15.233  0.00  0.00    +0.000 C 
ENDROOT
BRANCH   1   7
ATOM      3  C   UNL     1      44.531   6.258  11.556  0.00  0.00    +0.000 A 
ATOM      4  C   UNL     1      44.083   5.174  10.784  0.00  0.00    +0.000 A 
ATOM      5  C   UNL     1      44.402   3.863  11.144  0.00  0.00    +0.000 A 
ATOM      6  C   UNL     1      45.173   3.622  12.279  0.00  0.00    +0.000 A 
ATOM      7  C   UNL     1      45.631   4.689  13.052  0.00  0.00    +0.000 A 
ATOM      8  C   UNL     1      45.318   6.002  12.690  0.00  0.00    +0.000 A 
BRANCH   3   9
ATOM      9  C   UNL     1      44.155   7.668  11.180  0.00  0.00    +0.000 C 
BRANCH   9  10
ATOM     10  N   UNL     1      42.712   7.805  11.024  0.00  0.00    +0.000 NA
ATOM     11  H   UNL     1      42.451   7.568  10.070  0.00  0.00    +0.000 HD
ATOM     12  H   UNL     1      42.458   8.783  11.162  0.00  0.00    +0.000 HD
ENDBRANCH   9  10
ENDBRANCH   3   9
ENDBRANCH   1   7
BRANCH   2  13
ATOM     13  C   UNL     1      47.803   4.063  16.423  0.00  0.00    +0.000 A 
ATOM     14  C   UNL     1      47.447   4.731  17.595  0.00  0.00    +0.000 A 
ATOM     15  C   UNL     1      48.218   4.573  18.745  0.00  0.00    +0.000 A 
ATOM     16  C   UNL     1      49.343   3.746  18.721  0.00  0.00    +0.000 A 
ATOM     17  C   UNL     1      49.706   3.068  17.547  0.00  0.00    +0.000 A 
ATOM     18  C   UNL     1      48.928   3.232  16.396  0.00  0.00    +0.000 A 
BRANCH  17  19
ATOM     19  C   UNL     1      50.920   2.201  17.587  0.00  0.00    +0.000 C 
ATOM     20  N   UNL     1      51.985   2.595  18.348  0.00  0.00    +0.000 N 
ATOM     21  O   UNL     1      50.977   1.151  16.956  0.00  0.00    +0.000 OA
ATOM     22  H   UNL     1      52.036   3.438  18.896  0.00  0.00    +0.000 HD
ATOM     23  H   UNL     1      52.790   1.984  18.349  0.00  0.00    +0.000 HD
ENDBRANCH  17  19
ENDBRANCH   2  13
TORSDOF 5
ENDMDL
MODEL 6
REMARK VINA RESULT:    -5.414      3.485      8.181
REMARK INTER + INTRA:          -7.188
REMARK INTER:                  -6.830
REMARK INTRA:                  -0.357
REMARK UNBOUND:                -0.350
REMARK  Name = 
REMARK  5 active torsions:
REMARK  status: ('A' for Active; 'I' for Inactive)
REMARK    1  A    between atoms: N_1  and  C_2
REMARK    2  A    between atoms: C_2  and  C_3
REMARK    3  A    between atoms: C_7  and  C_8
REMARK    4  A    between atoms: C_9  and  C_10
REMARK    5  A    between atoms: C_14  and  C_15
REMARK                            x       y       z     vdW  Elec       q    Type
REMARK                         _______ _______ _______ _____ _____    ______ ____
ROOT
ATOM      1  C   UNL     1      47.291   5.670  14.278  0.00  0.00    +0.000 C 
ATOM      2  C   UNL     1      46.433   5.465  13.463  0.00  0.00    +0.000 C 
ENDROOT
BRANCH   1   7
ATOM      3  C   UNL     1      49.224   5.397  17.468  0.00  0.00    +0.000 A 
ATOM      4  C   UNL     1      50.184   6.400  17.258  0.00  0.00    +0.000 A 
ATOM      5  C   UNL     1      50.190   7.145  16.077  0.00  0.00    +0.000 A 
ATOM      6  C   UNL     1      49.236   6.894  15.093  0.00  0.00    +0.000 A 
ATOM      7  C   UNL     1      48.281   5.896  15.284  0.00  0.00    +0.000 A 
ATOM      8  C   UNL     1      48.277   5.146  16.463  0.00  0.00    +0.000 A 
BRANCH   3   9
ATOM      9  C   UNL     1      49.204   4.620  18.759  0.00  0.00    +0.000 C 
BRANCH   9  10
ATOM     10  N   UNL     1      47.857   4.167  19.081  0.00  0.00    +0.000 NA
ATOM     11  H   UNL     1      47.886   3.189  19.360  0.00  0.00    +0.000 HD
ATOM     12  H   UNL     1      47.284   4.212  18.239  0.00  0.00    +0.000 HD
ENDBRANCH   9  10
ENDBRANCH   3   9
ENDBRANCH   1   7
BRANCH   2  13
ATOM     13  C   UNL     1      45.402   5.187  12.512  0.00  0.00    +0.000 A 
ATOM     14  C   UNL     1      44.069   5.132  12.920  0.00  0.00    +0.000 A 
ATOM     15  C   UNL     1      43.071   4.835  11.993  0.00  0.00    +0.000 A 
ATOM     16  C   UNL     1      43.409   4.593  10.660  0.00  0.00    +0.000 A 
ATOM     17  C   UNL     1      44.747   4.651  10.241  0.00  0.00    +0.000 A 
ATOM     18  C   UNL     1      45.744   4.949  11.177  0.00  0.00    +0.000 A 
BRANCH  17  19
ATOM     19  C   UNL     1      45.041   4.382   8.803  0.00  0.00    +0.000 C 
ATOM     20  N   UNL     1      44.282   3.461   8.137  0.00  0.00    +0.000 N 
ATOM     21  O   UNL     1      45.944   4.967   8.214  0.00  0.00    +0.000 OA
ATOM     22  H   UNL     1      43.525   2.926   8.532  0.00  0.00    +0.000 HD
ATOM     23  H   UNL     1      44.512   3.304   7.165  0.00  0.00    +0.000 HD
ENDBRANCH  17  19
ENDBRANCH   2  13
TORSDOF 5
ENDMDL
MODEL 7
REMARK VINA RESULT:    -5.351      5.863      8.391
REMARK INTER + INTRA:          -7.108
REMARK INTER:                  -6.758
REMARK INTRA:                  -0.350
REMARK UNBOUND:                -0.350
REMARK  Name = 
REMARK  5 active torsions:
REMARK  status: ('A' for Active; 'I' for Inactive)
REMARK    1  A    between atoms: N_1  and  C_2
REMARK    2  A    between atoms: C_2  and  C_3
REMARK    3  A    between atoms: C_7  and  C_8
REMARK    4  A    between atoms: C_9  and  C_10
REMARK    5  A    between atoms: C_14  and  C_15
REMARK                            x       y       z     vdW  Elec       q    Type
REMARK                         _______ _______ _______ _____ _____    ______ ____
ROOT
ATOM      1  C   UNL     1      48.147   7.751  11.786  0.00  0.00    +0.000 C 
ATOM      2  C   UNL     1      47.136   7.103  11.808  0.00  0.00    +0.000 C 
ENDROOT
BRANCH   1   7
ATOM      3  C   UNL     1      51.727   8.662  11.197  0.00  0.00    +0.000 A 
ATOM      4  C   UNL     1      51.773   9.904  11.850  0.00  0.00    +0.000 A 
ATOM      5  C   UNL     1      50.635  10.427  12.467  0.00  0.00    +0.000 A 
ATOM      6  C   UNL     1      49.438   9.715  12.436  0.00  0.00    +0.000 A 
ATOM      7  C   UNL     1      49.374   8.483  11.784  0.00  0.00    +0.000 A 
ATOM      8  C   UNL     1      50.511   7.961  11.161  0.00  0.00    +0.000 A 
BRANCH   3   9
ATOM      9  C   UNL     1      52.967   8.088  10.561  0.00  0.00    +0.000 C 
BRANCH   9  10
ATOM     10  N   UNL     1      53.129   6.679  10.898  0.00  0.00    +0.000 NA
ATOM     11  H   UNL     1      53.946   6.565  11.493  0.00  0.00    +0.000 HD
ATOM     12  H   UNL     1      53.315   6.156  10.043  0.00  0.00    +0.000 HD
ENDBRANCH   9  10
ENDBRANCH   3   9
ENDBRANCH   1   7
BRANCH   2  13
ATOM     13  C   UNL     1      45.954   6.300  11.827  0.00  0.00    +0.000 A 
ATOM     14  C   UNL     1      45.086   6.357  12.918  0.00  0.00    +0.000 A 
ATOM     15  C   UNL     1      43.948   5.552  12.942  0.00  0.00    +0.000 A 
ATOM     16  C   UNL     1      43.681   4.691  11.876  0.00  0.00    +0.000 A 
ATOM     17  C   UNL     1      44.547   4.631  10.773  0.00  0.00    +0.000 A 
ATOM     18  C   UNL     1      45.688   5.442  10.755  0.00  0.00    +0.000 A 
BRANCH  17  19
ATOM     19  C   UNL     1      44.206   3.690   9.667  0.00  0.00    +0.000 C 
ATOM     20  N   UNL     1      44.181   4.163   8.385  0.00  0.00    +0.000 N 
ATOM     21  O   UNL     1      43.949   2.510   9.886  0.00  0.00    +0.000 OA
ATOM     22  H   UNL     1      44.372   5.111   8.104  0.00  0.00    +0.000 HD
ATOM     23  H   UNL     1      43.943   3.497   7.662  0.00  0.00    +0.000 HD
ENDBRANCH  17  19
ENDBRANCH   2  13
TORSDOF 5
ENDMDL
MODEL 8
REMARK VINA RESULT:    -5.327      5.824      8.364
REMARK INTER + INTRA:          -7.079
REMARK INTER:                  -6.727
REMARK INTRA:                  -0.352
REMARK UNBOUND:                -0.350
REMARK  Name = 
REMARK  5 active torsions:
REMARK  status: ('A' for Active; 'I' for Inactive)
REMARK    1  A    between atoms: N_1  and  C_2
REMARK    2  A    between atoms: C_2  and  C_3
REMARK    3  A    between atoms: C_7  and  C_8
REMARK    4  A    between atoms: C_9  and  C_10
REMARK    5  A    between atoms: C_14  and  C_15
REMARK                            x       y       z     vdW  Elec       q    Type
REMARK                         _______ _______ _______ _____ _____    ______ ____
ROOT
ATOM      1  C   UNL     1      47.017   7.581  11.916  0.00  0.00    +0.000 C 
ATOM      2  C   UNL     1      46.268   6.643  11.859  0.00  0.00    +0.000 C 
ENDROOT
BRANCH   1   7
ATOM      3  C   UNL     1      48.405  11.026  12.356  0.00  0.00    +0.000 A 
ATOM      4  C   UNL     1      49.763  10.776  12.105  0.00  0.00    +0.000 A 
ATOM      5  C   UNL     1      50.207   9.487  11.801  0.00  0.00    +0.000 A 
ATOM      6  C   UNL     1      49.295   8.434  11.748  0.00  0.00    +0.000 A 
ATOM      7  C   UNL     1      47.944   8.666  12.003  0.00  0.00    +0.000 A 
ATOM      8  C   UNL     1      47.500   9.954  12.312  0.00  0.00    +0.000 A 
BRANCH   3   9
ATOM      9  C   UNL     1      47.930  12.426  12.650  0.00  0.00    +0.000 C 
BRANCH   9  10
ATOM     10  N   UNL     1      46.482  12.530  12.519  0.00  0.00    +0.000 NA
ATOM     11  H   UNL     1      46.222  12.425  11.541  0.00  0.00    +0.000 HD
ATOM     12  H   UNL     1      46.192  13.466  12.799  0.00  0.00    +0.000 HD
ENDBRANCH   9  10
ENDBRANCH   3   9
ENDBRANCH   1   7
BRANCH   2  13
ATOM     13  C   UNL     1      45.408   5.505  11.782  0.00  0.00    +0.000 A 
ATOM     14  C   UNL     1      44.659   5.117  12.894  0.00  0.00    +0.000 A 
ATOM     15  C   UNL     1      43.842   3.990  12.821  0.00  0.00    +0.000 A 
ATOM     16  C   UNL     1      43.774   3.255  11.636  0.00  0.00    +0.000 A 
ATOM     17  C   UNL     1      44.520   3.641  10.512  0.00  0.00    +0.000 A 
ATOM     18  C   UNL     1      45.339   4.773  10.593  0.00  0.00    +0.000 A 
BRANCH  17  19
ATOM     19  C   UNL     1      44.404   2.812   9.277  0.00  0.00    +0.000 C 
ATOM     20  N   UNL     1      44.323   3.442   8.067  0.00  0.00    +0.000 N 
ATOM     21  O   UNL     1      44.380   1.587   9.329  0.00  0.00    +0.000 OA
ATOM     22  H   UNL     1      44.329   4.438   7.921  0.00  0.00    +0.000 HD
ATOM     23  H   UNL     1      44.243   2.848   7.253  0.00  0.00    +0.000 HD
ENDBRANCH  17  19
ENDBRANCH   2  13
TORSDOF 5
ENDMDL
MODEL 9
REMARK VINA RESULT:    -5.248      5.744      6.813
REMARK INTER + INTRA:          -6.979
REMARK INTER:                  -6.621
REMARK INTRA:                  -0.358
REMARK UNBOUND:                -0.350
REMARK  Name = 
REMARK  5 active torsions:
REMARK  status: ('A' for Active; 'I' for Inactive)
REMARK    1  A    between atoms: N_1  and  C_2
REMARK    2  A    between atoms: C_2  and  C_3
REMARK    3  A    between atoms: C_7  and  C_8
REMARK    4  A    between atoms: C_9  and  C_10
REMARK    5  A    between atoms: C_14  and  C_15
REMARK                            x       y       z     vdW  Elec       q    Type
REMARK                         _______ _______ _______ _____ _____    ______ ____
ROOT
ATOM      1  C   UNL     1      46.713   6.427  11.805  0.00  0.00    +0.000 C 
ATOM      2  C   UNL     1      47.638   7.191  11.739  0.00  0.00    +0.000 C 
ENDROOT
BRANCH   1   7
ATOM      3  C   UNL     1      44.279   3.692  11.042  0.00  0.00    +0.000 A 
ATOM      4  C   UNL     1      43.338   3.912  12.061  0.00  0.00    +0.000 A 
ATOM      5  C   UNL     1      43.515   4.945  12.984  0.00  0.00    +0.000 A 
ATOM      6  C   UNL     1      44.636   5.767  12.898  0.00  0.00    +0.000 A 
ATOM      7  C   UNL     1      45.584   5.556  11.897  0.00  0.00    +0.000 A 
ATOM      8  C   UNL     1      45.410   4.519  10.976  0.00  0.00    +0.000 A 
BRANCH   3   9
ATOM      9  C   UNL     1      44.064   2.595  10.030  0.00  0.00    +0.000 C 
BRANCH   9  10
ATOM     10  N   UNL     1      45.330   2.007   9.613  0.00  0.00    +0.000 NA
ATOM     11  H   UNL     1      45.816   1.639  10.428  0.00  0.00    +0.000 HD
ATOM     12  H   UNL     1      45.923   2.741   9.227  0.00  0.00    +0.000 HD
ENDBRANCH   9  10
ENDBRANCH   3   9
ENDBRANCH   1   7
BRANCH   2  13
ATOM     13  C   UNL     1      48.713   8.128  11.646  0.00  0.00    +0.000 A 
ATOM     14  C   UNL     1      48.466   9.494  11.789  0.00  0.00    +0.000 A 
ATOM     15  C   UNL     1      49.514  10.405  11.672  0.00  0.00    +0.000 A 
ATOM     16  C   UNL     1      50.808   9.948  11.411  0.00  0.00    +0.000 A 
ATOM     17  C   UNL     1      51.065   8.575  11.270  0.00  0.00    +0.000 A 
ATOM     18  C   UNL     1      50.008   7.666  11.389  0.00  0.00    +0.000 A 
BRANCH  17  19
ATOM     19  C   UNL     1      52.469   8.152  10.991  0.00  0.00    +0.000 C 
ATOM     20  N   UNL     1      52.715   6.841  10.695  0.00  0.00    +0.000 N 
ATOM     21  O   UNL     1      53.397   8.954  11.023  0.00  0.00    +0.000 OA
ATOM     22  H   UNL     1      52.025   6.109  10.649  0.00  0.00    +0.000 HD
ATOM     23  H   UNL     1      53.678   6.591  10.515  0.00  0.00    +0.000 HD
ENDBRANCH  17  19
ENDBRANCH   2  13
TORSDOF 5
ENDMDL
