MODEL 1
REMARK VINA RESULT:    -7.413      0.000      0.000
REMARK INTER + INTRA:          -9.668
REMARK INTER:                  -8.930
REMARK INTRA:                  -0.738
REMARK UNBOUND:                -0.738
REMARK  Name = 
REMARK  4 active torsions:
REMARK  status: ('A' for Active; 'I' for Inactive)
REMARK    1  A    between atoms: O_1  and  C_2
REMARK    2  A    between atoms: C_5  and  C_6
REMARK    3  A    between atoms: C_6  and  C_7
REMARK    4  A    between atoms: C_11  and  C_12
REMARK                            x       y       z     vdW  Elec       q    Type
REMARK                         _______ _______ _______ _____ _____    ______ ____
ROOT
ATOM      1  C   UNL     1      45.439   4.978  12.025  0.00  0.00    +0.000 A 
ATOM      2  C   UNL     1      45.775   4.267  13.187  0.00  0.00    +0.000 A 
ATOM      3  C   UNL     1      46.824   4.677  14.005  0.00  0.00    +0.000 A 
ATOM      4  C   UNL     1      47.558   5.819  13.680  0.00  0.00    +0.000 A 
ATOM      5  C   UNL     1      47.229   6.597  12.559  0.00  0.00    +0.000 A 
ATOM      6  C   UNL     1      46.138   6.177  11.774  0.00  0.00    +0.000 A 
ENDROOT
BRANCH   5   7
ATOM      7  C   UNL     1      48.044   7.762  12.163  0.00  0.00    +0.000 A 
ATOM      8  C   UNL     1      49.401   7.633  11.830  0.00  0.00    +0.000 A 
ATOM      9  C   UNL     1      50.141   8.743  11.424  0.00  0.00    +0.000 A 
ATOM     10  C   UNL     1      49.502   9.966  11.349  0.00  0.00    +0.000 A 
ATOM     11  N   UNL     1      48.201  10.149  11.651  0.00  0.00    +0.000 NA
ATOM     12  C   UNL     1      47.512   9.048  12.053  0.00  0.00    +0.000 A 
ENDBRANCH   5   7
BRANCH   1  13
ATOM     13  C   UNL     1      44.486   4.384  10.983  0.00  0.00    +0.000 C 
ATOM     14  C   UNL     1      43.169   3.798  11.501  0.00  0.00    +0.000 C 
ATOM     15  C   UNL     1      43.153   5.129  10.836  0.00  0.00    +0.000 C 
BRANCH  13  19
ATOM     16  C   UNL     1      46.335   2.602   7.470  0.00  0.00    +0.000 A 
ATOM     17  C   UNL     1      46.287   3.984   7.593  0.00  0.00    +0.000 A 
ATOM     18  C   UNL     1      45.659   4.557   8.707  0.00  0.00    +0.000 A 
ATOM     19  C   UNL     1      45.082   3.765   9.716  0.00  0.00    +0.000 A 
ATOM     20  C   UNL     1      45.131   2.369   9.542  0.00  0.00    +0.000 A 
ATOM     21  C   UNL     1      45.753   1.789   8.434  0.00  0.00    +0.000 A 
BRANCH  16  22
ATOM     22  O   UNL     1      46.954   1.997   6.419  0.00  0.00    +0.000 OA
ATOM     23  H   UNL     1      46.997   1.042   6.590  0.00  0.00    +0.000 HD
ENDBRANCH  16  22
ENDBRANCH  13  19
ENDBRANCH   1  13
TORSDOF 4
ENDMDL
MODEL 2
REMARK VINA RESULT:    -7.140      1.578      2.030
REMARK INTER + INTRA:          -9.340
REMARK INTER:                  -8.667
REMARK INTRA:                  -0.673
REMARK UNBOUND:                -0.738
REMARK  Name = 
REMARK  4 active torsions:
REMARK  status: ('A' for Active; 'I' for Inactive)
REMARK    1  A    between atoms: O_1  and  C_2
REMARK    2  A    between atoms: C_5  and  C_6
REMARK    3  A    between atoms: C_6  and  C_7
REMARK    4  A    between atoms: C_11  and  C_12
REMARK                            x       y       z     vdW  Elec       q    Type
REMARK                         _______ _______ _______ _____ _____    ______ ____
ROOT
ATOM      1  C   UNL     1      45.234   5.514  12.222  0.00  0.00    +0.000 A 
ATOM      2  C   UNL     1      46.335   5.038  12.949  0.00  0.00    +0.000 A 
ATOM      3  C   UNL     1      47.296   5.908  13.456  0.00  0.00    +0.000 A 
ATOM      4  C   UNL     1      47.169   7.283  13.253  0.00  0.00    +0.000 A 
ATOM      5  C   UNL     1      46.057   7.817  12.582  0.00  0.00    +0.000 A 
ATOM      6  C   UNL     1      45.085   6.913  12.115  0.00  0.00    +0.000 A 
ENDROOT
BRANCH   5   7
ATOM      7  C   UNL     1      45.950   9.262  12.296  0.00  0.00    +0.000 A 
ATOM      8  C   UNL     1      47.088  10.064  12.118  0.00  0.00    +0.000 A 
ATOM      9  C   UNL     1      46.960  11.418  11.812  0.00  0.00    +0.000 A 
ATOM     10  C   UNL     1      45.689  11.944  11.680  0.00  0.00    +0.000 A 
ATOM     11  N   UNL     1      44.562  11.221  11.835  0.00  0.00    +0.000 NA
ATOM     12  C   UNL     1      44.722   9.907  12.142  0.00  0.00    +0.000 A 
ENDBRANCH   5   7
BRANCH   1  13
ATOM     13  C   UNL     1      44.337   4.559  11.428  0.00  0.00    +0.000 C 
ATOM     14  C   UNL     1      43.341   3.714  12.229  0.00  0.00    +0.000 C 
ATOM     15  C   UNL     1      42.841   4.896  11.477  0.00  0.00    +0.000 C 
BRANCH  13  19
ATOM     16  C   UNL     1      46.023   2.837   7.806  0.00  0.00    +0.000 A 
ATOM     17  C   UNL     1      46.043   4.214   7.983  0.00  0.00    +0.000 A 
ATOM     18  C   UNL     1      45.467   4.770   9.134  0.00  0.00    +0.000 A 
ATOM     19  C   UNL     1      44.875   3.965  10.124  0.00  0.00    +0.000 A 
ATOM     20  C   UNL     1      44.855   2.577   9.894  0.00  0.00    +0.000 A 
ATOM     21  C   UNL     1      45.426   2.014   8.750  0.00  0.00    +0.000 A 
BRANCH  16  22
ATOM     22  O   UNL     1      46.590   2.247   6.717  0.00  0.00    +0.000 OA
ATOM     23  H   UNL     1      46.916   1.370   6.973  0.00  0.00    +0.000 HD
ENDBRANCH  16  22
ENDBRANCH  13  19
ENDBRANCH   1  13
TORSDOF 4
ENDMDL
MODEL 3
REMARK VINA RESULT:    -7.122      2.125      3.481
REMARK INTER + INTRA:          -9.318
REMARK INTER:                  -8.684
REMARK INTRA:                  -0.634
REMARK UNBOUND:                -0.738
REMARK  Name = 
REMARK  4 active torsions:
REMARK  status: ('A' for Active; 'I' for Inactive)
REMARK    1  A    between atoms: O_1  and  C_2
REMARK    2  A    between atoms: C_5  and  C_6
REMARK    3  A    between atoms: C_6  and  C_7
REMARK    4  A    between atoms: C_11  and  C_12
REMARK                            x       y       z     vdW  Elec       q    Type
REMARK                         _______ _______ _______ _____ _____    ______ ____
ROOT
ATOM      1  C   UNL     1      45.602   5.455  11.554  0.00  0.00    +0.000 A 
ATOM      2  C   UNL     1      45.658   6.831  11.285  0.00  0.00    +0.000 A 
ATOM      3  C   UNL     1      46.312   7.709  12.144  0.00  0.00    +0.000 A 
ATOM      4  C   UNL     1      46.937   7.223  13.295  0.00  0.00    +0.000 A 
ATOM      5  C   UNL     1      46.960   5.849  13.582  0.00  0.00    +0.000 A 
ATOM      6  C   UNL     1      46.321   4.985  12.673  0.00  0.00    +0.000 A 
ENDROOT
BRANCH   5   7
ATOM      7  C   UNL     1      47.551   5.333  14.833  0.00  0.00    +0.000 A 
ATOM      8  C   UNL     1      47.176   4.091  15.367  0.00  0.00    +0.000 A 
ATOM      9  C   UNL     1      47.775   3.609  16.530  0.00  0.00    +0.000 A 
ATOM     10  C   UNL     1      48.751   4.380  17.133  0.00  0.00    +0.000 A 
ATOM     11  N   UNL     1      49.154   5.576  16.663  0.00  0.00    +0.000 NA
ATOM     12  C   UNL     1      48.543   6.021  15.533  0.00  0.00    +0.000 A 
ENDBRANCH   5   7
BRANCH   1  13
ATOM     13  C   UNL     1      44.655   4.535  10.777  0.00  0.00    +0.000 C 
ATOM     14  C   UNL     1      43.525   3.871  11.570  0.00  0.00    +0.000 C 
ATOM     15  C   UNL     1      43.206   5.031  10.694  0.00  0.00    +0.000 C 
BRANCH  13  19
ATOM     16  C   UNL     1      46.370   2.362   7.420  0.00  0.00    +0.000 A 
ATOM     17  C   UNL     1      46.384   3.750   7.417  0.00  0.00    +0.000 A 
ATOM     18  C   UNL     1      45.799   4.450   8.482  0.00  0.00    +0.000 A 
ATOM     19  C   UNL     1      45.203   3.778   9.565  0.00  0.00    +0.000 A 
ATOM     20  C   UNL     1      45.189   2.372   9.518  0.00  0.00    +0.000 A 
ATOM     21  C   UNL     1      45.768   1.667   8.460  0.00  0.00    +0.000 A 
BRANCH  16  22
ATOM     22  O   UNL     1      46.945   1.637   6.421  0.00  0.00    +0.000 OA
ATOM     23  H   UNL     1      47.908   1.660   6.535  0.00  0.00    +0.000 HD
ENDBRANCH  16  22
ENDBRANCH  13  19
ENDBRANCH   1  13
TORSDOF 4
ENDMDL
MODEL 4
REMARK VINA RESULT:    -6.785      1.978      2.717
REMARK INTER + INTRA:          -8.912
REMARK INTER:                  -8.382
REMARK INTRA:                  -0.530
REMARK UNBOUND:                -0.738
REMARK  Name = 
REMARK  4 active torsions:
REMARK  status: ('A' for Active; 'I' for Inactive)
REMARK    1  A    between atoms: O_1  and  C_2
REMARK    2  A    between atoms: C_5  and  C_6
REMARK    3  A    between atoms: C_6  and  C_7
REMARK    4  A    between atoms: C_11  and  C_12
REMARK                            x       y       z     vdW  Elec       q    Type
REMARK                         _______ _______ _______ _____ _____    ______ ____
ROOT
ATOM      1  C   UNL     1      45.267   6.097  11.623  0.00  0.00    +0.000 A 
ATOM      2  C   UNL     1      44.752   7.383  11.401  0.00  0.00    +0.000 A 
ATOM      3  C   UNL     1      45.304   8.499  12.025  0.00  0.00    +0.000 A 
ATOM      4  C   UNL     1      46.395   8.350  12.883  0.00  0.00    +0.000 A 
ATOM      5  C   UNL     1      46.984   7.094  13.096  0.00  0.00    +0.000 A 
ATOM      6  C   UNL     1      46.426   5.992  12.420  0.00  0.00    +0.000 A 
ENDROOT
BRANCH   5   7
ATOM      7  C   UNL     1      48.089   6.913  14.058  0.00  0.00    +0.000 A 
ATOM      8  C   UNL     1      49.233   7.726  14.029  0.00  0.00    +0.000 A 
ATOM      9  C   UNL     1      50.246   7.560  14.971  0.00  0.00    +0.000 A 
ATOM     10  C   UNL     1      50.089   6.584  15.938  0.00  0.00    +0.000 A 
ATOM     11  N   UNL     1      49.012   5.779  16.018  0.00  0.00    +0.000 NA
ATOM     12  C   UNL     1      48.047   5.961  15.078  0.00  0.00    +0.000 A 
ENDBRANCH   5   7
BRANCH   1  13
ATOM     13  C   UNL     1      44.500   4.850  11.171  0.00  0.00    +0.000 C 
ATOM     14  C   UNL     1      43.781   4.045  12.259  0.00  0.00    +0.000 C 
ATOM     15  C   UNL     1      42.981   4.927  11.368  0.00  0.00    +0.000 C 
BRANCH  13  19
ATOM     16  C   UNL     1      46.096   2.640   7.780  0.00  0.00    +0.000 A 
ATOM     17  C   UNL     1      46.177   4.026   7.794  0.00  0.00    +0.000 A 
ATOM     18  C   UNL     1      45.630   4.739   8.871  0.00  0.00    +0.000 A 
ATOM     19  C   UNL     1      45.007   4.083   9.948  0.00  0.00    +0.000 A 
ATOM     20  C   UNL     1      44.925   2.680   9.883  0.00  0.00    +0.000 A 
ATOM     21  C   UNL     1      45.465   1.961   8.814  0.00  0.00    +0.000 A 
BRANCH  16  22
ATOM     22  O   UNL     1      46.631   1.901   6.770  0.00  0.00    +0.000 OA
ATOM     23  H   UNL     1      46.148   1.061   6.708  0.00  0.00    +0.000 HD
ENDBRANCH  16  22
ENDBRANCH  13  19
ENDBRANCH   1  13
TORSDOF 4
ENDMDL
MODEL 5
REMARK VINA RESULT:    -6.315      3.232      6.449
REMARK INTER + INTRA:          -8.346
REMARK INTER:                  -7.954
REMARK INTRA:                  -0.391
REMARK UNBOUND:                -0.738
REMARK  Name = 
REMARK  4 active torsions:
REMARK  status: ('A' for Active; 'I' for Inactive)
REMARK    1  A    between atoms: O_1  and  C_2
REMARK    2  A    between atoms: C_5  and  C_6
REMARK    3  A    between atoms: C_6  and  C_7
REMARK    4  A    between atoms: C_11  and  C_12
REMARK                            x       y       z     vdW  Elec       q    Type
REMARK                         _______ _______ _______ _____ _____    ______ ____
ROOT
ATOM      1  C   UNL     1      45.041   6.648  11.584  0.00  0.00    +0.000 A 
ATOM      2  C   UNL     1      43.690   6.481  11.922  0.00  0.00    +0.000 A 
ATOM      3  C   UNL     1      42.924   5.466  11.355  0.00  0.00    +0.000 A 
ATOM      4  C   UNL     1      43.502   4.585  10.439  0.00  0.00    +0.000 A 
ATOM      5  C   UNL     1      44.863   4.672  10.108  0.00  0.00    +0.000 A 
ATOM      6  C   UNL     1      45.618   5.686  10.728  0.00  0.00    +0.000 A 
ENDROOT
BRANCH   5   7
ATOM      7  C   UNL     1      45.466   3.795   9.085  0.00  0.00    +0.000 A 
ATOM      8  C   UNL     1      46.148   4.317   7.976  0.00  0.00    +0.000 A 
ATOM      9  C   UNL     1      46.740   3.468   7.042  0.00  0.00    +0.000 A 
ATOM     10  C   UNL     1      46.647   2.103   7.244  0.00  0.00    +0.000 A 
ATOM     11  N   UNL     1      46.010   1.546   8.293  0.00  0.00    +0.000 NA
ATOM     12  C   UNL     1      45.435   2.402   9.179  0.00  0.00    +0.000 A 
ENDBRANCH   5   7
BRANCH   1  13
ATOM     13  C   UNL     1      45.804   7.916  11.979  0.00  0.00    +0.000 C 
ATOM     14  C   UNL     1      45.384   9.221  11.294  0.00  0.00    +0.000 C 
ATOM     15  C   UNL     1      44.957   8.974  12.698  0.00  0.00    +0.000 C 
BRANCH  13  19
ATOM     16  C   UNL     1      49.941   7.686  13.306  0.00  0.00    +0.000 A 
ATOM     17  C   UNL     1      49.636   8.355  12.128  0.00  0.00    +0.000 A 
ATOM     18  C   UNL     1      48.307   8.397  11.683  0.00  0.00    +0.000 A 
ATOM     19  C   UNL     1      47.267   7.785  12.407  0.00  0.00    +0.000 A 
ATOM     20  C   UNL     1      47.623   7.098  13.583  0.00  0.00    +0.000 A 
ATOM     21  C   UNL     1      48.944   7.050  14.034  0.00  0.00    +0.000 A 
BRANCH  16  22
ATOM     22  O   UNL     1      51.212   7.636  13.793  0.00  0.00    +0.000 OA
ATOM     23  H   UNL     1      51.184   7.297  14.702  0.00  0.00    +0.000 HD
ENDBRANCH  16  22
ENDBRANCH  13  19
ENDBRANCH   1  13
TORSDOF 4
ENDMDL
MODEL 6
REMARK VINA RESULT:    -6.182      3.508      6.744
REMARK INTER + INTRA:          -8.185
REMARK INTER:                  -7.868
REMARK INTRA:                  -0.317
REMARK UNBOUND:                -0.738
REMARK  Name = 
REMARK  4 active torsions:
REMARK  status: ('A' for Active; 'I' for Inactive)
REMARK    1  A    between atoms: O_1  and  C_2
REMARK    2  A    between atoms: C_5  and  C_6
REMARK    3  A    between atoms: C_6  and  C_7
REMARK    4  A    between atoms: C_11  and  C_12
REMARK                            x       y       z     vdW  Elec       q    Type
REMARK                         _______ _______ _______ _____ _____    ______ ____
ROOT
ATOM      1  C   UNL     1      45.378   5.799  12.031  0.00  0.00    +0.000 A 
ATOM      2  C   UNL     1      43.994   6.012  12.119  0.00  0.00    +0.000 A 
ATOM      3  C   UNL     1      43.113   5.405  11.228  0.00  0.00    +0.000 A 
ATOM      4  C   UNL     1      43.601   4.559  10.230  0.00  0.00    +0.000 A 
ATOM      5  C   UNL     1      44.971   4.268  10.133  0.00  0.00    +0.000 A 
ATOM      6  C   UNL     1      45.831   4.868  11.073  0.00  0.00    +0.000 A 
ENDROOT
BRANCH   5   7
ATOM      7  C   UNL     1      45.507   3.436   9.037  0.00  0.00    +0.000 A 
ATOM      8  C   UNL     1      46.010   4.006   7.858  0.00  0.00    +0.000 A 
ATOM      9  C   UNL     1      46.544   3.202   6.852  0.00  0.00    +0.000 A 
ATOM     10  C   UNL     1      46.573   1.835   7.052  0.00  0.00    +0.000 A 
ATOM     11  N   UNL     1      46.110   1.233   8.165  0.00  0.00    +0.000 NA
ATOM     12  C   UNL     1      45.587   2.045   9.121  0.00  0.00    +0.000 A 
ENDBRANCH   5   7
BRANCH   1  13
ATOM     13  C   UNL     1      46.363   6.673  12.813  0.00  0.00    +0.000 C 
ATOM     14  C   UNL     1      47.093   7.770  12.030  0.00  0.00    +0.000 C 
ATOM     15  C   UNL     1      45.963   8.150  12.921  0.00  0.00    +0.000 C 
BRANCH  13  19
ATOM     16  C   UNL     1      48.314   5.003  16.326  0.00  0.00    +0.000 A 
ATOM     17  C   UNL     1      48.776   6.197  15.788  0.00  0.00    +0.000 A 
ATOM     18  C   UNL     1      48.170   6.715  14.635  0.00  0.00    +0.000 A 
ATOM     19  C   UNL     1      47.093   6.059  14.011  0.00  0.00    +0.000 A 
ATOM     20  C   UNL     1      46.671   4.841  14.574  0.00  0.00    +0.000 A 
ATOM     21  C   UNL     1      47.270   4.316  15.722  0.00  0.00    +0.000 A 
BRANCH  16  22
ATOM     22  O   UNL     1      48.854   4.471  17.457  0.00  0.00    +0.000 OA
ATOM     23  H   UNL     1      48.399   3.636  17.656  0.00  0.00    +0.000 HD
ENDBRANCH  16  22
ENDBRANCH  13  19
ENDBRANCH   1  13
TORSDOF 4
ENDMDL
MODEL 7
REMARK VINA RESULT:    -6.068      4.006      6.894
REMARK INTER + INTRA:          -8.048
REMARK INTER:                  -7.938
REMARK INTRA:                  -0.110
REMARK UNBOUND:                -0.738
REMARK  Name = 
REMARK  4 active torsions:
REMARK  status: ('A' for Active; 'I' for Inactive)
REMARK    1  A    between atoms: O_1  and  C_2
REMARK    2  A    between atoms: C_5  and  C_6
REMARK    3  A    between atoms: C_6  and  C_7
REMARK    4  A    between atoms: C_11  and  C_12
REMARK                            x       y       z     vdW  Elec       q    Type
REMARK                         _______ _______ _______ _____ _____    ______ ____
ROOT
ATOM      1  C   UNL     1      44.852   6.508  11.686  0.00  0.00    +0.000 A 
ATOM      2  C   UNL     1      43.593   6.151  12.191  0.00  0.00    +0.000 A 
ATOM      3  C   UNL     1      42.923   5.022  11.727  0.00  0.00    +0.000 A 
ATOM      4  C   UNL     1      43.508   4.216  10.749  0.00  0.00    +0.000 A 
ATOM      5  C   UNL     1      44.791   4.496  10.251  0.00  0.00    +0.000 A 
ATOM      6  C   UNL     1      45.456   5.623  10.768  0.00  0.00    +0.000 A 
ENDROOT
BRANCH   5   7
ATOM      7  C   UNL     1      45.387   3.696   9.163  0.00  0.00    +0.000 A 
ATOM      8  C   UNL     1      45.994   4.299   8.051  0.00  0.00    +0.000 A 
ATOM      9  C   UNL     1      46.582   3.522   7.055  0.00  0.00    +0.000 A 
ATOM     10  C   UNL     1      46.561   2.147   7.197  0.00  0.00    +0.000 A 
ATOM     11  N   UNL     1      45.998   1.513   8.244  0.00  0.00    +0.000 NA
ATOM     12  C   UNL     1      45.424   2.300   9.192  0.00  0.00    +0.000 A 
ENDBRANCH   5   7
BRANCH   1  13
ATOM     13  C   UNL     1      45.460   7.883  11.979  0.00  0.00    +0.000 C 
ATOM     14  C   UNL     1      46.256   8.027  13.281  0.00  0.00    +0.000 C 
ATOM     15  C   UNL     1      46.994   7.914  11.994  0.00  0.00    +0.000 C 
BRANCH  13  19
ATOM     16  C   UNL     1      43.326  11.427  10.632  0.00  0.00    +0.000 A 
ATOM     17  C   UNL     1      42.885  10.170  10.238  0.00  0.00    +0.000 A 
ATOM     18  C   UNL     1      43.595   9.031  10.643  0.00  0.00    +0.000 A 
ATOM     19  C   UNL     1      44.743   9.127  11.451  0.00  0.00    +0.000 A 
ATOM     20  C   UNL     1      45.169  10.420  11.809  0.00  0.00    +0.000 A 
ATOM     21  C   UNL     1      44.469  11.560  11.409  0.00  0.00    +0.000 A 
BRANCH  16  22
ATOM     22  O   UNL     1      42.659  12.562  10.284  0.00  0.00    +0.000 OA
ATOM     23  H   UNL     1      43.009  13.301  10.807  0.00  0.00    +0.000 HD
ENDBRANCH  16  22
ENDBRANCH  13  19
ENDBRANCH   1  13
TORSDOF 4
ENDMDL
MODEL 8
REMARK VINA RESULT:    -6.061      3.658      5.814
REMARK INTER + INTRA:          -8.040
REMARK INTER:                  -7.423
REMARK INTRA:                  -0.617
REMARK UNBOUND:                -0.738
REMARK  Name = 
REMARK  4 active torsions:
REMARK  status: ('A' for Active; 'I' for Inactive)
REMARK    1  A    between atoms: O_1  and  C_2
REMARK    2  A    between atoms: C_5  and  C_6
REMARK    3  A    between atoms: C_6  and  C_7
REMARK    4  A    between atoms: C_11  and  C_12
REMARK                            x       y       z     vdW  Elec       q    Type
REMARK                         _______ _______ _______ _____ _____    ______ ____
ROOT
ATOM      1  C   UNL     1      46.379   8.828  12.194  0.00  0.00    +0.000 A 
ATOM      2  C   UNL     1      47.412   9.761  12.015  0.00  0.00    +0.000 A 
ATOM      3  C   UNL     1      47.147  11.054  11.572  0.00  0.00    +0.000 A 
ATOM      4  C   UNL     1      45.833  11.446  11.308  0.00  0.00    +0.000 A 
ATOM      5  C   UNL     1      44.758  10.570  11.524  0.00  0.00    +0.000 A 
ATOM      6  C   UNL     1      45.057   9.282  12.007  0.00  0.00    +0.000 A 
ENDROOT
BRANCH   5   7
ATOM      7  C   UNL     1      43.374  10.947  11.176  0.00  0.00    +0.000 A 
ATOM      8  C   UNL     1      42.438   9.997  10.738  0.00  0.00    +0.000 A 
ATOM      9  C   UNL     1      41.127  10.373  10.450  0.00  0.00    +0.000 A 
ATOM     10  C   UNL     1      40.772  11.698  10.617  0.00  0.00    +0.000 A 
ATOM     11  N   UNL     1      41.626  12.652  11.039  0.00  0.00    +0.000 NA
ATOM     12  C   UNL     1      42.899  12.254  11.301  0.00  0.00    +0.000 A 
ENDBRANCH   5   7
BRANCH   1  13
ATOM     13  C   UNL     1      46.685   7.341  12.402  0.00  0.00    +0.000 C 
ATOM     14  C   UNL     1      48.143   6.902  12.235  0.00  0.00    +0.000 C 
ATOM     15  C   UNL     1      47.584   7.036  13.607  0.00  0.00    +0.000 C 
BRANCH  13  19
ATOM     16  C   UNL     1      43.702   4.301  11.515  0.00  0.00    +0.000 A 
ATOM     17  C   UNL     1      44.581   4.709  10.521  0.00  0.00    +0.000 A 
ATOM     18  C   UNL     1      45.518   5.714  10.798  0.00  0.00    +0.000 A 
ATOM     19  C   UNL     1      45.598   6.318  12.066  0.00  0.00    +0.000 A 
ATOM     20  C   UNL     1      44.673   5.892  13.038  0.00  0.00    +0.000 A 
ATOM     21  C   UNL     1      43.735   4.892  12.771  0.00  0.00    +0.000 A 
BRANCH  16  22
ATOM     22  O   UNL     1      42.789   3.312  11.303  0.00  0.00    +0.000 OA
ATOM     23  H   UNL     1      41.972   3.711  10.964  0.00  0.00    +0.000 HD
ENDBRANCH  16  22
ENDBRANCH  13  19
ENDBRANCH   1  13
TORSDOF 4
ENDMDL
MODEL 9
REMARK VINA RESULT:    -5.880      3.762      6.489
REMARK INTER + INTRA:          -7.821
REMARK INTER:                  -7.083
REMARK INTRA:                  -0.739
REMARK UNBOUND:                -0.738
REMARK  Name = 
REMARK  4 active torsions:
REMARK  status: ('A' for Active; 'I' for Inactive)
REMARK    1  A    between atoms: O_1  and  C_2
REMARK    2  A    between atoms: C_5  and  C_6
REMARK    3  A    between atoms: C_6  and  C_7
REMARK    4  A    between atoms: C_11  and  C_12
REMARK                            x       y       z     vdW  Elec       q    Type
REMARK                         _______ _______ _______ _____ _____    ______ ____
ROOT
ATOM      1  C   UNL     1      48.961   7.935  14.025  0.00  0.00    +0.000 A 
ATOM      2  C   UNL     1      49.287   9.005  14.871  0.00  0.00    +0.000 A 
ATOM      3  C   UNL     1      49.337   8.843  16.253  0.00  0.00    +0.000 A 
ATOM      4  C   UNL     1      49.069   7.596  16.819  0.00  0.00    +0.000 A 
ATOM      5  C   UNL     1      48.793   6.478  16.015  0.00  0.00    +0.000 A 
ATOM      6  C   UNL     1      48.787   6.668  14.620  0.00  0.00    +0.000 A 
ENDROOT
BRANCH   5   7
ATOM      7  C   UNL     1      48.434   5.174  16.605  0.00  0.00    +0.000 A 
ATOM      8  C   UNL     1      49.303   4.491  17.469  0.00  0.00    +0.000 A 
ATOM      9  C   UNL     1      48.927   3.277  18.042  0.00  0.00    +0.000 A 
ATOM     10  C   UNL     1      47.674   2.773  17.747  0.00  0.00    +0.000 A 
ATOM     11  N   UNL     1      46.796   3.387  16.930  0.00  0.00    +0.000 NA
ATOM     12  C   UNL     1      47.199   4.563  16.380  0.00  0.00    +0.000 A 
ENDBRANCH   5   7
BRANCH   1  13
ATOM     13  C   UNL     1      48.629   8.168  12.548  0.00  0.00    +0.000 C 
ATOM     14  C   UNL     1      49.454   9.227  11.809  0.00  0.00    +0.000 C 
ATOM     15  C   UNL     1      49.750   7.788  11.572  0.00  0.00    +0.000 C 
BRANCH  13  19
ATOM     16  C   UNL     1      44.491   7.500  11.382  0.00  0.00    +0.000 A 
ATOM     17  C   UNL     1      45.402   6.456  11.301  0.00  0.00    +0.000 A 
ATOM     18  C   UNL     1      46.743   6.682  11.643  0.00  0.00    +0.000 A 
ATOM     19  C   UNL     1      47.190   7.943  12.077  0.00  0.00    +0.000 A 
ATOM     20  C   UNL     1      46.239   8.980  12.122  0.00  0.00    +0.000 A 
ATOM     21  C   UNL     1      44.902   8.764  11.782  0.00  0.00    +0.000 A 
BRANCH  16  22
ATOM     22  O   UNL     1      43.173   7.325  11.083  0.00  0.00    +0.000 OA
ATOM     23  H   UNL     1      43.087   7.187  10.126  0.00  0.00    +0.000 HD
ENDBRANCH  16  22
ENDBRANCH  13  19
ENDBRANCH   1  13
TORSDOF 4
ENDMDL
