MODEL 1
REMARK VINA RESULT:    -8.053      0.000      0.000
REMARK INTER + INTRA:         -10.944
REMARK INTER:                 -10.407
REMARK INTRA:                  -0.537
REMARK UNBOUND:                -0.537
REMARK  Name = 
REMARK  5 active torsions:
REMARK  status: ('A' for Active; 'I' for Inactive)
REMARK    1  A    between atoms: C_2  and  C_18
REMARK    2  A    between atoms: N_3  and  C_4
REMARK    3  A    between atoms: C_4  and  C_5
REMARK    4  A    between atoms: C_8  and  C_9
REMARK    5  A    between atoms: C_9  and  N_10
REMARK                            x       y       z     vdW  Elec       q    Type
REMARK                         _______ _______ _______ _____ _____    ______ ____
ROOT
ATOM      1  O   UNL     1      46.346   3.379  13.661  0.00  0.00    +0.000 OA
ATOM      2  C   UNL     1      46.249   4.587  13.854  0.00  0.00    +0.000 C 
ATOM      3  N   UNL     1      45.115   5.296  13.539  0.00  0.00    +0.000 N 
ATOM      4  H   UNL     1      45.156   6.309  13.525  0.00  0.00    +0.000 HD
ENDROOT
BRANCH   2   5
ATOM      5  C   UNL     1      47.336   5.352  14.480  0.00  0.00    +0.000 A 
ATOM      6  C   UNL     1      47.986   6.355  13.777  0.00  0.00    +0.000 A 
ATOM      7  S   UNL     1      49.224   7.120  14.673  0.00  0.00    +0.000 S 
ATOM      8  C   UNL     1      48.901   6.169  16.043  0.00  0.00    +0.000 A 
ATOM      9  N   UNL     1      49.596   6.334  17.199  0.00  0.00    +0.000 NA
ATOM     10  C   UNL     1      49.215   5.570  18.170  0.00  0.00    +0.000 A 
ATOM     11  N   UNL     1      48.207   4.649  18.085  0.00  0.00    +0.000 N 
ATOM     12  C   UNL     1      47.509   4.411  16.932  0.00  0.00    +0.000 A 
ATOM     13  O   UNL     1      46.660   3.526  16.869  0.00  0.00    +0.000 OA
ATOM     14  C   UNL     1      47.878   5.259  15.813  0.00  0.00    +0.000 A 
ATOM     15  H   UNL     1      47.965   4.066  18.876  0.00  0.00    +0.000 HD
ENDBRANCH   2   5
BRANCH   3  16
ATOM     16  C   UNL     1      44.043   4.691  12.790  0.00  0.00    +0.000 C 
BRANCH  16  17
ATOM     17  C   UNL     1      44.461   4.358  11.378  0.00  0.00    +0.000 A 
ATOM     18  C   UNL     1      44.162   3.099  10.841  0.00  0.00    +0.000 A 
ATOM     19  C   UNL     1      44.475   2.790   9.513  0.00  0.00    +0.000 A 
ATOM     20  C   UNL     1      45.098   3.730   8.683  0.00  0.00    +0.000 A 
ATOM     21  C   UNL     1      45.468   4.964   9.245  0.00  0.00    +0.000 A 
ATOM     22  C   UNL     1      45.157   5.274  10.579  0.00  0.00    +0.000 A 
BRANCH  20  23
ATOM     23  C   UNL     1      45.434   3.382   7.248  0.00  0.00    +0.000 C 
BRANCH  23  24
ATOM     24  N   UNL     1      46.799   2.987   6.904  0.00  0.00    +0.000 NA
ATOM     25  C   UNL     1      47.205   3.130   5.505  0.00  0.00    +0.000 C 
ATOM     26  C   UNL     1      46.990   1.870   4.654  0.00  0.00    +0.000 C 
ATOM     27  O   UNL     1      47.620   0.723   5.238  0.00  0.00    +0.000 OA
ATOM     28  C   UNL     1      47.179   0.495   6.580  0.00  0.00    +0.000 C 
ATOM     29  C   UNL     1      47.319   1.741   7.471  0.00  0.00    +0.000 C 
ENDBRANCH  23  24
ENDBRANCH  20  23
ENDBRANCH  16  17
ENDBRANCH   3  16
TORSDOF 5
ENDMDL
MODEL 2
REMARK VINA RESULT:    -7.464      1.556      2.494
REMARK INTER + INTRA:         -10.183
REMARK INTER:                  -9.673
REMARK INTRA:                  -0.511
REMARK UNBOUND:                -0.537
REMARK  Name = 
REMARK  5 active torsions:
REMARK  status: ('A' for Active; 'I' for Inactive)
REMARK    1  A    between atoms: C_2  and  C_18
REMARK    2  A    between atoms: N_3  and  C_4
REMARK    3  A    between atoms: C_4  and  C_5
REMARK    4  A    between atoms: C_8  and  C_9
REMARK    5  A    between atoms: C_9  and  N_10
REMARK                            x       y       z     vdW  Elec       q    Type
REMARK                         _______ _______ _______ _____ _____    ______ ____
ROOT
ATOM      1  O   UNL     1      46.508   3.204  13.649  0.00  0.00    +0.000 OA
ATOM      2  C   UNL     1      46.322   4.408  13.795  0.00  0.00    +0.000 C 
ATOM      3  N   UNL     1      45.149   5.023  13.429  0.00  0.00    +0.000 N 
ATOM      4  H   UNL     1      45.119   6.035  13.377  0.00  0.00    +0.000 HD
ENDROOT
BRANCH   2   5
ATOM      5  C   UNL     1      47.337   5.270  14.415  0.00  0.00    +0.000 A 
ATOM      6  C   UNL     1      47.748   5.047  15.720  0.00  0.00    +0.000 A 
ATOM      7  S   UNL     1      48.928   6.158  16.261  0.00  0.00    +0.000 S 
ATOM      8  C   UNL     1      48.963   6.944  14.755  0.00  0.00    +0.000 A 
ATOM      9  N   UNL     1      49.798   7.990  14.522  0.00  0.00    +0.000 NA
ATOM     10  C   UNL     1      49.746   8.463  13.320  0.00  0.00    +0.000 A 
ATOM     11  N   UNL     1      48.925   7.989  12.333  0.00  0.00    +0.000 N 
ATOM     12  C   UNL     1      48.033   6.970  12.530  0.00  0.00    +0.000 A 
ATOM     13  O   UNL     1      47.260   6.617  11.644  0.00  0.00    +0.000 OA
ATOM     14  C   UNL     1      48.065   6.382  13.857  0.00  0.00    +0.000 A 
ATOM     15  H   UNL     1      48.916   8.413  11.414  0.00  0.00    +0.000 HD
ENDBRANCH   2   5
BRANCH   3  16
ATOM     16  C   UNL     1      44.141   4.317  12.680  0.00  0.00    +0.000 C 
BRANCH  16  17
ATOM     17  C   UNL     1      44.561   4.086  11.248  0.00  0.00    +0.000 A 
ATOM     18  C   UNL     1      44.446   2.807  10.686  0.00  0.00    +0.000 A 
ATOM     19  C   UNL     1      44.761   2.582   9.341  0.00  0.00    +0.000 A 
ATOM     20  C   UNL     1      45.204   3.626   8.521  0.00  0.00    +0.000 A 
ATOM     21  C   UNL     1      45.395   4.890   9.107  0.00  0.00    +0.000 A 
ATOM     22  C   UNL     1      45.081   5.116  10.456  0.00  0.00    +0.000 A 
BRANCH  20  23
ATOM     23  C   UNL     1      45.546   3.368   7.069  0.00  0.00    +0.000 C 
BRANCH  23  24
ATOM     24  N   UNL     1      46.888   2.909   6.715  0.00  0.00    +0.000 NA
ATOM     25  C   UNL     1      47.263   2.958   5.301  0.00  0.00    +0.000 C 
ATOM     26  C   UNL     1      46.986   1.660   4.530  0.00  0.00    +0.000 C 
ATOM     27  O   UNL     1      47.595   0.528   5.164  0.00  0.00    +0.000 OA
ATOM     28  C   UNL     1      47.182   0.392   6.527  0.00  0.00    +0.000 C 
ATOM     29  C   UNL     1      47.384   1.681   7.341  0.00  0.00    +0.000 C 
ENDBRANCH  23  24
ENDBRANCH  20  23
ENDBRANCH  16  17
ENDBRANCH   3  16
TORSDOF 5
ENDMDL
MODEL 3
REMARK VINA RESULT:    -7.127      3.652      5.196
REMARK INTER + INTRA:          -9.747
REMARK INTER:                  -8.520
REMARK INTRA:                  -1.228
REMARK UNBOUND:                -0.537
REMARK  Name = 
REMARK  5 active torsions:
REMARK  status: ('A' for Active; 'I' for Inactive)
REMARK    1  A    between atoms: C_2  and  C_18
REMARK    2  A    between atoms: N_3  and  C_4
REMARK    3  A    between atoms: C_4  and  C_5
REMARK    4  A    between atoms: C_8  and  C_9
REMARK    5  A    between atoms: C_9  and  N_10
REMARK                            x       y       z     vdW  Elec       q    Type
REMARK                         _______ _______ _______ _____ _____    ______ ____
ROOT
ATOM      1  O   UNL     1      48.398   8.767  16.292  0.00  0.00    +0.000 OA
ATOM      2  C   UNL     1      48.821   7.641  16.045  0.00  0.00    +0.000 C 
ATOM      3  N   UNL     1      49.243   7.271  14.791  0.00  0.00    +0.000 N 
ATOM      4  H   UNL     1      49.388   6.287  14.592  0.00  0.00    +0.000 HD
ENDROOT
BRANCH   2   5
ATOM      5  C   UNL     1      48.943   6.623  17.096  0.00  0.00    +0.000 A 
ATOM      6  C   UNL     1      49.582   6.916  18.291  0.00  0.00    +0.000 A 
ATOM      7  S   UNL     1      49.627   5.601  19.380  0.00  0.00    +0.000 S 
ATOM      8  C   UNL     1      48.755   4.610  18.310  0.00  0.00    +0.000 A 
ATOM      9  N   UNL     1      48.418   3.336  18.641  0.00  0.00    +0.000 NA
ATOM     10  C   UNL     1      47.720   2.714  17.748  0.00  0.00    +0.000 A 
ATOM     11  N   UNL     1      47.336   3.251  16.549  0.00  0.00    +0.000 N 
ATOM     12  C   UNL     1      47.689   4.511  16.149  0.00  0.00    +0.000 A 
ATOM     13  O   UNL     1      47.390   4.936  15.036  0.00  0.00    +0.000 OA
ATOM     14  C   UNL     1      48.454   5.267  17.124  0.00  0.00    +0.000 A 
ATOM     15  H   UNL     1      46.804   2.708  15.881  0.00  0.00    +0.000 HD
ENDBRANCH   2   5
BRANCH   3  16
ATOM     16  C   UNL     1      49.036   8.128  13.652  0.00  0.00    +0.000 C 
BRANCH  16  17
ATOM     17  C   UNL     1      47.724   7.844  12.964  0.00  0.00    +0.000 A 
ATOM     18  C   UNL     1      47.658   6.862  11.966  0.00  0.00    +0.000 A 
ATOM     19  C   UNL     1      46.440   6.530  11.363  0.00  0.00    +0.000 A 
ATOM     20  C   UNL     1      45.253   7.171  11.736  0.00  0.00    +0.000 A 
ATOM     21  C   UNL     1      45.333   8.211  12.679  0.00  0.00    +0.000 A 
ATOM     22  C   UNL     1      46.555   8.547  13.283  0.00  0.00    +0.000 A 
BRANCH  20  23
ATOM     23  C   UNL     1      43.942   6.805  11.072  0.00  0.00    +0.000 C 
BRANCH  23  24
ATOM     24  N   UNL     1      43.272   5.559  11.442  0.00  0.00    +0.000 NA
ATOM     25  C   UNL     1      43.226   5.219  12.864  0.00  0.00    +0.000 C 
ATOM     26  C   UNL     1      44.389   4.335  13.339  0.00  0.00    +0.000 C 
ATOM     27  O   UNL     1      44.506   3.146  12.550  0.00  0.00    +0.000 OA
ATOM     28  C   UNL     1      44.644   3.439  11.156  0.00  0.00    +0.000 C 
ATOM     29  C   UNL     1      43.536   4.368  10.631  0.00  0.00    +0.000 C 
ENDBRANCH  23  24
ENDBRANCH  20  23
ENDBRANCH  16  17
ENDBRANCH   3  16
TORSDOF 5
ENDMDL
MODEL 4
REMARK VINA RESULT:    -6.962      3.997      6.705
REMARK INTER + INTRA:          -9.534
REMARK INTER:                  -8.557
REMARK INTRA:                  -0.977
REMARK UNBOUND:                -0.537
REMARK  Name = 
REMARK  5 active torsions:
REMARK  status: ('A' for Active; 'I' for Inactive)
REMARK    1  A    between atoms: C_2  and  C_18
REMARK    2  A    between atoms: N_3  and  C_4
REMARK    3  A    between atoms: C_4  and  C_5
REMARK    4  A    between atoms: C_8  and  C_9
REMARK    5  A    between atoms: C_9  and  N_10
REMARK                            x       y       z     vdW  Elec       q    Type
REMARK                         _______ _______ _______ _____ _____    ______ ____
ROOT
ATOM      1  O   UNL     1      51.948   6.103  16.577  0.00  0.00    +0.000 OA
ATOM      2  C   UNL     1      51.587   5.258  17.390  0.00  0.00    +0.000 C 
ATOM      3  N   UNL     1      50.288   5.164  17.828  0.00  0.00    +0.000 N 
ATOM      4  H   UNL     1      50.083   4.594  18.642  0.00  0.00    +0.000 HD
ENDROOT
BRANCH   2   5
ATOM      5  C   UNL     1      52.522   4.257  17.921  0.00  0.00    +0.000 A 
ATOM      6  C   UNL     1      53.668   4.652  18.593  0.00  0.00    +0.000 A 
ATOM      7  S   UNL     1      54.629   3.343  19.125  0.00  0.00    +0.000 S 
ATOM      8  C   UNL     1      53.523   2.207  18.515  0.00  0.00    +0.000 A 
ATOM      9  N   UNL     1      53.727   0.871  18.662  0.00  0.00    +0.000 NA
ATOM     10  C   UNL     1      52.784   0.127  18.185  0.00  0.00    +0.000 A 
ATOM     11  N   UNL     1      51.658   0.600  17.566  0.00  0.00    +0.000 N 
ATOM     12  C   UNL     1      51.428   1.932  17.352  0.00  0.00    +0.000 A 
ATOM     13  O   UNL     1      50.443   2.319  16.729  0.00  0.00    +0.000 OA
ATOM     14  C   UNL     1      52.445   2.818  17.890  0.00  0.00    +0.000 A 
ATOM     15  H   UNL     1      50.961  -0.034  17.197  0.00  0.00    +0.000 HD
ENDBRANCH   2   5
BRANCH   3  16
ATOM     16  C   UNL     1      49.315   6.174  17.497  0.00  0.00    +0.000 C 
BRANCH  16  17
ATOM     17  C   UNL     1      48.477   5.780  16.305  0.00  0.00    +0.000 A 
ATOM     18  C   UNL     1      48.475   6.583  15.157  0.00  0.00    +0.000 A 
ATOM     19  C   UNL     1      47.764   6.203  14.014  0.00  0.00    +0.000 A 
ATOM     20  C   UNL     1      47.030   5.012  13.986  0.00  0.00    +0.000 A 
ATOM     21  C   UNL     1      46.968   4.247  15.164  0.00  0.00    +0.000 A 
ATOM     22  C   UNL     1      47.680   4.629  16.312  0.00  0.00    +0.000 A 
BRANCH  20  23
ATOM     23  C   UNL     1      46.261   4.614  12.744  0.00  0.00    +0.000 C 
BRANCH  23  24
ATOM     24  N   UNL     1      45.318   5.559  12.147  0.00  0.00    +0.000 NA
ATOM     25  C   UNL     1      44.160   5.948  12.953  0.00  0.00    +0.000 C 
ATOM     26  C   UNL     1      42.912   5.084  12.723  0.00  0.00    +0.000 C 
ATOM     27  O   UNL     1      42.554   5.028  11.337  0.00  0.00    +0.000 OA
ATOM     28  C   UNL     1      43.636   4.563  10.522  0.00  0.00    +0.000 C 
ATOM     29  C   UNL     1      44.933   5.358  10.749  0.00  0.00    +0.000 C 
ENDBRANCH  23  24
ENDBRANCH  20  23
ENDBRANCH  16  17
ENDBRANCH   3  16
TORSDOF 5
ENDMDL
MODEL 5
REMARK VINA RESULT:    -6.871      4.400      9.342
REMARK INTER + INTRA:          -9.417
REMARK INTER:                  -8.742
REMARK INTRA:                  -0.676
REMARK UNBOUND:                -0.537
REMARK  Name = 
REMARK  5 active torsions:
REMARK  status: ('A' for Active; 'I' for Inactive)
REMARK    1  A    between atoms: C_2  and  C_18
REMARK    2  A    between atoms: N_3  and  C_4
REMARK    3  A    between atoms: C_4  and  C_5
REMARK    4  A    between atoms: C_8  and  C_9
REMARK    5  A    between atoms: C_9  and  N_10
REMARK                            x       y       z     vdW  Elec       q    Type
REMARK                         _______ _______ _______ _____ _____    ______ ____
ROOT
ATOM      1  O   UNL     1      47.325   3.124  14.098  0.00  0.00    +0.000 OA
ATOM      2  C   UNL     1      46.913   4.180  14.567  0.00  0.00    +0.000 C 
ATOM      3  N   UNL     1      46.868   4.419  15.920  0.00  0.00    +0.000 N 
ATOM      4  H   UNL     1      46.337   5.212  16.262  0.00  0.00    +0.000 HD
ENDROOT
BRANCH   2   5
ATOM      5  C   UNL     1      46.476   5.283  13.701  0.00  0.00    +0.000 A 
ATOM      6  C   UNL     1      47.300   6.376  13.484  0.00  0.00    +0.000 A 
ATOM      7  S   UNL     1      46.611   7.554  12.456  0.00  0.00    +0.000 S 
ATOM      8  C   UNL     1      45.210   6.621  12.229  0.00  0.00    +0.000 A 
ATOM      9  N   UNL     1      44.203   7.040  11.418  0.00  0.00    +0.000 NA
ATOM     10  C   UNL     1      43.218   6.211  11.308  0.00  0.00    +0.000 A 
ATOM     11  N   UNL     1      43.147   5.001  11.945  0.00  0.00    +0.000 N 
ATOM     12  C   UNL     1      44.111   4.553  12.807  0.00  0.00    +0.000 A 
ATOM     13  O   UNL     1      43.981   3.496  13.418  0.00  0.00    +0.000 OA
ATOM     14  C   UNL     1      45.255   5.435  12.950  0.00  0.00    +0.000 A 
ATOM     15  H   UNL     1      42.340   4.400  11.833  0.00  0.00    +0.000 HD
ENDBRANCH   2   5
BRANCH   3  16
ATOM     16  C   UNL     1      47.128   3.368  16.870  0.00  0.00    +0.000 C 
BRANCH  16  17
ATOM     17  C   UNL     1      48.561   3.381  17.346  0.00  0.00    +0.000 A 
ATOM     18  C   UNL     1      49.449   2.389  16.911  0.00  0.00    +0.000 A 
ATOM     19  C   UNL     1      50.798   2.419  17.280  0.00  0.00    +0.000 A 
ATOM     20  C   UNL     1      51.298   3.438  18.098  0.00  0.00    +0.000 A 
ATOM     21  C   UNL     1      50.391   4.387  18.599  0.00  0.00    +0.000 A 
ATOM     22  C   UNL     1      49.036   4.357  18.231  0.00  0.00    +0.000 A 
BRANCH  20  23
ATOM     23  C   UNL     1      52.760   3.456  18.493  0.00  0.00    +0.000 C 
BRANCH  23  24
ATOM     24  N   UNL     1      53.712   4.226  17.695  0.00  0.00    +0.000 NA
ATOM     25  C   UNL     1      55.054   4.414  18.248  0.00  0.00    +0.000 C 
ATOM     26  C   UNL     1      55.223   5.701  19.069  0.00  0.00    +0.000 C 
ATOM     27  O   UNL     1      54.829   6.859  18.324  0.00  0.00    +0.000 OA
ATOM     28  C   UNL     1      53.486   6.754  17.840  0.00  0.00    +0.000 C 
ATOM     29  C   UNL     1      53.238   5.455  17.054  0.00  0.00    +0.000 C 
ENDBRANCH  23  24
ENDBRANCH  20  23
ENDBRANCH  16  17
ENDBRANCH   3  16
TORSDOF 5
ENDMDL
MODEL 6
REMARK VINA RESULT:    -6.760      4.477     10.238
REMARK INTER + INTRA:          -9.273
REMARK INTER:                  -8.589
REMARK INTRA:                  -0.684
REMARK UNBOUND:                -0.537
REMARK  Name = 
REMARK  5 active torsions:
REMARK  status: ('A' for Active; 'I' for Inactive)
REMARK    1  A    between atoms: C_2  and  C_18
REMARK    2  A    between atoms: N_3  and  C_4
REMARK    3  A    between atoms: C_4  and  C_5
REMARK    4  A    between atoms: C_8  and  C_9
REMARK    5  A    between atoms: C_9  and  N_10
REMARK                            x       y       z     vdW  Elec       q    Type
REMARK                         _______ _______ _______ _____ _____    ______ ____
ROOT
ATOM      1  O   UNL     1      47.236   3.250  13.869  0.00  0.00    +0.000 OA
ATOM      2  C   UNL     1      46.802   4.300  14.333  0.00  0.00    +0.000 C 
ATOM      3  N   UNL     1      46.935   4.629  15.660  0.00  0.00    +0.000 N 
ATOM      4  H   UNL     1      46.389   5.398  16.033  0.00  0.00    +0.000 HD
ENDROOT
BRANCH   2   5
ATOM      5  C   UNL     1      46.144   5.299  13.481  0.00  0.00    +0.000 A 
ATOM      6  C   UNL     1      46.794   6.476  13.146  0.00  0.00    +0.000 A 
ATOM      7  S   UNL     1      45.862   7.510  12.156  0.00  0.00    +0.000 S 
ATOM      8  C   UNL     1      44.577   6.399  12.105  0.00  0.00    +0.000 A 
ATOM      9  N   UNL     1      43.451   6.653  11.389  0.00  0.00    +0.000 NA
ATOM     10  C   UNL     1      42.575   5.702  11.408  0.00  0.00    +0.000 A 
ATOM     11  N   UNL     1      42.723   4.523  12.087  0.00  0.00    +0.000 N 
ATOM     12  C   UNL     1      43.817   4.239  12.860  0.00  0.00    +0.000 A 
ATOM     13  O   UNL     1      43.885   3.202  13.514  0.00  0.00    +0.000 OA
ATOM     14  C   UNL     1      44.846   5.263  12.855  0.00  0.00    +0.000 A 
ATOM     15  H   UNL     1      41.994   3.821  12.078  0.00  0.00    +0.000 HD
ENDBRANCH   2   5
BRANCH   3  16
ATOM     16  C   UNL     1      47.427   3.673  16.619  0.00  0.00    +0.000 C 
BRANCH  16  17
ATOM     17  C   UNL     1      47.689   4.308  17.964  0.00  0.00    +0.000 A 
ATOM     18  C   UNL     1      48.672   3.773  18.807  0.00  0.00    +0.000 A 
ATOM     19  C   UNL     1      48.983   4.385  20.027  0.00  0.00    +0.000 A 
ATOM     20  C   UNL     1      48.320   5.545  20.440  0.00  0.00    +0.000 A 
ATOM     21  C   UNL     1      47.280   6.035  19.631  0.00  0.00    +0.000 A 
ATOM     22  C   UNL     1      46.965   5.421  18.408  0.00  0.00    +0.000 A 
BRANCH  20  23
ATOM     23  C   UNL     1      48.664   6.195  21.764  0.00  0.00    +0.000 C 
BRANCH  23  24
ATOM     24  N   UNL     1      49.484   7.405  21.780  0.00  0.00    +0.000 NA
ATOM     25  C   UNL     1      48.788   8.685  21.921  0.00  0.00    +0.000 C 
ATOM     26  C   UNL     1      48.428   9.357  20.588  0.00  0.00    +0.000 C 
ATOM     27  O   UNL     1      49.577   9.509  19.745  0.00  0.00    +0.000 OA
ATOM     28  C   UNL     1      50.236   8.260  19.508  0.00  0.00    +0.000 C 
ATOM     29  C   UNL     1      50.574   7.511  20.808  0.00  0.00    +0.000 C 
ENDBRANCH  23  24
ENDBRANCH  20  23
ENDBRANCH  16  17
ENDBRANCH   3  16
TORSDOF 5
ENDMDL
MODEL 7
REMARK VINA RESULT:    -6.536      3.731      9.997
REMARK INTER + INTRA:          -8.983
REMARK INTER:                  -8.169
REMARK INTRA:                  -0.814
REMARK UNBOUND:                -0.537
REMARK  Name = 
REMARK  5 active torsions:
REMARK  status: ('A' for Active; 'I' for Inactive)
REMARK    1  A    between atoms: C_2  and  C_18
REMARK    2  A    between atoms: N_3  and  C_4
REMARK    3  A    between atoms: C_4  and  C_5
REMARK    4  A    between atoms: C_8  and  C_9
REMARK    5  A    between atoms: C_9  and  N_10
REMARK                            x       y       z     vdW  Elec       q    Type
REMARK                         _______ _______ _______ _____ _____    ______ ____
ROOT
ATOM      1  O   UNL     1      48.467   5.769  14.128  0.00  0.00    +0.000 OA
ATOM      2  C   UNL     1      47.308   5.368  14.169  0.00  0.00    +0.000 C 
ATOM      3  N   UNL     1      46.861   4.507  15.142  0.00  0.00    +0.000 N 
ATOM      4  H   UNL     1      45.965   4.047  15.018  0.00  0.00    +0.000 HD
ENDROOT
BRANCH   2   5
ATOM      5  C   UNL     1      46.307   5.819  13.195  0.00  0.00    +0.000 A 
ATOM      6  C   UNL     1      46.132   7.171  12.940  0.00  0.00    +0.000 A 
ATOM      7  S   UNL     1      44.916   7.493  11.784  0.00  0.00    +0.000 S 
ATOM      8  C   UNL     1      44.616   5.837  11.551  0.00  0.00    +0.000 A 
ATOM      9  N   UNL     1      43.691   5.405  10.654  0.00  0.00    +0.000 NA
ATOM     10  C   UNL     1      43.598   4.119  10.554  0.00  0.00    +0.000 A 
ATOM     11  N   UNL     1      44.341   3.227  11.279  0.00  0.00    +0.000 N 
ATOM     12  C   UNL     1      45.250   3.611  12.228  0.00  0.00    +0.000 A 
ATOM     13  O   UNL     1      45.848   2.785  12.912  0.00  0.00    +0.000 OA
ATOM     14  C   UNL     1      45.415   5.047  12.366  0.00  0.00    +0.000 A 
ATOM     15  H   UNL     1      44.211   2.230  11.169  0.00  0.00    +0.000 HD
ENDBRANCH   2   5
BRANCH   3  16
ATOM     16  C   UNL     1      47.777   3.880  16.061  0.00  0.00    +0.000 C 
BRANCH  16  17
ATOM     17  C   UNL     1      48.060   4.754  17.258  0.00  0.00    +0.000 A 
ATOM     18  C   UNL     1      49.371   5.175  17.521  0.00  0.00    +0.000 A 
ATOM     19  C   UNL     1      49.649   6.042  18.583  0.00  0.00    +0.000 A 
ATOM     20  C   UNL     1      48.627   6.512  19.415  0.00  0.00    +0.000 A 
ATOM     21  C   UNL     1      47.325   6.027  19.200  0.00  0.00    +0.000 A 
ATOM     22  C   UNL     1      47.045   5.154  18.136  0.00  0.00    +0.000 A 
BRANCH  20  23
ATOM     23  C   UNL     1      48.942   7.448  20.563  0.00  0.00    +0.000 C 
BRANCH  23  24
ATOM     24  N   UNL     1      49.039   8.886  20.314  0.00  0.00    +0.000 NA
ATOM     25  C   UNL     1      48.197   9.765  21.126  0.00  0.00    +0.000 C 
ATOM     26  C   UNL     1      46.836  10.092  20.495  0.00  0.00    +0.000 C 
ATOM     27  O   UNL     1      46.980  10.627  19.174  0.00  0.00    +0.000 OA
ATOM     28  C   UNL     1      47.723   9.752  18.320  0.00  0.00    +0.000 C 
ATOM     29  C   UNL     1      49.077   9.342  18.923  0.00  0.00    +0.000 C 
ENDBRANCH  23  24
ENDBRANCH  20  23
ENDBRANCH  16  17
ENDBRANCH   3  16
TORSDOF 5
ENDMDL
MODEL 8
REMARK VINA RESULT:    -6.523      3.022      9.098
REMARK INTER + INTRA:          -8.966
REMARK INTER:                  -7.964
REMARK INTRA:                  -1.003
REMARK UNBOUND:                -0.537
REMARK  Name = 
REMARK  5 active torsions:
REMARK  status: ('A' for Active; 'I' for Inactive)
REMARK    1  A    between atoms: C_2  and  C_18
REMARK    2  A    between atoms: N_3  and  C_4
REMARK    3  A    between atoms: C_4  and  C_5
REMARK    4  A    between atoms: C_8  and  C_9
REMARK    5  A    between atoms: C_9  and  N_10
REMARK                            x       y       z     vdW  Elec       q    Type
REMARK                         _______ _______ _______ _____ _____    ______ ____
ROOT
ATOM      1  O   UNL     1      45.040   7.500  12.481  0.00  0.00    +0.000 OA
ATOM      2  C   UNL     1      45.686   6.537  12.080  0.00  0.00    +0.000 C 
ATOM      3  N   UNL     1      47.049   6.582  11.913  0.00  0.00    +0.000 N 
ATOM      4  H   UNL     1      47.506   5.842  11.391  0.00  0.00    +0.000 HD
ENDROOT
BRANCH   2   5
ATOM      5  C   UNL     1      45.042   5.250  11.790  0.00  0.00    +0.000 A 
ATOM      6  C   UNL     1      44.308   4.594  12.766  0.00  0.00    +0.000 A 
ATOM      7  S   UNL     1      43.645   3.110  12.238  0.00  0.00    +0.000 S 
ATOM      8  C   UNL     1      44.276   3.318  10.674  0.00  0.00    +0.000 A 
ATOM      9  N   UNL     1      44.051   2.406   9.693  0.00  0.00    +0.000 NA
ATOM     10  C   UNL     1      44.557   2.714   8.544  0.00  0.00    +0.000 A 
ATOM     11  N   UNL     1      45.278   3.850   8.292  0.00  0.00    +0.000 N 
ATOM     12  C   UNL     1      45.573   4.776   9.256  0.00  0.00    +0.000 A 
ATOM     13  O   UNL     1      46.284   5.747   9.013  0.00  0.00    +0.000 OA
ATOM     14  C   UNL     1      45.007   4.493  10.563  0.00  0.00    +0.000 A 
ATOM     15  H   UNL     1      45.665   4.029   7.374  0.00  0.00    +0.000 HD
ENDBRANCH   2   5
BRANCH   3  16
ATOM     16  C   UNL     1      47.772   7.824  12.022  0.00  0.00    +0.000 C 
BRANCH  16  17
ATOM     17  C   UNL     1      48.393   7.996  13.387  0.00  0.00    +0.000 A 
ATOM     18  C   UNL     1      47.783   8.834  14.330  0.00  0.00    +0.000 A 
ATOM     19  C   UNL     1      48.299   8.955  15.625  0.00  0.00    +0.000 A 
ATOM     20  C   UNL     1      49.441   8.247  16.014  0.00  0.00    +0.000 A 
ATOM     21  C   UNL     1      50.098   7.470  15.044  0.00  0.00    +0.000 A 
ATOM     22  C   UNL     1      49.583   7.349  13.743  0.00  0.00    +0.000 A 
BRANCH  20  23
ATOM     23  C   UNL     1      49.991   8.390  17.417  0.00  0.00    +0.000 C 
BRANCH  23  24
ATOM     24  N   UNL     1      49.721   7.348  18.406  0.00  0.00    +0.000 NA
ATOM     25  C   UNL     1      50.746   6.321  18.594  0.00  0.00    +0.000 C 
ATOM     26  C   UNL     1      50.552   5.070  17.725  0.00  0.00    +0.000 C 
ATOM     27  O   UNL     1      49.248   4.504  17.896  0.00  0.00    +0.000 OA
ATOM     28  C   UNL     1      48.212   5.455  17.632  0.00  0.00    +0.000 C 
ATOM     29  C   UNL     1      48.382   6.756  18.435  0.00  0.00    +0.000 C 
ENDBRANCH  23  24
ENDBRANCH  20  23
ENDBRANCH  16  17
ENDBRANCH   3  16
TORSDOF 5
ENDMDL
MODEL 9
REMARK VINA RESULT:    -6.348      4.754      9.089
REMARK INTER + INTRA:          -8.741
REMARK INTER:                  -7.628
REMARK INTRA:                  -1.113
REMARK UNBOUND:                -0.537
REMARK  Name = 
REMARK  5 active torsions:
REMARK  status: ('A' for Active; 'I' for Inactive)
REMARK    1  A    between atoms: C_2  and  C_18
REMARK    2  A    between atoms: N_3  and  C_4
REMARK    3  A    between atoms: C_4  and  C_5
REMARK    4  A    between atoms: C_8  and  C_9
REMARK    5  A    between atoms: C_9  and  N_10
REMARK                            x       y       z     vdW  Elec       q    Type
REMARK                         _______ _______ _______ _____ _____    ______ ____
ROOT
ATOM      1  O   UNL     1      47.346   3.133  14.153  0.00  0.00    +0.000 OA
ATOM      2  C   UNL     1      46.972   4.199  14.632  0.00  0.00    +0.000 C 
ATOM      3  N   UNL     1      46.985   4.444  15.984  0.00  0.00    +0.000 N 
ATOM      4  H   UNL     1      46.481   5.248  16.343  0.00  0.00    +0.000 HD
ENDROOT
BRANCH   2   5
ATOM      5  C   UNL     1      46.523   5.306  13.778  0.00  0.00    +0.000 A 
ATOM      6  C   UNL     1      45.298   5.244  13.132  0.00  0.00    +0.000 A 
ATOM      7  S   UNL     1      44.960   6.623  12.182  0.00  0.00    +0.000 S 
ATOM      8  C   UNL     1      46.416   7.368  12.639  0.00  0.00    +0.000 A 
ATOM      9  N   UNL     1      46.746   8.610  12.196  0.00  0.00    +0.000 NA
ATOM     10  C   UNL     1      47.864   9.067  12.658  0.00  0.00    +0.000 A 
ATOM     11  N   UNL     1      48.686   8.389  13.517  0.00  0.00    +0.000 N 
ATOM     12  C   UNL     1      48.422   7.119  13.955  0.00  0.00    +0.000 A 
ATOM     13  O   UNL     1      49.217   6.511  14.667  0.00  0.00    +0.000 OA
ATOM     14  C   UNL     1      47.166   6.564  13.487  0.00  0.00    +0.000 A 
ATOM     15  H   UNL     1      49.558   8.793  13.831  0.00  0.00    +0.000 HD
ENDBRANCH   2   5
BRANCH   3  16
ATOM     16  C   UNL     1      47.262   3.393  16.929  0.00  0.00    +0.000 C 
BRANCH  16  17
ATOM     17  C   UNL     1      48.662   3.490  17.485  0.00  0.00    +0.000 A 
ATOM     18  C   UNL     1      49.656   2.614  17.030  0.00  0.00    +0.000 A 
ATOM     19  C   UNL     1      50.977   2.730  17.476  0.00  0.00    +0.000 A 
ATOM     20  C   UNL     1      51.342   3.721  18.394  0.00  0.00    +0.000 A 
ATOM     21  C   UNL     1      50.329   4.547  18.911  0.00  0.00    +0.000 A 
ATOM     22  C   UNL     1      49.003   4.431  18.465  0.00  0.00    +0.000 A 
BRANCH  20  23
ATOM     23  C   UNL     1      52.774   3.833  18.873  0.00  0.00    +0.000 C 
BRANCH  23  24
ATOM     24  N   UNL     1      53.615   4.924  18.381  0.00  0.00    +0.000 NA
ATOM     25  C   UNL     1      53.765   6.095  19.244  0.00  0.00    +0.000 C 
ATOM     26  C   UNL     1      52.747   7.212  18.975  0.00  0.00    +0.000 C 
ATOM     27  O   UNL     1      52.749   7.609  17.598  0.00  0.00    +0.000 OA
ATOM     28  C   UNL     1      52.514   6.503  16.721  0.00  0.00    +0.000 C 
ATOM     29  C   UNL     1      53.470   5.326  16.980  0.00  0.00    +0.000 C 
ENDBRANCH  23  24
ENDBRANCH  20  23
ENDBRANCH  16  17
ENDBRANCH   3  16
TORSDOF 5
ENDMDL
