MODEL 1
REMARK VINA RESULT:    -8.110      0.000      0.000
REMARK INTER + INTRA:         -12.270
REMARK INTER:                 -11.429
REMARK INTRA:                  -0.841
REMARK UNBOUND:                -0.841
REMARK  Name = 
REMARK  7 active torsions:
REMARK  status: ('A' for Active; 'I' for Inactive)
REMARK    1  A    between atoms: C_2  and  C_11
REMARK    2  A    between atoms: N_3  and  C_4
REMARK    3  A    between atoms: C_4  and  C_5
REMARK    4  A    between atoms: C_14  and  C_15
REMARK    5  A    between atoms: C_15  and  N_16
REMARK    6  A    between atoms: N_16  and  C_17
REMARK    7  A    between atoms: C_17  and  C_18
REMARK                            x       y       z     vdW  Elec       q    Type
REMARK                         _______ _______ _______ _____ _____    ______ ____
ROOT
ATOM      1  C   UNL     1      46.749   5.662  13.213  0.00  0.00    +0.000 A 
ATOM      2  C   UNL     1      45.718   4.785  13.560  0.00  0.00    +0.000 A 
ATOM      3  C   UNL     1      44.662   4.547  12.667  0.00  0.00    +0.000 A 
ATOM      4  C   UNL     1      44.625   5.179  11.414  0.00  0.00    +0.000 A 
ATOM      5  C   UNL     1      45.671   6.045  11.068  0.00  0.00    +0.000 A 
ATOM      6  C   UNL     1      46.729   6.278  11.953  0.00  0.00    +0.000 A 
ENDROOT
BRANCH   1   8
ATOM      7  O   UNL     1      48.885   6.462  13.849  0.00  0.00    +0.000 OA
ATOM      8  C   UNL     1      47.846   5.917  14.201  0.00  0.00    +0.000 C 
ATOM      9  N   UNL     1      47.608   5.465  15.484  0.00  0.00    +0.000 N 
ATOM     10  H   UNL     1      46.743   4.987  15.677  0.00  0.00    +0.000 HD
BRANCH   9  11
ATOM     11  C   UNL     1      48.547   5.616  16.587  0.00  0.00    +0.000 C 
BRANCH  11  12
ATOM     12  C   UNL     1      48.179   4.710  17.782  0.00  0.00    +0.000 C 
ATOM     13  C   UNL     1      49.306   4.587  18.822  0.00  0.00    +0.000 C 
ATOM     14  C   UNL     1      50.501   3.826  18.249  0.00  0.00    +0.000 C 
ATOM     15  N   UNL     1      50.117   2.470  17.858  0.00  0.00    +0.000 NA
ATOM     16  C   UNL     1      49.025   2.469  16.881  0.00  0.00    +0.000 C 
ATOM     17  C   UNL     1      47.808   3.284  17.337  0.00  0.00    +0.000 C 
ATOM     18  H   UNL     1      49.817   1.961  18.690  0.00  0.00    +0.000 HD
ENDBRANCH  11  12
ENDBRANCH   9  11
ENDBRANCH   1   8
BRANCH   4  19
ATOM     19  C   UNL     1      43.497   4.901  10.440  0.00  0.00    +0.000 C 
BRANCH  19  20
ATOM     20  N   UNL     1      44.004   4.329   9.194  0.00  0.00    +0.000 NA
ATOM     21  H   UNL     1      44.826   4.856   8.901  0.00  0.00    +0.000 HD
BRANCH  20  22
ATOM     22  C   UNL     1      44.408   2.928   9.374  0.00  0.00    +0.000 C 
BRANCH  22  23
ATOM     23  C   UNL     1      45.541   2.536   8.441  0.00  0.00    +0.000 A 
ATOM     24  C   UNL     1      46.145   3.492   7.624  0.00  0.00    +0.000 A 
ATOM     25  C   UNL     1      47.192   3.106   6.791  0.00  0.00    +0.000 A 
ATOM     26  C   UNL     1      47.604   1.779   6.787  0.00  0.00    +0.000 A 
ATOM     27  C   UNL     1      46.948   0.890   7.622  0.00  0.00    +0.000 A 
ATOM     28  N   UNL     1      45.933   1.235   8.447  0.00  0.00    +0.000 NA
ENDBRANCH  22  23
ENDBRANCH  20  22
ENDBRANCH  19  20
ENDBRANCH   4  19
TORSDOF 7
ENDMDL
MODEL 2
REMARK VINA RESULT:    -7.398      1.244      1.920
REMARK INTER + INTRA:         -11.267
REMARK INTER:                 -10.606
REMARK INTRA:                  -0.661
REMARK UNBOUND:                -0.841
REMARK  Name = 
REMARK  7 active torsions:
REMARK  status: ('A' for Active; 'I' for Inactive)
REMARK    1  A    between atoms: C_2  and  C_11
REMARK    2  A    between atoms: N_3  and  C_4
REMARK    3  A    between atoms: C_4  and  C_5
REMARK    4  A    between atoms: C_14  and  C_15
REMARK    5  A    between atoms: C_15  and  N_16
REMARK    6  A    between atoms: N_16  and  C_17
REMARK    7  A    between atoms: C_17  and  C_18
REMARK                            x       y       z     vdW  Elec       q    Type
REMARK                         _______ _______ _______ _____ _____    ______ ____
ROOT
ATOM      1  C   UNL     1      46.604   5.154  13.419  0.00  0.00    +0.000 A 
ATOM      2  C   UNL     1      46.062   6.182  12.644  0.00  0.00    +0.000 A 
ATOM      3  C   UNL     1      45.123   5.891  11.643  0.00  0.00    +0.000 A 
ATOM      4  C   UNL     1      44.712   4.571  11.406  0.00  0.00    +0.000 A 
ATOM      5  C   UNL     1      45.249   3.547  12.199  0.00  0.00    +0.000 A 
ATOM      6  C   UNL     1      46.179   3.835  13.203  0.00  0.00    +0.000 A 
ENDROOT
BRANCH   1   8
ATOM      7  O   UNL     1      48.619   6.150  14.165  0.00  0.00    +0.000 OA
ATOM      8  C   UNL     1      47.627   5.495  14.460  0.00  0.00    +0.000 C 
ATOM      9  N   UNL     1      47.380   4.994  15.722  0.00  0.00    +0.000 N 
ATOM     10  H   UNL     1      46.561   4.427  15.867  0.00  0.00    +0.000 HD
BRANCH   9  11
ATOM     11  C   UNL     1      48.251   5.213  16.869  0.00  0.00    +0.000 C 
BRANCH  11  12
ATOM     12  C   UNL     1      48.925   3.904  17.337  0.00  0.00    +0.000 C 
ATOM     13  C   UNL     1      48.395   3.398  18.690  0.00  0.00    +0.000 C 
ATOM     14  C   UNL     1      48.794   4.341  19.824  0.00  0.00    +0.000 C 
ATOM     15  N   UNL     1      50.249   4.440  19.933  0.00  0.00    +0.000 NA
ATOM     16  C   UNL     1      50.863   4.893  18.683  0.00  0.00    +0.000 C 
ATOM     17  C   UNL     1      50.451   4.052  17.469  0.00  0.00    +0.000 C 
ATOM     18  H   UNL     1      50.623   3.521  20.171  0.00  0.00    +0.000 HD
ENDBRANCH  11  12
ENDBRANCH   9  11
ENDBRANCH   1   8
BRANCH   4  19
ATOM     19  C   UNL     1      43.678   4.261  10.341  0.00  0.00    +0.000 C 
BRANCH  19  20
ATOM     20  N   UNL     1      44.224   3.376   9.314  0.00  0.00    +0.000 NA
ATOM     21  H   UNL     1      43.455   3.012   8.752  0.00  0.00    +0.000 HD
BRANCH  20  22
ATOM     22  C   UNL     1      45.137   4.097   8.416  0.00  0.00    +0.000 C 
BRANCH  22  23
ATOM     23  C   UNL     1      45.986   3.151   7.586  0.00  0.00    +0.000 A 
ATOM     24  C   UNL     1      46.317   1.886   8.073  0.00  0.00    +0.000 A 
ATOM     25  C   UNL     1      47.083   1.035   7.281  0.00  0.00    +0.000 A 
ATOM     26  C   UNL     1      47.508   1.467   6.032  0.00  0.00    +0.000 A 
ATOM     27  C   UNL     1      47.144   2.740   5.624  0.00  0.00    +0.000 A 
ATOM     28  N   UNL     1      46.395   3.587   6.366  0.00  0.00    +0.000 NA
ENDBRANCH  22  23
ENDBRANCH  20  22
ENDBRANCH  19  20
ENDBRANCH   4  19
TORSDOF 7
ENDMDL
MODEL 3
REMARK VINA RESULT:    -6.864      1.849      2.506
REMARK INTER + INTRA:         -10.514
REMARK INTER:                  -9.832
REMARK INTRA:                  -0.682
REMARK UNBOUND:                -0.841
REMARK  Name = 
REMARK  7 active torsions:
REMARK  status: ('A' for Active; 'I' for Inactive)
REMARK    1  A    between atoms: C_2  and  C_11
REMARK    2  A    between atoms: N_3  and  C_4
REMARK    3  A    between atoms: C_4  and  C_5
REMARK    4  A    between atoms: C_14  and  C_15
REMARK    5  A    between atoms: C_15  and  N_16
REMARK    6  A    between atoms: N_16  and  C_17
REMARK    7  A    between atoms: C_17  and  C_18
REMARK                            x       y       z     vdW  Elec       q    Type
REMARK                         _______ _______ _______ _____ _____    ______ ____
ROOT
ATOM      1  C   UNL     1      46.832   4.831  14.023  0.00  0.00    +0.000 A 
ATOM      2  C   UNL     1      47.222   6.007  13.378  0.00  0.00    +0.000 A 
ATOM      3  C   UNL     1      46.659   6.354  12.140  0.00  0.00    +0.000 A 
ATOM      4  C   UNL     1      45.697   5.531  11.534  0.00  0.00    +0.000 A 
ATOM      5  C   UNL     1      45.299   4.362  12.196  0.00  0.00    +0.000 A 
ATOM      6  C   UNL     1      45.853   4.018  13.433  0.00  0.00    +0.000 A 
ENDROOT
BRANCH   1   8
ATOM      7  O   UNL     1      47.627   3.302  15.647  0.00  0.00    +0.000 OA
ATOM      8  C   UNL     1      47.475   4.476  15.330  0.00  0.00    +0.000 C 
ATOM      9  N   UNL     1      47.830   5.544  16.128  0.00  0.00    +0.000 N 
ATOM     10  H   UNL     1      47.628   6.477  15.807  0.00  0.00    +0.000 HD
BRANCH   9  11
ATOM     11  C   UNL     1      48.465   5.410  17.432  0.00  0.00    +0.000 C 
BRANCH  11  12
ATOM     12  C   UNL     1      50.004   5.366  17.319  0.00  0.00    +0.000 C 
ATOM     13  C   UNL     1      50.718   5.520  18.673  0.00  0.00    +0.000 C 
ATOM     14  C   UNL     1      50.517   6.923  19.244  0.00  0.00    +0.000 C 
ATOM     15  N   UNL     1      51.066   7.936  18.342  0.00  0.00    +0.000 NA
ATOM     16  C   UNL     1      50.469   7.862  17.006  0.00  0.00    +0.000 C 
ATOM     17  C   UNL     1      50.549   6.463  16.386  0.00  0.00    +0.000 C 
ATOM     18  H   UNL     1      52.073   7.794  18.262  0.00  0.00    +0.000 HD
ENDBRANCH  11  12
ENDBRANCH   9  11
ENDBRANCH   1   8
BRANCH   4  19
ATOM     19  C   UNL     1      45.070   5.920  10.209  0.00  0.00    +0.000 C 
BRANCH  19  20
ATOM     20  N   UNL     1      45.742   5.260   9.092  0.00  0.00    +0.000 NA
ATOM     21  H   UNL     1      46.651   4.920   9.410  0.00  0.00    +0.000 HD
BRANCH  20  22
ATOM     22  C   UNL     1      44.973   4.103   8.612  0.00  0.00    +0.000 C 
BRANCH  22  23
ATOM     23  C   UNL     1      45.849   3.097   7.886  0.00  0.00    +0.000 A 
ATOM     24  C   UNL     1      46.538   3.465   6.729  0.00  0.00    +0.000 A 
ATOM     25  C   UNL     1      47.346   2.524   6.095  0.00  0.00    +0.000 A 
ATOM     26  C   UNL     1      47.440   1.243   6.623  0.00  0.00    +0.000 A 
ATOM     27  C   UNL     1      46.719   0.955   7.769  0.00  0.00    +0.000 A 
ATOM     28  N   UNL     1      45.931   1.848   8.412  0.00  0.00    +0.000 NA
ENDBRANCH  22  23
ENDBRANCH  20  22
ENDBRANCH  19  20
ENDBRANCH   4  19
TORSDOF 7
ENDMDL
MODEL 4
REMARK VINA RESULT:    -6.734      2.558      3.082
REMARK INTER + INTRA:         -10.330
REMARK INTER:                  -9.635
REMARK INTRA:                  -0.695
REMARK UNBOUND:                -0.841
REMARK  Name = 
REMARK  7 active torsions:
REMARK  status: ('A' for Active; 'I' for Inactive)
REMARK    1  A    between atoms: C_2  and  C_11
REMARK    2  A    between atoms: N_3  and  C_4
REMARK    3  A    between atoms: C_4  and  C_5
REMARK    4  A    between atoms: C_14  and  C_15
REMARK    5  A    between atoms: C_15  and  N_16
REMARK    6  A    between atoms: N_16  and  C_17
REMARK    7  A    between atoms: C_17  and  C_18
REMARK                            x       y       z     vdW  Elec       q    Type
REMARK                         _______ _______ _______ _____ _____    ______ ____
ROOT
ATOM      1  C   UNL     1      46.735   6.576  12.985  0.00  0.00    +0.000 A 
ATOM      2  C   UNL     1      46.464   5.209  13.084  0.00  0.00    +0.000 A 
ATOM      3  C   UNL     1      45.425   4.639  12.333  0.00  0.00    +0.000 A 
ATOM      4  C   UNL     1      44.647   5.426  11.470  0.00  0.00    +0.000 A 
ATOM      5  C   UNL     1      44.937   6.794  11.364  0.00  0.00    +0.000 A 
ATOM      6  C   UNL     1      45.977   7.363  12.106  0.00  0.00    +0.000 A 
ENDROOT
BRANCH   1   8
ATOM      7  O   UNL     1      48.851   6.515  14.048  0.00  0.00    +0.000 OA
ATOM      8  C   UNL     1      47.832   7.158  13.824  0.00  0.00    +0.000 C 
ATOM      9  N   UNL     1      47.587   8.417  14.333  0.00  0.00    +0.000 N 
ATOM     10  H   UNL     1      46.703   8.857  14.134  0.00  0.00    +0.000 HD
BRANCH   9  11
ATOM     11  C   UNL     1      48.525   9.154  15.169  0.00  0.00    +0.000 C 
BRANCH  11  12
ATOM     12  C   UNL     1      48.082   9.176  16.647  0.00  0.00    +0.000 C 
ATOM     13  C   UNL     1      48.536  10.439  17.400  0.00  0.00    +0.000 C 
ATOM     14  C   UNL     1      50.055  10.465  17.561  0.00  0.00    +0.000 C 
ATOM     15  N   UNL     1      50.519   9.309  18.327  0.00  0.00    +0.000 NA
ATOM     16  C   UNL     1      50.116   8.044  17.708  0.00  0.00    +0.000 C 
ATOM     17  C   UNL     1      48.611   7.961  17.430  0.00  0.00    +0.000 C 
ATOM     18  H   UNL     1      50.124   9.357  19.267  0.00  0.00    +0.000 HD
ENDBRANCH  11  12
ENDBRANCH   9  11
ENDBRANCH   1   8
BRANCH   4  19
ATOM     19  C   UNL     1      43.543   4.805  10.638  0.00  0.00    +0.000 C 
BRANCH  19  20
ATOM     20  N   UNL     1      44.055   4.309   9.363  0.00  0.00    +0.000 NA
ATOM     21  H   UNL     1      44.916   4.809   9.138  0.00  0.00    +0.000 HD
BRANCH  20  22
ATOM     22  C   UNL     1      44.372   2.876   9.433  0.00  0.00    +0.000 C 
BRANCH  22  23
ATOM     23  C   UNL     1      45.500   2.494   8.491  0.00  0.00    +0.000 A 
ATOM     24  C   UNL     1      46.105   3.460   7.684  0.00  0.00    +0.000 A 
ATOM     25  C   UNL     1      47.148   3.081   6.843  0.00  0.00    +0.000 A 
ATOM     26  C   UNL     1      47.555   1.754   6.820  0.00  0.00    +0.000 A 
ATOM     27  C   UNL     1      46.900   0.856   7.645  0.00  0.00    +0.000 A 
ATOM     28  N   UNL     1      45.889   1.192   8.478  0.00  0.00    +0.000 NA
ENDBRANCH  22  23
ENDBRANCH  20  22
ENDBRANCH  19  20
ENDBRANCH   4  19
TORSDOF 7
ENDMDL
MODEL 5
REMARK VINA RESULT:    -6.642      3.590      4.967
REMARK INTER + INTRA:         -10.201
REMARK INTER:                  -9.299
REMARK INTRA:                  -0.903
REMARK UNBOUND:                -0.841
REMARK  Name = 
REMARK  7 active torsions:
REMARK  status: ('A' for Active; 'I' for Inactive)
REMARK    1  A    between atoms: C_2  and  C_11
REMARK    2  A    between atoms: N_3  and  C_4
REMARK    3  A    between atoms: C_4  and  C_5
REMARK    4  A    between atoms: C_14  and  C_15
REMARK    5  A    between atoms: C_15  and  N_16
REMARK    6  A    between atoms: N_16  and  C_17
REMARK    7  A    between atoms: C_17  and  C_18
REMARK                            x       y       z     vdW  Elec       q    Type
REMARK                         _______ _______ _______ _____ _____    ______ ____
ROOT
ATOM      1  C   UNL     1      47.404   6.165  12.762  0.00  0.00    +0.000 A 
ATOM      2  C   UNL     1      46.824   5.192  13.579  0.00  0.00    +0.000 A 
ATOM      3  C   UNL     1      45.566   4.660  13.260  0.00  0.00    +0.000 A 
ATOM      4  C   UNL     1      44.873   5.091  12.118  0.00  0.00    +0.000 A 
ATOM      5  C   UNL     1      45.469   6.056  11.295  0.00  0.00    +0.000 A 
ATOM      6  C   UNL     1      46.727   6.582  11.607  0.00  0.00    +0.000 A 
ENDROOT
BRANCH   1   8
ATOM      7  O   UNL     1      49.186   6.552  14.273  0.00  0.00    +0.000 OA
ATOM      8  C   UNL     1      48.736   6.734  13.148  0.00  0.00    +0.000 C 
ATOM      9  N   UNL     1      49.367   7.482  12.176  0.00  0.00    +0.000 N 
ATOM     10  H   UNL     1      48.904   7.618  11.291  0.00  0.00    +0.000 HD
BRANCH   9  11
ATOM     11  C   UNL     1      50.666   8.119  12.353  0.00  0.00    +0.000 C 
BRANCH  11  12
ATOM     12  C   UNL     1      51.300   8.514  11.002  0.00  0.00    +0.000 C 
ATOM     13  C   UNL     1      52.756   8.038  10.851  0.00  0.00    +0.000 C 
ATOM     14  C   UNL     1      53.678   8.773  11.822  0.00  0.00    +0.000 C 
ATOM     15  N   UNL     1      53.660  10.213  11.569  0.00  0.00    +0.000 NA
ATOM     16  C   UNL     1      52.309  10.771  11.663  0.00  0.00    +0.000 C 
ATOM     17  C   UNL     1      51.292  10.038  10.781  0.00  0.00    +0.000 C 
ATOM     18  H   UNL     1      54.025  10.386  10.632  0.00  0.00    +0.000 HD
ENDBRANCH  11  12
ENDBRANCH   9  11
ENDBRANCH   1   8
BRANCH   4  19
ATOM     19  C   UNL     1      43.525   4.497  11.760  0.00  0.00    +0.000 C 
BRANCH  19  20
ATOM     20  N   UNL     1      43.493   4.058  10.366  0.00  0.00    +0.000 NA
ATOM     21  H   UNL     1      44.023   4.722   9.801  0.00  0.00    +0.000 HD
BRANCH  20  22
ATOM     22  C   UNL     1      44.115   2.736  10.208  0.00  0.00    +0.000 C 
BRANCH  22  23
ATOM     23  C   UNL     1      45.110   2.706   9.061  0.00  0.00    +0.000 A 
ATOM     24  C   UNL     1      45.382   3.865   8.332  0.00  0.00    +0.000 A 
ATOM     25  C   UNL     1      46.311   3.810   7.296  0.00  0.00    +0.000 A 
ATOM     26  C   UNL     1      46.938   2.605   7.008  0.00  0.00    +0.000 A 
ATOM     27  C   UNL     1      46.608   1.499   7.774  0.00  0.00    +0.000 A 
ATOM     28  N   UNL     1      45.716   1.521   8.790  0.00  0.00    +0.000 NA
ENDBRANCH  22  23
ENDBRANCH  20  22
ENDBRANCH  19  20
ENDBRANCH   4  19
TORSDOF 7
ENDMDL
MODEL 6
REMARK VINA RESULT:    -6.477      3.443      5.141
REMARK INTER + INTRA:          -9.969
REMARK INTER:                  -9.211
REMARK INTRA:                  -0.758
REMARK UNBOUND:                -0.841
REMARK  Name = 
REMARK  7 active torsions:
REMARK  status: ('A' for Active; 'I' for Inactive)
REMARK    1  A    between atoms: C_2  and  C_11
REMARK    2  A    between atoms: N_3  and  C_4
REMARK    3  A    between atoms: C_4  and  C_5
REMARK    4  A    between atoms: C_14  and  C_15
REMARK    5  A    between atoms: C_15  and  N_16
REMARK    6  A    between atoms: N_16  and  C_17
REMARK    7  A    between atoms: C_17  and  C_18
REMARK                            x       y       z     vdW  Elec       q    Type
REMARK                         _______ _______ _______ _____ _____    ______ ____
ROOT
ATOM      1  C   UNL     1      47.698   6.362  12.931  0.00  0.00    +0.000 A 
ATOM      2  C   UNL     1      47.317   5.219  13.637  0.00  0.00    +0.000 A 
ATOM      3  C   UNL     1      46.225   4.452  13.203  0.00  0.00    +0.000 A 
ATOM      4  C   UNL     1      45.503   4.815  12.056  0.00  0.00    +0.000 A 
ATOM      5  C   UNL     1      45.902   5.955  11.344  0.00  0.00    +0.000 A 
ATOM      6  C   UNL     1      46.994   6.717  11.770  0.00  0.00    +0.000 A 
ENDROOT
BRANCH   1   8
ATOM      7  O   UNL     1      49.428   6.856  14.470  0.00  0.00    +0.000 OA
ATOM      8  C   UNL     1      48.850   7.175  13.437  0.00  0.00    +0.000 C 
ATOM      9  N   UNL     1      49.166   8.291  12.689  0.00  0.00    +0.000 N 
ATOM     10  H   UNL     1      48.609   8.503  11.877  0.00  0.00    +0.000 HD
BRANCH   9  11
ATOM     11  C   UNL     1      50.250   9.209  13.013  0.00  0.00    +0.000 C 
BRANCH  11  12
ATOM     12  C   UNL     1      50.452  10.270  11.911  0.00  0.00    +0.000 C 
ATOM     13  C   UNL     1      51.184  11.530  12.406  0.00  0.00    +0.000 C 
ATOM     14  C   UNL     1      50.323  12.312  13.396  0.00  0.00    +0.000 C 
ATOM     15  N   UNL     1      49.075  12.749  12.770  0.00  0.00    +0.000 NA
ATOM     16  C   UNL     1      48.305  11.623  12.238  0.00  0.00    +0.000 C 
ATOM     17  C   UNL     1      49.118  10.729  11.295  0.00  0.00    +0.000 C 
ATOM     18  H   UNL     1      49.297  13.388  12.007  0.00  0.00    +0.000 HD
ENDBRANCH  11  12
ENDBRANCH   9  11
ENDBRANCH   1   8
BRANCH   4  19
ATOM     19  C   UNL     1      44.339   3.972  11.574  0.00  0.00    +0.000 C 
BRANCH  19  20
ATOM     20  N   UNL     1      44.804   2.728  10.964  0.00  0.00    +0.000 NA
ATOM     21  H   UNL     1      44.444   1.942  11.506  0.00  0.00    +0.000 HD
BRANCH  20  22
ATOM     22  C   UNL     1      44.311   2.589   9.587  0.00  0.00    +0.000 C 
BRANCH  22  23
ATOM     23  C   UNL     1      45.444   2.484   8.582  0.00  0.00    +0.000 A 
ATOM     24  C   UNL     1      45.869   3.611   7.876  0.00  0.00    +0.000 A 
ATOM     25  C   UNL     1      46.922   3.486   6.974  0.00  0.00    +0.000 A 
ATOM     26  C   UNL     1      47.518   2.245   6.791  0.00  0.00    +0.000 A 
ATOM     27  C   UNL     1      47.034   1.175   7.524  0.00  0.00    +0.000 A 
ATOM     28  N   UNL     1      46.018   1.264   8.413  0.00  0.00    +0.000 NA
ENDBRANCH  22  23
ENDBRANCH  20  22
ENDBRANCH  19  20
ENDBRANCH   4  19
TORSDOF 7
ENDMDL
MODEL 7
REMARK VINA RESULT:    -6.345      2.970      9.721
REMARK INTER + INTRA:          -9.783
REMARK INTER:                  -8.718
REMARK INTRA:                  -1.064
REMARK UNBOUND:                -0.841
REMARK  Name = 
REMARK  7 active torsions:
REMARK  status: ('A' for Active; 'I' for Inactive)
REMARK    1  A    between atoms: C_2  and  C_11
REMARK    2  A    between atoms: N_3  and  C_4
REMARK    3  A    between atoms: C_4  and  C_5
REMARK    4  A    between atoms: C_14  and  C_15
REMARK    5  A    between atoms: C_15  and  N_16
REMARK    6  A    between atoms: N_16  and  C_17
REMARK    7  A    between atoms: C_17  and  C_18
REMARK                            x       y       z     vdW  Elec       q    Type
REMARK                         _______ _______ _______ _____ _____    ______ ____
ROOT
ATOM      1  C   UNL     1      47.579   4.249  16.049  0.00  0.00    +0.000 A 
ATOM      2  C   UNL     1      47.353   3.182  16.920  0.00  0.00    +0.000 A 
ATOM      3  C   UNL     1      47.860   3.217  18.228  0.00  0.00    +0.000 A 
ATOM      4  C   UNL     1      48.598   4.321  18.682  0.00  0.00    +0.000 A 
ATOM      5  C   UNL     1      48.806   5.395  17.807  0.00  0.00    +0.000 A 
ATOM      6  C   UNL     1      48.295   5.366  16.506  0.00  0.00    +0.000 A 
ENDROOT
BRANCH   1   8
ATOM      7  O   UNL     1      47.250   3.170  13.967  0.00  0.00    +0.000 OA
ATOM      8  C   UNL     1      47.048   4.167  14.650  0.00  0.00    +0.000 C 
ATOM      9  N   UNL     1      46.372   5.285  14.204  0.00  0.00    +0.000 N 
ATOM     10  H   UNL     1      46.290   6.079  14.818  0.00  0.00    +0.000 HD
BRANCH   9  11
ATOM     11  C   UNL     1      45.781   5.403  12.877  0.00  0.00    +0.000 C 
BRANCH  11  12
ATOM     12  C   UNL     1      44.241   5.492  12.941  0.00  0.00    +0.000 C 
ATOM     13  C   UNL     1      43.575   4.178  13.386  0.00  0.00    +0.000 C 
ATOM     14  C   UNL     1      43.751   3.088  12.331  0.00  0.00    +0.000 C 
ATOM     15  N   UNL     1      43.136   3.483  11.064  0.00  0.00    +0.000 NA
ATOM     16  C   UNL     1      43.684   4.744  10.558  0.00  0.00    +0.000 C 
ATOM     17  C   UNL     1      43.626   5.881  11.584  0.00  0.00    +0.000 C 
ATOM     18  H   UNL     1      42.132   3.592  11.206  0.00  0.00    +0.000 HD
ENDBRANCH  11  12
ENDBRANCH   9  11
ENDBRANCH   1   8
BRANCH   4  19
ATOM     19  C   UNL     1      49.123   4.369  20.103  0.00  0.00    +0.000 C 
BRANCH  19  20
ATOM     20  N   UNL     1      48.040   4.574  21.062  0.00  0.00    +0.000 NA
ATOM     21  H   UNL     1      47.993   3.765  21.682  0.00  0.00    +0.000 HD
BRANCH  20  22
ATOM     22  C   UNL     1      48.276   5.763  21.892  0.00  0.00    +0.000 C 
BRANCH  22  23
ATOM     23  C   UNL     1      48.380   7.029  21.059  0.00  0.00    +0.000 A 
ATOM     24  C   UNL     1      47.290   7.474  20.310  0.00  0.00    +0.000 A 
ATOM     25  C   UNL     1      47.411   8.647  19.570  0.00  0.00    +0.000 A 
ATOM     26  C   UNL     1      48.614   9.340  19.587  0.00  0.00    +0.000 A 
ATOM     27  C   UNL     1      49.651   8.829  20.350  0.00  0.00    +0.000 A 
ATOM     28  N   UNL     1      49.563   7.697  21.085  0.00  0.00    +0.000 NA
ENDBRANCH  22  23
ENDBRANCH  20  22
ENDBRANCH  19  20
ENDBRANCH   4  19
TORSDOF 7
ENDMDL
MODEL 8
REMARK VINA RESULT:    -6.302      2.526      3.504
REMARK INTER + INTRA:          -9.722
REMARK INTER:                  -9.058
REMARK INTRA:                  -0.665
REMARK UNBOUND:                -0.841
REMARK  Name = 
REMARK  7 active torsions:
REMARK  status: ('A' for Active; 'I' for Inactive)
REMARK    1  A    between atoms: C_2  and  C_11
REMARK    2  A    between atoms: N_3  and  C_4
REMARK    3  A    between atoms: C_4  and  C_5
REMARK    4  A    between atoms: C_14  and  C_15
REMARK    5  A    between atoms: C_15  and  N_16
REMARK    6  A    between atoms: N_16  and  C_17
REMARK    7  A    between atoms: C_17  and  C_18
REMARK                            x       y       z     vdW  Elec       q    Type
REMARK                         _______ _______ _______ _____ _____    ______ ____
ROOT
ATOM      1  C   UNL     1      47.794   5.453  15.144  0.00  0.00    +0.000 A 
ATOM      2  C   UNL     1      46.929   4.422  14.771  0.00  0.00    +0.000 A 
ATOM      3  C   UNL     1      46.260   4.472  13.538  0.00  0.00    +0.000 A 
ATOM      4  C   UNL     1      46.450   5.552  12.662  0.00  0.00    +0.000 A 
ATOM      5  C   UNL     1      47.332   6.575  13.038  0.00  0.00    +0.000 A 
ATOM      6  C   UNL     1      48.006   6.523  14.262  0.00  0.00    +0.000 A 
ENDROOT
BRANCH   1   8
ATOM      7  O   UNL     1      49.465   4.685  16.636  0.00  0.00    +0.000 OA
ATOM      8  C   UNL     1      48.469   5.382  16.480  0.00  0.00    +0.000 C 
ATOM      9  N   UNL     1      47.872   6.111  17.488  0.00  0.00    +0.000 N 
ATOM     10  H   UNL     1      47.029   6.622  17.283  0.00  0.00    +0.000 HD
BRANCH   9  11
ATOM     11  C   UNL     1      48.374   6.173  18.855  0.00  0.00    +0.000 C 
BRANCH  11  12
ATOM     12  C   UNL     1      49.113   7.499  19.135  0.00  0.00    +0.000 C 
ATOM     13  C   UNL     1      49.329   7.770  20.634  0.00  0.00    +0.000 C 
ATOM     14  C   UNL     1      48.001   8.033  21.342  0.00  0.00    +0.000 C 
ATOM     15  N   UNL     1      47.332   9.205  20.777  0.00  0.00    +0.000 NA
ATOM     16  C   UNL     1      47.098   9.063  19.338  0.00  0.00    +0.000 C 
ATOM     17  C   UNL     1      48.368   8.714  18.552  0.00  0.00    +0.000 C 
ATOM     18  H   UNL     1      47.917  10.026  20.938  0.00  0.00    +0.000 HD
ENDBRANCH  11  12
ENDBRANCH   9  11
ENDBRANCH   1   8
BRANCH   4  19
ATOM     19  C   UNL     1      45.747   5.593  11.320  0.00  0.00    +0.000 C 
BRANCH  19  20
ATOM     20  N   UNL     1      44.638   4.643  11.274  0.00  0.00    +0.000 NA
ATOM     21  H   UNL     1      43.883   4.991  11.865  0.00  0.00    +0.000 HD
BRANCH  20  22
ATOM     22  C   UNL     1      44.112   4.499   9.909  0.00  0.00    +0.000 C 
BRANCH  22  23
ATOM     23  C   UNL     1      45.048   3.701   9.018  0.00  0.00    +0.000 A 
ATOM     24  C   UNL     1      45.197   2.326   9.202  0.00  0.00    +0.000 A 
ATOM     25  C   UNL     1      46.049   1.619   8.358  0.00  0.00    +0.000 A 
ATOM     26  C   UNL     1      46.737   2.299   7.361  0.00  0.00    +0.000 A 
ATOM     27  C   UNL     1      46.540   3.665   7.248  0.00  0.00    +0.000 A 
ATOM     28  N   UNL     1      45.714   4.379   8.047  0.00  0.00    +0.000 NA
ENDBRANCH  22  23
ENDBRANCH  20  22
ENDBRANCH  19  20
ENDBRANCH   4  19
TORSDOF 7
ENDMDL
MODEL 9
REMARK VINA RESULT:    -5.932      2.683      9.470
REMARK INTER + INTRA:          -9.201
REMARK INTER:                  -8.414
REMARK INTRA:                  -0.787
REMARK UNBOUND:                -0.841
REMARK  Name = 
REMARK  7 active torsions:
REMARK  status: ('A' for Active; 'I' for Inactive)
REMARK    1  A    between atoms: C_2  and  C_11
REMARK    2  A    between atoms: N_3  and  C_4
REMARK    3  A    between atoms: C_4  and  C_5
REMARK    4  A    between atoms: C_14  and  C_15
REMARK    5  A    between atoms: C_15  and  N_16
REMARK    6  A    between atoms: N_16  and  C_17
REMARK    7  A    between atoms: C_17  and  C_18
REMARK                            x       y       z     vdW  Elec       q    Type
REMARK                         _______ _______ _______ _____ _____    ______ ____
ROOT
ATOM      1  C   UNL     1      47.654   4.323  16.180  0.00  0.00    +0.000 A 
ATOM      2  C   UNL     1      47.452   3.261  17.063  0.00  0.00    +0.000 A 
ATOM      3  C   UNL     1      47.948   3.327  18.374  0.00  0.00    +0.000 A 
ATOM      4  C   UNL     1      48.649   4.459  18.819  0.00  0.00    +0.000 A 
ATOM      5  C   UNL     1      48.833   5.527  17.931  0.00  0.00    +0.000 A 
ATOM      6  C   UNL     1      48.333   5.466  16.627  0.00  0.00    +0.000 A 
ENDROOT
BRANCH   1   8
ATOM      7  O   UNL     1      47.363   3.203  14.113  0.00  0.00    +0.000 OA
ATOM      8  C   UNL     1      47.136   4.208  14.778  0.00  0.00    +0.000 C 
ATOM      9  N   UNL     1      46.442   5.304  14.308  0.00  0.00    +0.000 N 
ATOM     10  H   UNL     1      46.340   6.107  14.908  0.00  0.00    +0.000 HD
BRANCH   9  11
ATOM     11  C   UNL     1      45.860   5.389  12.975  0.00  0.00    +0.000 C 
BRANCH  11  12
ATOM     12  C   UNL     1      44.632   4.466  12.825  0.00  0.00    +0.000 C 
ATOM     13  C   UNL     1      44.694   3.569  11.577  0.00  0.00    +0.000 C 
ATOM     14  C   UNL     1      44.582   4.397  10.298  0.00  0.00    +0.000 C 
ATOM     15  N   UNL     1      43.311   5.119  10.255  0.00  0.00    +0.000 NA
ATOM     16  C   UNL     1      43.136   5.992  11.418  0.00  0.00    +0.000 C 
ATOM     17  C   UNL     1      43.315   5.260  12.753  0.00  0.00    +0.000 C 
ATOM     18  H   UNL     1      42.549   4.442  10.232  0.00  0.00    +0.000 HD
ENDBRANCH  11  12
ENDBRANCH   9  11
ENDBRANCH   1   8
BRANCH   4  19
ATOM     19  C   UNL     1      49.163   4.540  20.243  0.00  0.00    +0.000 C 
BRANCH  19  20
ATOM     20  N   UNL     1      49.993   5.727  20.439  0.00  0.00    +0.000 NA
ATOM     21  H   UNL     1      49.562   6.315  21.154  0.00  0.00    +0.000 HD
BRANCH  20  22
ATOM     22  C   UNL     1      51.339   5.368  20.904  0.00  0.00    +0.000 C 
BRANCH  22  23
ATOM     23  C   UNL     1      52.253   4.974  19.757  0.00  0.00    +0.000 A 
ATOM     24  C   UNL     1      52.986   3.787  19.813  0.00  0.00    +0.000 A 
ATOM     25  C   UNL     1      53.802   3.446  18.738  0.00  0.00    +0.000 A 
ATOM     26  C   UNL     1      53.876   4.296  17.642  0.00  0.00    +0.000 A 
ATOM     27  C   UNL     1      53.123   5.459  17.668  0.00  0.00    +0.000 A 
ATOM     28  N   UNL     1      52.315   5.815  18.692  0.00  0.00    +0.000 NA
ENDBRANCH  22  23
ENDBRANCH  20  22
ENDBRANCH  19  20
ENDBRANCH   4  19
TORSDOF 7
ENDMDL
