MODEL 1
REMARK VINA RESULT:    -8.269      0.000      0.000
REMARK INTER + INTRA:         -12.389
REMARK INTER:                 -11.170
REMARK INTRA:                  -1.219
REMARK UNBOUND:                -1.219
REMARK  Name = 
REMARK  6 active torsions:
REMARK  status: ('A' for Active; 'I' for Inactive)
REMARK    1  A    between atoms: C_2  and  C_4
REMARK    2  A    between atoms: C_7  and  O_8
REMARK    3  A    between atoms: O_8  and  C_9
REMARK    4  A    between atoms: C_9  and  C_10
REMARK    5  A    between atoms: C_10  and  C_13
REMARK    6  A    between atoms: C_17  and  N_18
REMARK                            x       y       z     vdW  Elec       q    Type
REMARK                         _______ _______ _______ _____ _____    ______ ____
ROOT
ATOM      1  C   UNL     1      43.740   4.495  12.554  0.00  0.00    +0.000 C 
ATOM      2  F   UNL     1      42.778   5.130  13.286  0.00  0.00    +0.000 F 
ATOM      3  F   UNL     1      43.684   3.185  12.941  0.00  0.00    +0.000 F 
ENDROOT
BRANCH   1   4
ATOM      4  C   UNL     1      45.119   5.088  12.788  0.00  0.00    +0.000 A 
ATOM      5  C   UNL     1      45.609   6.077  11.926  0.00  0.00    +0.000 A 
ATOM      6  C   UNL     1      46.849   6.660  12.166  0.00  0.00    +0.000 A 
ATOM      7  C   UNL     1      47.602   6.270  13.277  0.00  0.00    +0.000 A 
ATOM      8  C   UNL     1      47.156   5.285  14.167  0.00  0.00    +0.000 A 
ATOM      9  C   UNL     1      45.909   4.693  13.887  0.00  0.00    +0.000 A 
BRANCH   8  10
ATOM     10  N   UNL     1      47.882   4.934  15.292  0.00  0.00    +0.000 N 
ATOM     11  C   UNL     1      47.639   3.676  16.006  0.00  0.00    +0.000 C 
ATOM     12  C   UNL     1      47.063   3.944  17.394  0.00  0.00    +0.000 C 
ATOM     13  C   UNL     1      47.936   4.925  18.171  0.00  0.00    +0.000 C 
ATOM     14  C   UNL     1      48.154   6.208  17.369  0.00  0.00    +0.000 C 
ATOM     15  C   UNL     1      48.725   5.915  15.979  0.00  0.00    +0.000 C 
ENDBRANCH   8  10
ENDBRANCH   1   4
BRANCH   1  16
ATOM     16  C   UNL     1      43.359   4.578  11.061  0.00  0.00    +0.000 C 
BRANCH  16  17
ATOM     17  O   UNL     1      43.535   3.304  10.410  0.00  0.00    +0.000 OA
BRANCH  17  21
ATOM     18  C   UNL     1      46.493   2.740   7.608  0.00  0.00    +0.000 A 
ATOM     19  C   UNL     1      46.060   4.047   7.803  0.00  0.00    +0.000 A 
ATOM     20  C   UNL     1      45.057   4.286   8.743  0.00  0.00    +0.000 A 
ATOM     21  C   UNL     1      44.516   3.223   9.462  0.00  0.00    +0.000 A 
ATOM     22  C   UNL     1      45.017   1.949   9.192  0.00  0.00    +0.000 A 
ATOM     23  N   UNL     1      45.989   1.672   8.283  0.00  0.00    +0.000 NA
BRANCH  18  25
ATOM     24  N   UNL     1      47.440   3.114   5.403  0.00  0.00    +0.000 N 
ATOM     25  C   UNL     1      47.570   2.466   6.601  0.00  0.00    +0.000 C 
ATOM     26  O   UNL     1      48.511   1.715   6.829  0.00  0.00    +0.000 OA
ATOM     27  H   UNL     1      48.143   2.986   4.691  0.00  0.00    +0.000 HD
ATOM     28  H   UNL     1      46.667   3.753   5.259  0.00  0.00    +0.000 HD
ENDBRANCH  18  25
ENDBRANCH  17  21
ENDBRANCH  16  17
ENDBRANCH   1  16
TORSDOF 6
ENDMDL
MODEL 2
REMARK VINA RESULT:    -8.060      1.973      3.339
REMARK INTER + INTRA:         -12.106
REMARK INTER:                 -10.866
REMARK INTRA:                  -1.240
REMARK UNBOUND:                -1.219
REMARK  Name = 
REMARK  6 active torsions:
REMARK  status: ('A' for Active; 'I' for Inactive)
REMARK    1  A    between atoms: C_2  and  C_4
REMARK    2  A    between atoms: C_7  and  O_8
REMARK    3  A    between atoms: O_8  and  C_9
REMARK    4  A    between atoms: C_9  and  C_10
REMARK    5  A    between atoms: C_10  and  C_13
REMARK    6  A    between atoms: C_17  and  N_18
REMARK                            x       y       z     vdW  Elec       q    Type
REMARK                         _______ _______ _______ _____ _____    ______ ____
ROOT
ATOM      1  C   UNL     1      43.409   5.293  12.156  0.00  0.00    +0.000 C 
ATOM      2  F   UNL     1      43.125   6.495  11.574  0.00  0.00    +0.000 F 
ATOM      3  F   UNL     1      42.473   5.137  13.140  0.00  0.00    +0.000 F 
ENDROOT
BRANCH   1   4
ATOM      4  C   UNL     1      44.821   5.249  12.716  0.00  0.00    +0.000 A 
ATOM      5  C   UNL     1      45.365   4.033  13.144  0.00  0.00    +0.000 A 
ATOM      6  C   UNL     1      46.674   3.978  13.609  0.00  0.00    +0.000 A 
ATOM      7  C   UNL     1      47.457   5.135  13.633  0.00  0.00    +0.000 A 
ATOM      8  C   UNL     1      46.958   6.376  13.215  0.00  0.00    +0.000 A 
ATOM      9  C   UNL     1      45.621   6.409  12.775  0.00  0.00    +0.000 A 
BRANCH   8  10
ATOM     10  N   UNL     1      47.749   7.513  13.197  0.00  0.00    +0.000 N 
ATOM     11  C   UNL     1      47.178   8.853  13.368  0.00  0.00    +0.000 C 
ATOM     12  C   UNL     1      47.309   9.664  12.081  0.00  0.00    +0.000 C 
ATOM     13  C   UNL     1      48.752   9.677  11.583  0.00  0.00    +0.000 C 
ATOM     14  C   UNL     1      49.285   8.252  11.434  0.00  0.00    +0.000 C 
ATOM     15  C   UNL     1      49.138   7.455  12.733  0.00  0.00    +0.000 C 
ENDBRANCH   8  10
ENDBRANCH   1   4
BRANCH   1  16
ATOM     16  C   UNL     1      43.204   4.177  11.110  0.00  0.00    +0.000 C 
BRANCH  16  17
ATOM     17  O   UNL     1      43.606   4.617   9.798  0.00  0.00    +0.000 OA
BRANCH  17  21
ATOM     18  C   UNL     1      46.570   2.640   7.741  0.00  0.00    +0.000 A 
ATOM     19  C   UNL     1      45.706   1.856   8.497  0.00  0.00    +0.000 A 
ATOM     20  C   UNL     1      44.686   2.484   9.214  0.00  0.00    +0.000 A 
ATOM     21  C   UNL     1      44.552   3.869   9.155  0.00  0.00    +0.000 A 
ATOM     22  C   UNL     1      45.470   4.567   8.369  0.00  0.00    +0.000 A 
ATOM     23  N   UNL     1      46.480   3.995   7.660  0.00  0.00    +0.000 NA
BRANCH  18  25
ATOM     24  N   UNL     1      48.482   2.823   6.256  0.00  0.00    +0.000 N 
ATOM     25  C   UNL     1      47.671   1.981   6.967  0.00  0.00    +0.000 C 
ATOM     26  O   UNL     1      47.844   0.768   6.966  0.00  0.00    +0.000 OA
ATOM     27  H   UNL     1      49.254   2.442   5.729  0.00  0.00    +0.000 HD
ATOM     28  H   UNL     1      48.332   3.824   6.303  0.00  0.00    +0.000 HD
ENDBRANCH  18  25
ENDBRANCH  17  21
ENDBRANCH  16  17
ENDBRANCH   1  16
TORSDOF 6
ENDMDL
MODEL 3
REMARK VINA RESULT:    -7.183      2.711      7.489
REMARK INTER + INTRA:         -10.922
REMARK INTER:                 -10.127
REMARK INTRA:                  -0.795
REMARK UNBOUND:                -1.219
REMARK  Name = 
REMARK  6 active torsions:
REMARK  status: ('A' for Active; 'I' for Inactive)
REMARK    1  A    between atoms: C_2  and  C_4
REMARK    2  A    between atoms: C_7  and  O_8
REMARK    3  A    between atoms: O_8  and  C_9
REMARK    4  A    between atoms: C_9  and  C_10
REMARK    5  A    between atoms: C_10  and  C_13
REMARK    6  A    between atoms: C_17  and  N_18
REMARK                            x       y       z     vdW  Elec       q    Type
REMARK                         _______ _______ _______ _____ _____    ______ ____
ROOT
ATOM      1  C   UNL     1      45.471   6.972  11.991  0.00  0.00    +0.000 C 
ATOM      2  F   UNL     1      45.132   7.459  13.220  0.00  0.00    +0.000 F 
ATOM      3  F   UNL     1      45.070   7.926  11.098  0.00  0.00    +0.000 F 
ENDROOT
BRANCH   1   4
ATOM      4  C   UNL     1      44.815   5.631  11.708  0.00  0.00    +0.000 A 
ATOM      5  C   UNL     1      43.920   5.082  12.633  0.00  0.00    +0.000 A 
ATOM      6  C   UNL     1      43.277   3.880  12.356  0.00  0.00    +0.000 A 
ATOM      7  C   UNL     1      43.511   3.226  11.144  0.00  0.00    +0.000 A 
ATOM      8  C   UNL     1      44.398   3.734  10.186  0.00  0.00    +0.000 A 
ATOM      9  C   UNL     1      45.055   4.938  10.503  0.00  0.00    +0.000 A 
BRANCH   8  10
ATOM     10  N   UNL     1      44.594   3.108   8.966  0.00  0.00    +0.000 N 
ATOM     11  C   UNL     1      44.772   1.656   8.864  0.00  0.00    +0.000 C 
ATOM     12  C   UNL     1      46.188   1.316   8.406  0.00  0.00    +0.000 C 
ATOM     13  C   UNL     1      46.546   2.064   7.124  0.00  0.00    +0.000 C 
ATOM     14  C   UNL     1      46.331   3.567   7.298  0.00  0.00    +0.000 C 
ATOM     15  C   UNL     1      44.907   3.884   7.764  0.00  0.00    +0.000 C 
ENDBRANCH   8  10
ENDBRANCH   1   4
BRANCH   1  16
ATOM     16  C   UNL     1      47.008   6.851  11.915  0.00  0.00    +0.000 C 
BRANCH  16  17
ATOM     17  O   UNL     1      47.611   7.091  13.202  0.00  0.00    +0.000 OA
BRANCH  17  21
ATOM     18  C   UNL     1      47.903   4.114  16.025  0.00  0.00    +0.000 A 
ATOM     19  C   UNL     1      47.216   3.801  14.858  0.00  0.00    +0.000 A 
ATOM     20  C   UNL     1      47.090   4.781  13.872  0.00  0.00    +0.000 A 
ATOM     21  C   UNL     1      47.651   6.039  14.073  0.00  0.00    +0.000 A 
ATOM     22  C   UNL     1      48.320   6.255  15.279  0.00  0.00    +0.000 A 
ATOM     23  N   UNL     1      48.462   5.331  16.266  0.00  0.00    +0.000 NA
BRANCH  18  25
ATOM     24  N   UNL     1      46.894   2.731  17.748  0.00  0.00    +0.000 N 
ATOM     25  C   UNL     1      48.047   3.073  17.094  0.00  0.00    +0.000 C 
ATOM     26  O   UNL     1      49.122   2.553  17.370  0.00  0.00    +0.000 OA
ATOM     27  H   UNL     1      46.922   2.022  18.465  0.00  0.00    +0.000 HD
ATOM     28  H   UNL     1      46.016   3.157  17.474  0.00  0.00    +0.000 HD
ENDBRANCH  18  25
ENDBRANCH  17  21
ENDBRANCH  16  17
ENDBRANCH   1  16
TORSDOF 6
ENDMDL
MODEL 4
REMARK VINA RESULT:    -6.989      2.768      4.302
REMARK INTER + INTRA:         -10.659
REMARK INTER:                  -9.709
REMARK INTRA:                  -0.950
REMARK UNBOUND:                -1.219
REMARK  Name = 
REMARK  6 active torsions:
REMARK  status: ('A' for Active; 'I' for Inactive)
REMARK    1  A    between atoms: C_2  and  C_4
REMARK    2  A    between atoms: C_7  and  O_8
REMARK    3  A    between atoms: O_8  and  C_9
REMARK    4  A    between atoms: C_9  and  C_10
REMARK    5  A    between atoms: C_10  and  C_13
REMARK    6  A    between atoms: C_17  and  N_18
REMARK                            x       y       z     vdW  Elec       q    Type
REMARK                         _______ _______ _______ _____ _____    ______ ____
ROOT
ATOM      1  C   UNL     1      45.119   4.020   8.818  0.00  0.00    +0.000 C 
ATOM      2  F   UNL     1      46.047   4.880   8.305  0.00  0.00    +0.000 F 
ATOM      3  F   UNL     1      44.008   4.179   8.037  0.00  0.00    +0.000 F 
ENDROOT
BRANCH   1   4
ATOM      4  C   UNL     1      44.820   4.307  10.279  0.00  0.00    +0.000 A 
ATOM      5  C   UNL     1      43.852   3.555  10.956  0.00  0.00    +0.000 A 
ATOM      6  C   UNL     1      43.612   3.778  12.307  0.00  0.00    +0.000 A 
ATOM      7  C   UNL     1      44.348   4.745  12.998  0.00  0.00    +0.000 A 
ATOM      8  C   UNL     1      45.327   5.523  12.366  0.00  0.00    +0.000 A 
ATOM      9  C   UNL     1      45.532   5.295  10.992  0.00  0.00    +0.000 A 
BRANCH   8  10
ATOM     10  N   UNL     1      46.087   6.448  13.062  0.00  0.00    +0.000 N 
ATOM     11  C   UNL     1      45.839   7.889  12.953  0.00  0.00    +0.000 C 
ATOM     12  C   UNL     1      47.007   8.587  12.259  0.00  0.00    +0.000 C 
ATOM     13  C   UNL     1      48.332   8.247  12.936  0.00  0.00    +0.000 C 
ATOM     14  C   UNL     1      48.522   6.733  13.022  0.00  0.00    +0.000 C 
ATOM     15  C   UNL     1      47.337   6.053  13.715  0.00  0.00    +0.000 C 
ENDBRANCH   8  10
ENDBRANCH   1   4
BRANCH   1  16
ATOM     16  C   UNL     1      45.633   2.575   8.642  0.00  0.00    +0.000 C 
BRANCH  16  17
ATOM     17  O   UNL     1      46.899   2.557   7.954  0.00  0.00    +0.000 OA
BRANCH  17  21
ATOM     18  C   UNL     1      46.986   0.635   4.318  0.00  0.00    +0.000 A 
ATOM     19  C   UNL     1      46.827   2.016   4.290  0.00  0.00    +0.000 A 
ATOM     20  C   UNL     1      46.790   2.711   5.500  0.00  0.00    +0.000 A 
ATOM     21  C   UNL     1      46.915   2.015   6.700  0.00  0.00    +0.000 A 
ATOM     22  C   UNL     1      47.069   0.630   6.622  0.00  0.00    +0.000 A 
ATOM     23  N   UNL     1      47.106  -0.085   5.466  0.00  0.00    +0.000 NA
BRANCH  18  25
ATOM     24  N   UNL     1      46.071   0.212   2.109  0.00  0.00    +0.000 N 
ATOM     25  C   UNL     1      47.027  -0.125   3.027  0.00  0.00    +0.000 C 
ATOM     26  O   UNL     1      47.862  -0.993   2.798  0.00  0.00    +0.000 OA
ATOM     27  H   UNL     1      46.057  -0.250   1.212  0.00  0.00    +0.000 HD
ATOM     28  H   UNL     1      45.415   0.957   2.317  0.00  0.00    +0.000 HD
ENDBRANCH  18  25
ENDBRANCH  17  21
ENDBRANCH  16  17
ENDBRANCH   1  16
TORSDOF 6
ENDMDL
MODEL 5
REMARK VINA RESULT:    -6.692      2.366      3.299
REMARK INTER + INTRA:         -10.258
REMARK INTER:                  -9.380
REMARK INTRA:                  -0.878
REMARK UNBOUND:                -1.219
REMARK  Name = 
REMARK  6 active torsions:
REMARK  status: ('A' for Active; 'I' for Inactive)
REMARK    1  A    between atoms: C_2  and  C_4
REMARK    2  A    between atoms: C_7  and  O_8
REMARK    3  A    between atoms: O_8  and  C_9
REMARK    4  A    between atoms: C_9  and  C_10
REMARK    5  A    between atoms: C_10  and  C_13
REMARK    6  A    between atoms: C_17  and  N_18
REMARK                            x       y       z     vdW  Elec       q    Type
REMARK                         _______ _______ _______ _____ _____    ______ ____
ROOT
ATOM      1  C   UNL     1      44.184   6.296  11.889  0.00  0.00    +0.000 C 
ATOM      2  F   UNL     1      43.032   6.375  11.161  0.00  0.00    +0.000 F 
ATOM      3  F   UNL     1      43.796   5.926  13.146  0.00  0.00    +0.000 F 
ENDROOT
BRANCH   1   4
ATOM      4  C   UNL     1      44.941   7.613  11.904  0.00  0.00    +0.000 A 
ATOM      5  C   UNL     1      44.388   8.743  11.289  0.00  0.00    +0.000 A 
ATOM      6  C   UNL     1      45.053   9.964  11.344  0.00  0.00    +0.000 A 
ATOM      7  C   UNL     1      46.266  10.070  12.029  0.00  0.00    +0.000 A 
ATOM      8  C   UNL     1      46.860   8.968  12.660  0.00  0.00    +0.000 A 
ATOM      9  C   UNL     1      46.180   7.739  12.566  0.00  0.00    +0.000 A 
BRANCH   8  10
ATOM     10  N   UNL     1      48.039   9.085  13.376  0.00  0.00    +0.000 N 
ATOM     11  C   UNL     1      49.332   9.273  12.710  0.00  0.00    +0.000 C 
ATOM     12  C   UNL     1      50.224   8.049  12.905  0.00  0.00    +0.000 C 
ATOM     13  C   UNL     1      50.348   7.690  14.383  0.00  0.00    +0.000 C 
ATOM     14  C   UNL     1      48.968   7.516  15.015  0.00  0.00    +0.000 C 
ATOM     15  C   UNL     1      48.089   8.751  14.802  0.00  0.00    +0.000 C 
ENDBRANCH   8  10
ENDBRANCH   1   4
BRANCH   1  16
ATOM     16  C   UNL     1      45.064   5.171  11.302  0.00  0.00    +0.000 C 
BRANCH  16  17
ATOM     17  O   UNL     1      44.356   4.442  10.280  0.00  0.00    +0.000 OA
BRANCH  17  21
ATOM     18  C   UNL     1      46.728   2.803   7.346  0.00  0.00    +0.000 A 
ATOM     19  C   UNL     1      46.034   1.912   8.156  0.00  0.00    +0.000 A 
ATOM     20  C   UNL     1      45.218   2.423   9.166  0.00  0.00    +0.000 A 
ATOM     21  C   UNL     1      45.113   3.800   9.340  0.00  0.00    +0.000 A 
ATOM     22  C   UNL     1      45.851   4.611   8.476  0.00  0.00    +0.000 A 
ATOM     23  N   UNL     1      46.660   4.155   7.483  0.00  0.00    +0.000 NA
BRANCH  18  25
ATOM     24  N   UNL     1      47.781   3.094   5.177  0.00  0.00    +0.000 N 
ATOM     25  C   UNL     1      47.610   2.271   6.256  0.00  0.00    +0.000 C 
ATOM     26  O   UNL     1      48.149   1.172   6.320  0.00  0.00    +0.000 OA
ATOM     27  H   UNL     1      48.378   2.800   4.418  0.00  0.00    +0.000 HD
ATOM     28  H   UNL     1      47.347   4.010   5.169  0.00  0.00    +0.000 HD
ENDBRANCH  18  25
ENDBRANCH  17  21
ENDBRANCH  16  17
ENDBRANCH   1  16
TORSDOF 6
ENDMDL
MODEL 6
REMARK VINA RESULT:    -6.653      4.134      7.482
REMARK INTER + INTRA:         -10.206
REMARK INTER:                  -8.873
REMARK INTRA:                  -1.333
REMARK UNBOUND:                -1.219
REMARK  Name = 
REMARK  6 active torsions:
REMARK  status: ('A' for Active; 'I' for Inactive)
REMARK    1  A    between atoms: C_2  and  C_4
REMARK    2  A    between atoms: C_7  and  O_8
REMARK    3  A    between atoms: O_8  and  C_9
REMARK    4  A    between atoms: C_9  and  C_10
REMARK    5  A    between atoms: C_10  and  C_13
REMARK    6  A    between atoms: C_17  and  N_18
REMARK                            x       y       z     vdW  Elec       q    Type
REMARK                         _______ _______ _______ _____ _____    ______ ____
ROOT
ATOM      1  C   UNL     1      48.992   8.093  11.868  0.00  0.00    +0.000 C 
ATOM      2  F   UNL     1      49.547   9.339  11.905  0.00  0.00    +0.000 F 
ATOM      3  F   UNL     1      49.441   7.529  10.706  0.00  0.00    +0.000 F 
ENDROOT
BRANCH   1   4
ATOM      4  C   UNL     1      47.474   8.143  11.913  0.00  0.00    +0.000 A 
ATOM      5  C   UNL     1      46.821   9.363  12.127  0.00  0.00    +0.000 A 
ATOM      6  C   UNL     1      45.431   9.423  12.117  0.00  0.00    +0.000 A 
ATOM      7  C   UNL     1      44.683   8.267  11.878  0.00  0.00    +0.000 A 
ATOM      8  C   UNL     1      45.289   7.024  11.659  0.00  0.00    +0.000 A 
ATOM      9  C   UNL     1      46.696   6.986  11.700  0.00  0.00    +0.000 A 
BRANCH   8  10
ATOM     10  N   UNL     1      44.547   5.889  11.376  0.00  0.00    +0.000 N 
ATOM     11  C   UNL     1      43.152   5.752  11.807  0.00  0.00    +0.000 C 
ATOM     12  C   UNL     1      43.016   4.654  12.859  0.00  0.00    +0.000 C 
ATOM     13  C   UNL     1      43.633   3.346  12.372  0.00  0.00    +0.000 C 
ATOM     14  C   UNL     1      45.082   3.562  11.934  0.00  0.00    +0.000 C 
ATOM     15  C   UNL     1      45.195   4.671  10.884  0.00  0.00    +0.000 C 
ENDBRANCH   8  10
ENDBRANCH   1   4
BRANCH   1  16
ATOM     16  C   UNL     1      49.543   7.270  13.052  0.00  0.00    +0.000 C 
BRANCH  16  17
ATOM     17  O   UNL     1      48.810   7.548  14.261  0.00  0.00    +0.000 OA
BRANCH  17  21
ATOM     18  C   UNL     1      47.816   4.438  16.762  0.00  0.00    +0.000 A 
ATOM     19  C   UNL     1      47.290   4.396  15.476  0.00  0.00    +0.000 A 
ATOM     20  C   UNL     1      47.599   5.431  14.593  0.00  0.00    +0.000 A 
ATOM     21  C   UNL     1      48.422   6.473  15.011  0.00  0.00    +0.000 A 
ATOM     22  C   UNL     1      48.898   6.425  16.322  0.00  0.00    +0.000 A 
ATOM     23  N   UNL     1      48.618   5.439  17.215  0.00  0.00    +0.000 NA
BRANCH  18  25
ATOM     24  N   UNL     1      48.369   3.176  18.762  0.00  0.00    +0.000 N 
ATOM     25  C   UNL     1      47.493   3.334  17.724  0.00  0.00    +0.000 C 
ATOM     26  O   UNL     1      46.507   2.615  17.598  0.00  0.00    +0.000 OA
ATOM     27  H   UNL     1      48.197   2.462  19.454  0.00  0.00    +0.000 HD
ATOM     28  H   UNL     1      49.156   3.808  18.855  0.00  0.00    +0.000 HD
ENDBRANCH  18  25
ENDBRANCH  17  21
ENDBRANCH  16  17
ENDBRANCH   1  16
TORSDOF 6
ENDMDL
MODEL 7
REMARK VINA RESULT:    -6.512      3.579      5.891
REMARK INTER + INTRA:         -10.016
REMARK INTER:                  -9.166
REMARK INTRA:                  -0.850
REMARK UNBOUND:                -1.219
REMARK  Name = 
REMARK  6 active torsions:
REMARK  status: ('A' for Active; 'I' for Inactive)
REMARK    1  A    between atoms: C_2  and  C_4
REMARK    2  A    between atoms: C_7  and  O_8
REMARK    3  A    between atoms: O_8  and  C_9
REMARK    4  A    between atoms: C_9  and  C_10
REMARK    5  A    between atoms: C_10  and  C_13
REMARK    6  A    between atoms: C_17  and  N_18
REMARK                            x       y       z     vdW  Elec       q    Type
REMARK                         _______ _______ _______ _____ _____    ______ ____
ROOT
ATOM      1  C   UNL     1      47.982   3.062  16.793  0.00  0.00    +0.000 C 
ATOM      2  F   UNL     1      47.016   2.405  17.499  0.00  0.00    +0.000 F 
ATOM      3  F   UNL     1      48.467   2.146  15.902  0.00  0.00    +0.000 F 
ENDROOT
BRANCH   1   4
ATOM      4  C   UNL     1      49.081   3.601  17.694  0.00  0.00    +0.000 A 
ATOM      5  C   UNL     1      50.420   3.299  17.419  0.00  0.00    +0.000 A 
ATOM      6  C   UNL     1      51.433   3.832  18.209  0.00  0.00    +0.000 A 
ATOM      7  C   UNL     1      51.117   4.683  19.271  0.00  0.00    +0.000 A 
ATOM      8  C   UNL     1      49.793   5.015  19.586  0.00  0.00    +0.000 A 
ATOM      9  C   UNL     1      48.785   4.441  18.787  0.00  0.00    +0.000 A 
BRANCH   8  10
ATOM     10  N   UNL     1      49.484   5.895  20.610  0.00  0.00    +0.000 N 
ATOM     11  C   UNL     1      49.147   5.424  21.957  0.00  0.00    +0.000 C 
ATOM     12  C   UNL     1      47.686   5.723  22.285  0.00  0.00    +0.000 C 
ATOM     13  C   UNL     1      47.362   7.197  22.057  0.00  0.00    +0.000 C 
ATOM     14  C   UNL     1      47.743   7.621  20.639  0.00  0.00    +0.000 C 
ATOM     15  C   UNL     1      49.209   7.307  20.330  0.00  0.00    +0.000 C 
ENDBRANCH   8  10
ENDBRANCH   1   4
BRANCH   1  16
ATOM     16  C   UNL     1      47.320   4.209  16.000  0.00  0.00    +0.000 C 
BRANCH  16  17
ATOM     17  O   UNL     1      47.725   4.182  14.617  0.00  0.00    +0.000 OA
BRANCH  17  21
ATOM     18  C   UNL     1      44.812   4.811  11.781  0.00  0.00    +0.000 A 
ATOM     19  C   UNL     1      45.421   5.943  12.311  0.00  0.00    +0.000 A 
ATOM     20  C   UNL     1      46.414   5.779  13.278  0.00  0.00    +0.000 A 
ATOM     21  C   UNL     1      46.774   4.497  13.687  0.00  0.00    +0.000 A 
ATOM     22  C   UNL     1      46.103   3.426  13.096  0.00  0.00    +0.000 A 
ATOM     23  N   UNL     1      45.128   3.542  12.156  0.00  0.00    +0.000 NA
BRANCH  18  25
ATOM     24  N   UNL     1      44.097   4.620   9.468  0.00  0.00    +0.000 N 
ATOM     25  C   UNL     1      43.743   4.972  10.742  0.00  0.00    +0.000 C 
ATOM     26  O   UNL     1      42.620   5.387  11.008  0.00  0.00    +0.000 OA
ATOM     27  H   UNL     1      43.416   4.687   8.727  0.00  0.00    +0.000 HD
ATOM     28  H   UNL     1      45.023   4.250   9.288  0.00  0.00    +0.000 HD
ENDBRANCH  18  25
ENDBRANCH  17  21
ENDBRANCH  16  17
ENDBRANCH   1  16
TORSDOF 6
ENDMDL
MODEL 8
REMARK VINA RESULT:    -6.483      3.302      4.990
REMARK INTER + INTRA:          -9.976
REMARK INTER:                  -8.647
REMARK INTRA:                  -1.329
REMARK UNBOUND:                -1.219
REMARK  Name = 
REMARK  6 active torsions:
REMARK  status: ('A' for Active; 'I' for Inactive)
REMARK    1  A    between atoms: C_2  and  C_4
REMARK    2  A    between atoms: C_7  and  O_8
REMARK    3  A    between atoms: O_8  and  C_9
REMARK    4  A    between atoms: C_9  and  C_10
REMARK    5  A    between atoms: C_10  and  C_13
REMARK    6  A    between atoms: C_17  and  N_18
REMARK                            x       y       z     vdW  Elec       q    Type
REMARK                         _______ _______ _______ _____ _____    ______ ____
ROOT
ATOM      1  C   UNL     1      48.796   7.740  13.051  0.00  0.00    +0.000 C 
ATOM      2  F   UNL     1      49.149   6.507  12.582  0.00  0.00    +0.000 F 
ATOM      3  F   UNL     1      49.730   8.601  12.548  0.00  0.00    +0.000 F 
ENDROOT
BRANCH   1   4
ATOM      4  C   UNL     1      48.757   7.783  14.569  0.00  0.00    +0.000 A 
ATOM      5  C   UNL     1      48.610   9.009  15.230  0.00  0.00    +0.000 A 
ATOM      6  C   UNL     1      48.522   9.049  16.617  0.00  0.00    +0.000 A 
ATOM      7  C   UNL     1      48.564   7.863  17.355  0.00  0.00    +0.000 A 
ATOM      8  C   UNL     1      48.710   6.612  16.741  0.00  0.00    +0.000 A 
ATOM      9  C   UNL     1      48.823   6.602  15.337  0.00  0.00    +0.000 A 
BRANCH   8  10
ATOM     10  N   UNL     1      48.705   5.435  17.470  0.00  0.00    +0.000 N 
ATOM     11  C   UNL     1      49.906   4.947  18.155  0.00  0.00    +0.000 C 
ATOM     12  C   UNL     1      50.407   3.655  17.513  0.00  0.00    +0.000 C 
ATOM     13  C   UNL     1      49.293   2.617  17.425  0.00  0.00    +0.000 C 
ATOM     14  C   UNL     1      48.073   3.193  16.707  0.00  0.00    +0.000 C 
ATOM     15  C   UNL     1      47.591   4.490  17.363  0.00  0.00    +0.000 C 
ENDBRANCH   8  10
ENDBRANCH   1   4
BRANCH   1  16
ATOM     16  C   UNL     1      47.420   8.117  12.462  0.00  0.00    +0.000 C 
BRANCH  16  17
ATOM     17  O   UNL     1      46.350   7.547  13.241  0.00  0.00    +0.000 OA
BRANCH  17  21
ATOM     18  C   UNL     1      44.645   4.131  11.709  0.00  0.00    +0.000 A 
ATOM     19  C   UNL     1      45.472   3.973  12.815  0.00  0.00    +0.000 A 
ATOM     20  C   UNL     1      46.074   5.104  13.368  0.00  0.00    +0.000 A 
ATOM     21  C   UNL     1      45.834   6.357  12.809  0.00  0.00    +0.000 A 
ATOM     22  C   UNL     1      44.990   6.411  11.699  0.00  0.00    +0.000 A 
ATOM     23  N   UNL     1      44.388   5.334  11.128  0.00  0.00    +0.000 NA
BRANCH  18  25
ATOM     24  N   UNL     1      44.644   2.370  10.037  0.00  0.00    +0.000 N 
ATOM     25  C   UNL     1      43.991   2.926  11.103  0.00  0.00    +0.000 C 
ATOM     26  O   UNL     1      42.941   2.459  11.530  0.00  0.00    +0.000 OA
ATOM     27  H   UNL     1      44.264   1.545   9.597  0.00  0.00    +0.000 HD
ATOM     28  H   UNL     1      45.527   2.762   9.729  0.00  0.00    +0.000 HD
ENDBRANCH  18  25
ENDBRANCH  17  21
ENDBRANCH  16  17
ENDBRANCH   1  16
TORSDOF 6
ENDMDL
MODEL 9
REMARK VINA RESULT:    -6.384      3.685      7.183
REMARK INTER + INTRA:          -9.842
REMARK INTER:                  -8.809
REMARK INTRA:                  -1.033
REMARK UNBOUND:                -1.219
REMARK  Name = 
REMARK  6 active torsions:
REMARK  status: ('A' for Active; 'I' for Inactive)
REMARK    1  A    between atoms: C_2  and  C_4
REMARK    2  A    between atoms: C_7  and  O_8
REMARK    3  A    between atoms: O_8  and  C_9
REMARK    4  A    between atoms: C_9  and  C_10
REMARK    5  A    between atoms: C_10  and  C_13
REMARK    6  A    between atoms: C_17  and  N_18
REMARK                            x       y       z     vdW  Elec       q    Type
REMARK                         _______ _______ _______ _____ _____    ______ ____
ROOT
ATOM      1  C   UNL     1      46.580   4.345  13.711  0.00  0.00    +0.000 C 
ATOM      2  F   UNL     1      47.221   3.143  13.803  0.00  0.00    +0.000 F 
ATOM      3  F   UNL     1      46.209   4.658  14.989  0.00  0.00    +0.000 F 
ENDROOT
BRANCH   1   4
ATOM      4  C   UNL     1      45.379   4.281  12.781  0.00  0.00    +0.000 A 
ATOM      5  C   UNL     1      44.149   4.807  13.193  0.00  0.00    +0.000 A 
ATOM      6  C   UNL     1      43.060   4.798  12.326  0.00  0.00    +0.000 A 
ATOM      7  C   UNL     1      43.198   4.279  11.036  0.00  0.00    +0.000 A 
ATOM      8  C   UNL     1      44.408   3.742  10.578  0.00  0.00    +0.000 A 
ATOM      9  C   UNL     1      45.486   3.739  11.484  0.00  0.00    +0.000 A 
BRANCH   8  10
ATOM     10  N   UNL     1      44.554   3.270   9.284  0.00  0.00    +0.000 N 
ATOM     11  C   UNL     1      44.675   1.838   8.994  0.00  0.00    +0.000 C 
ATOM     12  C   UNL     1      46.068   1.510   8.461  0.00  0.00    +0.000 C 
ATOM     13  C   UNL     1      46.427   2.403   7.276  0.00  0.00    +0.000 C 
ATOM     14  C   UNL     1      46.273   3.878   7.645  0.00  0.00    +0.000 C 
ATOM     15  C   UNL     1      44.872   4.183   8.183  0.00  0.00    +0.000 C 
ENDBRANCH   8  10
ENDBRANCH   1   4
BRANCH   1  16
ATOM     16  C   UNL     1      47.588   5.407  13.223  0.00  0.00    +0.000 C 
BRANCH  16  17
ATOM     17  O   UNL     1      47.365   6.671  13.877  0.00  0.00    +0.000 OA
BRANCH  17  21
ATOM     18  C   UNL     1      48.327   9.928  11.555  0.00  0.00    +0.000 A 
ATOM     19  C   UNL     1      47.145  10.008  12.282  0.00  0.00    +0.000 A 
ATOM     20  C   UNL     1      46.777   8.926  13.083  0.00  0.00    +0.000 A 
ATOM     21  C   UNL     1      47.594   7.800  13.140  0.00  0.00    +0.000 A 
ATOM     22  C   UNL     1      48.759   7.816  12.372  0.00  0.00    +0.000 A 
ATOM     23  N   UNL     1      49.151   8.846  11.577  0.00  0.00    +0.000 NA
BRANCH  18  25
ATOM     24  N   UNL     1      47.715  11.857  10.213  0.00  0.00    +0.000 N 
ATOM     25  C   UNL     1      48.736  11.082  10.690  0.00  0.00    +0.000 C 
ATOM     26  O   UNL     1      49.908  11.325  10.424  0.00  0.00    +0.000 OA
ATOM     27  H   UNL     1      47.927  12.660   9.640  0.00  0.00    +0.000 HD
ATOM     28  H   UNL     1      46.759  11.647  10.478  0.00  0.00    +0.000 HD
ENDBRANCH  18  25
ENDBRANCH  17  21
ENDBRANCH  16  17
ENDBRANCH   1  16
TORSDOF 6
ENDMDL
