MODEL 1
REMARK VINA RESULT:    -8.450      0.000      0.000
REMARK INTER + INTRA:         -14.584
REMARK INTER:                 -12.896
REMARK INTRA:                  -1.688
REMARK UNBOUND:                -1.688
REMARK  Name = 
REMARK  12 active torsions:
REMARK  status: ('A' for Active; 'I' for Inactive)
REMARK    1  A    between atoms: C_1  and  C_2
REMARK    2  A    between atoms: C_2  and  N_3
REMARK    3  A    between atoms: C_2  and  C_20
REMARK    4  A    between atoms: N_3  and  C_4
REMARK    5  A    between atoms: C_4  and  C_5
REMARK    6  A    between atoms: C_8  and  C_9
REMARK    7  A    between atoms: C_9  and  N_10
REMARK    8  A    between atoms: N_10  and  C_11
REMARK    9  A    between atoms: C_11  and  C_12
REMARK   10  A    between atoms: C_23  and  C_24
REMARK   11  A    between atoms: N_26  and  C_27
REMARK   12  A    between atoms: N_26  and  C_28
REMARK                            x       y       z     vdW  Elec       q    Type
REMARK                         _______ _______ _______ _____ _____    ______ ____
ROOT
ATOM      1  C   UNL     1      49.774   8.695  14.378  0.00  0.00    +0.000 C 
ATOM      2  C   UNL     1      49.813   7.192  14.721  0.00  0.00    +0.000 C 
ENDROOT
BRANCH   2   3
ATOM      3  C   UNL     1      49.508   6.927  16.207  0.00  0.00    +0.000 A 
ATOM      4  C   UNL     1      49.086   8.044  16.975  0.00  0.00    +0.000 A 
ATOM      5  C   UNL     1      48.483   7.891  18.218  0.00  0.00    +0.000 A 
ATOM      6  C   UNL     1      48.172   6.608  18.652  0.00  0.00    +0.000 A 
ATOM      7  C   UNL     1      48.244   5.592  17.712  0.00  0.00    +0.000 A 
ATOM      8  C   UNL     1      47.786   4.237  17.906  0.00  0.00    +0.000 A 
ATOM      9  O   UNL     1      46.748   3.848  17.371  0.00  0.00    +0.000 OA
ATOM     10  N   UNL     1      48.785   3.437  18.328  0.00  0.00    +0.000 N 
ATOM     11  C   UNL     1      49.982   3.640  17.686  0.00  0.00    +0.000 A 
ATOM     12  N   UNL     1      50.188   4.584  16.781  0.00  0.00    +0.000 NA
ATOM     13  C   UNL     1      49.214   5.645  16.736  0.00  0.00    +0.000 A 
ATOM     14  H   UNL     1      48.828   3.311  19.334  0.00  0.00    +0.000 HD
BRANCH   6  15
ATOM     15  C   UNL     1      47.992   6.247  20.079  0.00  0.00    +0.000 C 
ATOM     16  O   UNL     1      46.834   6.132  20.482  0.00  0.00    +0.000 OA
ATOM     17  N   UNL     1      49.087   5.896  20.891  0.00  0.00    +0.000 N 
ATOM     18  C   UNL     1      50.508   5.936  20.551  0.00  0.00    +0.000 C 
ATOM     19  C   UNL     1      48.814   5.576  22.285  0.00  0.00    +0.000 C 
ENDBRANCH   6  15
ENDBRANCH   2   3
BRANCH   2  20
ATOM     20  N   UNL     1      48.769   6.447  13.982  0.00  0.00    +0.000 NA
ATOM     21  H   UNL     1      49.206   5.948  13.209  0.00  0.00    +0.000 HD
BRANCH  20  22
ATOM     22  C   UNL     1      47.586   7.149  13.521  0.00  0.00    +0.000 C 
BRANCH  22  23
ATOM     23  C   UNL     1      46.571   6.302  12.815  0.00  0.00    +0.000 A 
ATOM     24  C   UNL     1      46.306   6.493  11.460  0.00  0.00    +0.000 A 
ATOM     25  C   UNL     1      45.325   5.734  10.830  0.00  0.00    +0.000 A 
ATOM     26  C   UNL     1      44.624   4.790  11.575  0.00  0.00    +0.000 A 
ATOM     27  N   UNL     1      44.857   4.587  12.897  0.00  0.00    +0.000 NA
ATOM     28  C   UNL     1      45.817   5.342  13.482  0.00  0.00    +0.000 A 
BRANCH  26  29
ATOM     29  C   UNL     1      43.532   3.965  10.917  0.00  0.00    +0.000 C 
BRANCH  29  30
ATOM     30  N   UNL     1      43.845   3.505   9.558  0.00  0.00    +0.000 NA
ATOM     31  H   UNL     1      44.381   4.248   9.108  0.00  0.00    +0.000 HD
BRANCH  30  32
ATOM     32  C   UNL     1      44.662   2.293   9.550  0.00  0.00    +0.000 C 
BRANCH  32  33
ATOM     33  C   UNL     1      45.660   2.338   8.417  0.00  0.00    +0.000 A 
ATOM     34  C   UNL     1      45.856   3.521   7.688  0.00  0.00    +0.000 A 
ATOM     35  C   UNL     1      46.790   3.570   6.653  0.00  0.00    +0.000 A 
ATOM     36  C   UNL     1      47.529   2.434   6.326  0.00  0.00    +0.000 A 
ATOM     37  C   UNL     1      47.319   1.243   7.021  0.00  0.00    +0.000 A 
ATOM     38  C   UNL     1      46.386   1.193   8.057  0.00  0.00    +0.000 A 
ENDBRANCH  32  33
ENDBRANCH  30  32
ENDBRANCH  29  30
ENDBRANCH  26  29
ENDBRANCH  22  23
ENDBRANCH  20  22
ENDBRANCH   2  20
TORSDOF 9
ENDMDL
MODEL 2
REMARK VINA RESULT:    -8.066      1.748      2.600
REMARK INTER + INTRA:         -13.998
REMARK INTER:                 -12.338
REMARK INTRA:                  -1.660
REMARK UNBOUND:                -1.688
REMARK  Name = 
REMARK  12 active torsions:
REMARK  status: ('A' for Active; 'I' for Inactive)
REMARK    1  A    between atoms: C_1  and  C_2
REMARK    2  A    between atoms: C_2  and  N_3
REMARK    3  A    between atoms: C_2  and  C_20
REMARK    4  A    between atoms: N_3  and  C_4
REMARK    5  A    between atoms: C_4  and  C_5
REMARK    6  A    between atoms: C_8  and  C_9
REMARK    7  A    between atoms: C_9  and  N_10
REMARK    8  A    between atoms: N_10  and  C_11
REMARK    9  A    between atoms: C_11  and  C_12
REMARK   10  A    between atoms: C_23  and  C_24
REMARK   11  A    between atoms: N_26  and  C_27
REMARK   12  A    between atoms: N_26  and  C_28
REMARK                            x       y       z     vdW  Elec       q    Type
REMARK                         _______ _______ _______ _____ _____    ______ ____
ROOT
ATOM      1  C   UNL     1      48.396   9.170  15.824  0.00  0.00    +0.000 C 
ATOM      2  C   UNL     1      48.728   7.999  14.877  0.00  0.00    +0.000 C 
ENDROOT
BRANCH   2   3
ATOM      3  C   UNL     1      49.552   6.901  15.576  0.00  0.00    +0.000 A 
ATOM      4  C   UNL     1      50.944   7.144  15.707  0.00  0.00    +0.000 A 
ATOM      5  C   UNL     1      51.736   6.406  16.580  0.00  0.00    +0.000 A 
ATOM      6  C   UNL     1      51.117   5.500  17.433  0.00  0.00    +0.000 A 
ATOM      7  C   UNL     1      49.738   5.581  17.542  0.00  0.00    +0.000 A 
ATOM      8  C   UNL     1      48.930   4.868  18.503  0.00  0.00    +0.000 A 
ATOM      9  O   UNL     1      48.444   5.458  19.467  0.00  0.00    +0.000 OA
ATOM     10  N   UNL     1      48.469   3.709  17.992  0.00  0.00    +0.000 N 
ATOM     11  C   UNL     1      48.021   3.800  16.697  0.00  0.00    +0.000 A 
ATOM     12  N   UNL     1      48.095   4.899  15.960  0.00  0.00    +0.000 NA
ATOM     13  C   UNL     1      48.994   5.921  16.434  0.00  0.00    +0.000 A 
ATOM     14  H   UNL     1      49.029   2.895  18.220  0.00  0.00    +0.000 HD
BRANCH   6  15
ATOM     15  C   UNL     1      51.813   4.341  18.042  0.00  0.00    +0.000 C 
ATOM     16  O   UNL     1      51.662   3.250  17.494  0.00  0.00    +0.000 OA
ATOM     17  N   UNL     1      52.730   4.508  19.099  0.00  0.00    +0.000 N 
ATOM     18  C   UNL     1      53.053   5.736  19.824  0.00  0.00    +0.000 C 
ATOM     19  C   UNL     1      53.349   3.309  19.646  0.00  0.00    +0.000 C 
ENDBRANCH   6  15
ENDBRANCH   2   3
BRANCH   2  20
ATOM     20  N   UNL     1      47.497   7.315  14.421  0.00  0.00    +0.000 NA
ATOM     21  H   UNL     1      47.584   6.319  14.613  0.00  0.00    +0.000 HD
BRANCH  20  22
ATOM     22  C   UNL     1      47.029   7.525  13.063  0.00  0.00    +0.000 C 
BRANCH  22  23
ATOM     23  C   UNL     1      46.126   6.457  12.523  0.00  0.00    +0.000 A 
ATOM     24  C   UNL     1      45.614   5.469  13.362  0.00  0.00    +0.000 A 
ATOM     25  C   UNL     1      44.819   4.455  12.837  0.00  0.00    +0.000 A 
ATOM     26  C   UNL     1      44.548   4.453  11.472  0.00  0.00    +0.000 A 
ATOM     27  N   UNL     1      45.037   5.400  10.631  0.00  0.00    +0.000 NA
ATOM     28  C   UNL     1      45.809   6.373  11.172  0.00  0.00    +0.000 A 
BRANCH  26  29
ATOM     29  C   UNL     1      43.702   3.345  10.870  0.00  0.00    +0.000 C 
BRANCH  29  30
ATOM     30  N   UNL     1      43.957   3.083   9.447  0.00  0.00    +0.000 NA
ATOM     31  H   UNL     1      44.488   3.877   9.088  0.00  0.00    +0.000 HD
BRANCH  30  32
ATOM     32  C   UNL     1      44.752   1.876   9.232  0.00  0.00    +0.000 C 
BRANCH  32  33
ATOM     33  C   UNL     1      45.767   2.101   8.136  0.00  0.00    +0.000 A 
ATOM     34  C   UNL     1      46.674   1.087   7.789  0.00  0.00    +0.000 A 
ATOM     35  C   UNL     1      47.600   1.286   6.765  0.00  0.00    +0.000 A 
ATOM     36  C   UNL     1      47.640   2.503   6.087  0.00  0.00    +0.000 A 
ATOM     37  C   UNL     1      46.768   3.530   6.446  0.00  0.00    +0.000 A 
ATOM     38  C   UNL     1      45.839   3.332   7.469  0.00  0.00    +0.000 A 
ENDBRANCH  32  33
ENDBRANCH  30  32
ENDBRANCH  29  30
ENDBRANCH  26  29
ENDBRANCH  22  23
ENDBRANCH  20  22
ENDBRANCH   2  20
TORSDOF 9
ENDMDL
MODEL 3
REMARK VINA RESULT:    -8.005      2.308      3.212
REMARK INTER + INTRA:         -13.905
REMARK INTER:                 -12.224
REMARK INTRA:                  -1.681
REMARK UNBOUND:                -1.688
REMARK  Name = 
REMARK  12 active torsions:
REMARK  status: ('A' for Active; 'I' for Inactive)
REMARK    1  A    between atoms: C_1  and  C_2
REMARK    2  A    between atoms: C_2  and  N_3
REMARK    3  A    between atoms: C_2  and  C_20
REMARK    4  A    between atoms: N_3  and  C_4
REMARK    5  A    between atoms: C_4  and  C_5
REMARK    6  A    between atoms: C_8  and  C_9
REMARK    7  A    between atoms: C_9  and  N_10
REMARK    8  A    between atoms: N_10  and  C_11
REMARK    9  A    between atoms: C_11  and  C_12
REMARK   10  A    between atoms: C_23  and  C_24
REMARK   11  A    between atoms: N_26  and  C_27
REMARK   12  A    between atoms: N_26  and  C_28
REMARK                            x       y       z     vdW  Elec       q    Type
REMARK                         _______ _______ _______ _____ _____    ______ ____
ROOT
ATOM      1  C   UNL     1      47.112   3.370  17.193  0.00  0.00    +0.000 C 
ATOM      2  C   UNL     1      47.715   4.771  16.971  0.00  0.00    +0.000 C 
ENDROOT
BRANCH   2   3
ATOM      3  C   UNL     1      48.863   5.073  17.953  0.00  0.00    +0.000 A 
ATOM      4  C   UNL     1      48.533   5.064  19.333  0.00  0.00    +0.000 A 
ATOM      5  C   UNL     1      49.512   5.003  20.318  0.00  0.00    +0.000 A 
ATOM      6  C   UNL     1      50.833   4.814  19.931  0.00  0.00    +0.000 A 
ATOM      7  C   UNL     1      51.055   4.440  18.615  0.00  0.00    +0.000 A 
ATOM      8  C   UNL     1      52.321   4.016  18.067  0.00  0.00    +0.000 A 
ATOM      9  O   UNL     1      52.523   2.829  17.813  0.00  0.00    +0.000 OA
ATOM     10  N   UNL     1      52.987   5.050  17.515  0.00  0.00    +0.000 N 
ATOM     11  C   UNL     1      52.202   5.898  16.774  0.00  0.00    +0.000 A 
ATOM     12  N   UNL     1      50.887   5.781  16.656  0.00  0.00    +0.000 NA
ATOM     13  C   UNL     1      50.236   4.938  17.626  0.00  0.00    +0.000 A 
ATOM     14  H   UNL     1      53.671   5.484  18.125  0.00  0.00    +0.000 HD
BRANCH   6  15
ATOM     15  C   UNL     1      51.995   5.199  20.768  0.00  0.00    +0.000 C 
ATOM     16  O   UNL     1      52.556   4.298  21.391  0.00  0.00    +0.000 OA
ATOM     17  N   UNL     1      52.529   6.502  20.727  0.00  0.00    +0.000 N 
ATOM     18  C   UNL     1      52.010   7.664  20.008  0.00  0.00    +0.000 C 
ATOM     19  C   UNL     1      53.658   6.793  21.599  0.00  0.00    +0.000 C 
ENDBRANCH   6  15
ENDBRANCH   2   3
BRANCH   2  20
ATOM     20  N   UNL     1      48.326   4.885  15.628  0.00  0.00    +0.000 NA
ATOM     21  H   UNL     1      49.307   5.138  15.733  0.00  0.00    +0.000 HD
BRANCH  20  22
ATOM     22  C   UNL     1      47.695   5.727  14.629  0.00  0.00    +0.000 C 
BRANCH  22  23
ATOM     23  C   UNL     1      46.645   5.057  13.795  0.00  0.00    +0.000 A 
ATOM     24  C   UNL     1      45.564   5.783  13.297  0.00  0.00    +0.000 A 
ATOM     25  C   UNL     1      44.571   5.137  12.568  0.00  0.00    +0.000 A 
ATOM     26  C   UNL     1      44.681   3.768  12.348  0.00  0.00    +0.000 A 
ATOM     27  N   UNL     1      45.720   3.035  12.826  0.00  0.00    +0.000 NA
ATOM     28  C   UNL     1      46.670   3.692  13.533  0.00  0.00    +0.000 A 
BRANCH  26  29
ATOM     29  C   UNL     1      43.598   3.035  11.576  0.00  0.00    +0.000 C 
BRANCH  29  30
ATOM     30  N   UNL     1      44.054   2.404  10.331  0.00  0.00    +0.000 NA
ATOM     31  H   UNL     1      43.277   1.843   9.979  0.00  0.00    +0.000 HD
BRANCH  30  32
ATOM     32  C   UNL     1      44.406   3.380   9.302  0.00  0.00    +0.000 C 
BRANCH  32  33
ATOM     33  C   UNL     1      45.483   2.828   8.397  0.00  0.00    +0.000 A 
ATOM     34  C   UNL     1      45.850   1.475   8.474  0.00  0.00    +0.000 A 
ATOM     35  C   UNL     1      46.831   0.958   7.627  0.00  0.00    +0.000 A 
ATOM     36  C   UNL     1      47.465   1.789   6.705  0.00  0.00    +0.000 A 
ATOM     37  C   UNL     1      47.133   3.142   6.643  0.00  0.00    +0.000 A 
ATOM     38  C   UNL     1      46.151   3.661   7.489  0.00  0.00    +0.000 A 
ENDBRANCH  32  33
ENDBRANCH  30  32
ENDBRANCH  29  30
ENDBRANCH  26  29
ENDBRANCH  22  23
ENDBRANCH  20  22
ENDBRANCH   2  20
TORSDOF 9
ENDMDL
MODEL 4
REMARK VINA RESULT:    -7.877      1.909      2.815
REMARK INTER + INTRA:         -13.710
REMARK INTER:                 -12.236
REMARK INTRA:                  -1.474
REMARK UNBOUND:                -1.688
REMARK  Name = 
REMARK  12 active torsions:
REMARK  status: ('A' for Active; 'I' for Inactive)
REMARK    1  A    between atoms: C_1  and  C_2
REMARK    2  A    between atoms: C_2  and  N_3
REMARK    3  A    between atoms: C_2  and  C_20
REMARK    4  A    between atoms: N_3  and  C_4
REMARK    5  A    between atoms: C_4  and  C_5
REMARK    6  A    between atoms: C_8  and  C_9
REMARK    7  A    between atoms: C_9  and  N_10
REMARK    8  A    between atoms: N_10  and  C_11
REMARK    9  A    between atoms: C_11  and  C_12
REMARK   10  A    between atoms: C_23  and  C_24
REMARK   11  A    between atoms: N_26  and  C_27
REMARK   12  A    between atoms: N_26  and  C_28
REMARK                            x       y       z     vdW  Elec       q    Type
REMARK                         _______ _______ _______ _____ _____    ______ ____
ROOT
ATOM      1  C   UNL     1      48.940   2.210  16.688  0.00  0.00    +0.000 C 
ATOM      2  C   UNL     1      47.828   3.253  16.457  0.00  0.00    +0.000 C 
ENDROOT
BRANCH   2   3
ATOM      3  C   UNL     1      48.079   4.555  17.242  0.00  0.00    +0.000 A 
ATOM      4  C   UNL     1      47.044   4.975  18.116  0.00  0.00    +0.000 A 
ATOM      5  C   UNL     1      47.262   5.931  19.101  0.00  0.00    +0.000 A 
ATOM      6  C   UNL     1      48.559   6.384  19.311  0.00  0.00    +0.000 A 
ATOM      7  C   UNL     1      49.581   5.667  18.708  0.00  0.00    +0.000 A 
ATOM      8  C   UNL     1      50.991   5.855  18.949  0.00  0.00    +0.000 A 
ATOM      9  O   UNL     1      51.622   5.040  19.621  0.00  0.00    +0.000 OA
ATOM     10  N   UNL     1      51.534   6.702  18.052  0.00  0.00    +0.000 N 
ATOM     11  C   UNL     1      51.108   6.507  16.761  0.00  0.00    +0.000 A 
ATOM     12  N   UNL     1      50.187   5.623  16.407  0.00  0.00    +0.000 NA
ATOM     13  C   UNL     1      49.367   5.102  17.471  0.00  0.00    +0.000 A 
ATOM     14  H   UNL     1      51.598   7.664  18.366  0.00  0.00    +0.000 HD
BRANCH   6  15
ATOM     15  C   UNL     1      48.880   7.687  19.943  0.00  0.00    +0.000 C 
ATOM     16  O   UNL     1      49.221   7.664  21.125  0.00  0.00    +0.000 OA
ATOM     17  N   UNL     1      48.947   8.873  19.186  0.00  0.00    +0.000 N 
ATOM     18  C   UNL     1      48.619   9.057  17.773  0.00  0.00    +0.000 C 
ATOM     19  C   UNL     1      49.249  10.107  19.896  0.00  0.00    +0.000 C 
ENDBRANCH   6  15
ENDBRANCH   2   3
BRANCH   2  20
ATOM     20  N   UNL     1      47.773   3.672  15.038  0.00  0.00    +0.000 NA
ATOM     21  H   UNL     1      48.711   3.623  14.644  0.00  0.00    +0.000 HD
BRANCH  20  22
ATOM     22  C   UNL     1      47.150   4.936  14.694  0.00  0.00    +0.000 C 
BRANCH  22  23
ATOM     23  C   UNL     1      46.266   4.908  13.483  0.00  0.00    +0.000 A 
ATOM     24  C   UNL     1      46.566   5.686  12.367  0.00  0.00    +0.000 A 
ATOM     25  C   UNL     1      45.708   5.688  11.271  0.00  0.00    +0.000 A 
ATOM     26  C   UNL     1      44.560   4.903  11.315  0.00  0.00    +0.000 A 
ATOM     27  N   UNL     1      44.241   4.140  12.391  0.00  0.00    +0.000 NA
ATOM     28  C   UNL     1      45.094   4.159  13.443  0.00  0.00    +0.000 A 
BRANCH  26  29
ATOM     29  C   UNL     1      43.596   4.906  10.142  0.00  0.00    +0.000 C 
BRANCH  29  30
ATOM     30  N   UNL     1      44.130   4.316   8.908  0.00  0.00    +0.000 NA
ATOM     31  H   UNL     1      44.951   4.863   8.647  0.00  0.00    +0.000 HD
BRANCH  30  32
ATOM     32  C   UNL     1      44.551   2.928   9.086  0.00  0.00    +0.000 C 
BRANCH  32  33
ATOM     33  C   UNL     1      45.626   2.571   8.086  0.00  0.00    +0.000 A 
ATOM     34  C   UNL     1      45.977   3.472   7.068  0.00  0.00    +0.000 A 
ATOM     35  C   UNL     1      46.981   3.152   6.154  0.00  0.00    +0.000 A 
ATOM     36  C   UNL     1      47.637   1.925   6.239  0.00  0.00    +0.000 A 
ATOM     37  C   UNL     1      47.274   1.008   7.225  0.00  0.00    +0.000 A 
ATOM     38  C   UNL     1      46.270   1.327   8.141  0.00  0.00    +0.000 A 
ENDBRANCH  32  33
ENDBRANCH  30  32
ENDBRANCH  29  30
ENDBRANCH  26  29
ENDBRANCH  22  23
ENDBRANCH  20  22
ENDBRANCH   2  20
TORSDOF 9
ENDMDL
MODEL 5
REMARK VINA RESULT:    -7.297      2.006      3.285
REMARK INTER + INTRA:         -12.825
REMARK INTER:                 -11.337
REMARK INTRA:                  -1.488
REMARK UNBOUND:                -1.688
REMARK  Name = 
REMARK  12 active torsions:
REMARK  status: ('A' for Active; 'I' for Inactive)
REMARK    1  A    between atoms: C_1  and  C_2
REMARK    2  A    between atoms: C_2  and  N_3
REMARK    3  A    between atoms: C_2  and  C_20
REMARK    4  A    between atoms: N_3  and  C_4
REMARK    5  A    between atoms: C_4  and  C_5
REMARK    6  A    between atoms: C_8  and  C_9
REMARK    7  A    between atoms: C_9  and  N_10
REMARK    8  A    between atoms: N_10  and  C_11
REMARK    9  A    between atoms: C_11  and  C_12
REMARK   10  A    between atoms: C_23  and  C_24
REMARK   11  A    between atoms: N_26  and  C_27
REMARK   12  A    between atoms: N_26  and  C_28
REMARK                            x       y       z     vdW  Elec       q    Type
REMARK                         _______ _______ _______ _____ _____    ______ ____
ROOT
ATOM      1  C   UNL     1      48.294   2.972  16.946  0.00  0.00    +0.000 C 
ATOM      2  C   UNL     1      47.561   4.288  17.274  0.00  0.00    +0.000 C 
ENDROOT
BRANCH   2   3
ATOM      3  C   UNL     1      48.464   5.284  18.027  0.00  0.00    +0.000 A 
ATOM      4  C   UNL     1      49.716   5.579  17.427  0.00  0.00    +0.000 A 
ATOM      5  C   UNL     1      50.474   6.677  17.820  0.00  0.00    +0.000 A 
ATOM      6  C   UNL     1      49.925   7.572  18.730  0.00  0.00    +0.000 A 
ATOM      7  C   UNL     1      48.567   7.455  18.984  0.00  0.00    +0.000 A 
ATOM      8  C   UNL     1      47.774   8.393  19.743  0.00  0.00    +0.000 A 
ATOM      9  O   UNL     1      46.994   9.155  19.171  0.00  0.00    +0.000 OA
ATOM     10  N   UNL     1      47.688   8.028  21.038  0.00  0.00    +0.000 N 
ATOM     11  C   UNL     1      47.485   6.685  21.236  0.00  0.00    +0.000 A 
ATOM     12  N   UNL     1      47.448   5.788  20.261  0.00  0.00    +0.000 NA
ATOM     13  C   UNL     1      47.988   6.206  18.993  0.00  0.00    +0.000 A 
ATOM     14  H   UNL     1      48.364   8.477  21.647  0.00  0.00    +0.000 HD
BRANCH   6  15
ATOM     15  C   UNL     1      50.735   8.472  19.585  0.00  0.00    +0.000 C 
ATOM     16  O   UNL     1      50.827   9.646  19.228  0.00  0.00    +0.000 OA
ATOM     17  N   UNL     1      51.242   8.044  20.828  0.00  0.00    +0.000 N 
ATOM     18  C   UNL     1      51.180   6.705  21.411  0.00  0.00    +0.000 C 
ATOM     19  C   UNL     1      52.044   8.991  21.588  0.00  0.00    +0.000 C 
ENDBRANCH   6  15
ENDBRANCH   2   3
BRANCH   2  20
ATOM     20  N   UNL     1      47.160   5.000  16.040  0.00  0.00    +0.000 NA
ATOM     21  H   UNL     1      46.154   5.158  16.064  0.00  0.00    +0.000 HD
BRANCH  20  22
ATOM     22  C   UNL     1      47.553   4.463  14.751  0.00  0.00    +0.000 C 
BRANCH  22  23
ATOM     23  C   UNL     1      46.476   4.442  13.708  0.00  0.00    +0.000 A 
ATOM     24  C   UNL     1      46.098   3.246  13.101  0.00  0.00    +0.000 A 
ATOM     25  C   UNL     1      45.133   3.250  12.099  0.00  0.00    +0.000 A 
ATOM     26  C   UNL     1      44.561   4.461  11.723  0.00  0.00    +0.000 A 
ATOM     27  N   UNL     1      44.914   5.642  12.292  0.00  0.00    +0.000 NA
ATOM     28  C   UNL     1      45.856   5.606  13.264  0.00  0.00    +0.000 A 
BRANCH  26  29
ATOM     29  C   UNL     1      43.523   4.496  10.615  0.00  0.00    +0.000 C 
BRANCH  29  30
ATOM     30  N   UNL     1      43.831   3.645   9.459  0.00  0.00    +0.000 NA
ATOM     31  H   UNL     1      42.960   3.514   8.944  0.00  0.00    +0.000 HD
BRANCH  30  32
ATOM     32  C   UNL     1      44.801   4.257   8.553  0.00  0.00    +0.000 C 
BRANCH  32  33
ATOM     33  C   UNL     1      45.728   3.207   7.986  0.00  0.00    +0.000 A 
ATOM     34  C   UNL     1      45.738   1.907   8.516  0.00  0.00    +0.000 A 
ATOM     35  C   UNL     1      46.580   0.931   7.982  0.00  0.00    +0.000 A 
ATOM     36  C   UNL     1      47.431   1.247   6.924  0.00  0.00    +0.000 A 
ATOM     37  C   UNL     1      47.455   2.543   6.413  0.00  0.00    +0.000 A 
ATOM     38  C   UNL     1      46.612   3.521   6.944  0.00  0.00    +0.000 A 
ENDBRANCH  32  33
ENDBRANCH  30  32
ENDBRANCH  29  30
ENDBRANCH  26  29
ENDBRANCH  22  23
ENDBRANCH  20  22
ENDBRANCH   2  20
TORSDOF 9
ENDMDL
MODEL 6
REMARK VINA RESULT:    -6.300      1.489      2.283
REMARK INTER + INTRA:         -11.303
REMARK INTER:                 -10.833
REMARK INTRA:                  -0.471
REMARK UNBOUND:                -1.688
REMARK  Name = 
REMARK  12 active torsions:
REMARK  status: ('A' for Active; 'I' for Inactive)
REMARK    1  A    between atoms: C_1  and  C_2
REMARK    2  A    between atoms: C_2  and  N_3
REMARK    3  A    between atoms: C_2  and  C_20
REMARK    4  A    between atoms: N_3  and  C_4
REMARK    5  A    between atoms: C_4  and  C_5
REMARK    6  A    between atoms: C_8  and  C_9
REMARK    7  A    between atoms: C_9  and  N_10
REMARK    8  A    between atoms: N_10  and  C_11
REMARK    9  A    between atoms: C_11  and  C_12
REMARK   10  A    between atoms: C_23  and  C_24
REMARK   11  A    between atoms: N_26  and  C_27
REMARK   12  A    between atoms: N_26  and  C_28
REMARK                            x       y       z     vdW  Elec       q    Type
REMARK                         _______ _______ _______ _____ _____    ______ ____
ROOT
ATOM      1  C   UNL     1      47.362   3.868  15.369  0.00  0.00    +0.000 C 
ATOM      2  C   UNL     1      47.596   5.365  15.654  0.00  0.00    +0.000 C 
ENDROOT
BRANCH   2   3
ATOM      3  C   UNL     1      48.574   5.588  16.823  0.00  0.00    +0.000 A 
ATOM      4  C   UNL     1      49.491   6.662  16.683  0.00  0.00    +0.000 A 
ATOM      5  C   UNL     1      50.197   7.167  17.769  0.00  0.00    +0.000 A 
ATOM      6  C   UNL     1      49.893   6.690  19.039  0.00  0.00    +0.000 A 
ATOM      7  C   UNL     1      48.734   5.940  19.167  0.00  0.00    +0.000 A 
ATOM      8  C   UNL     1      48.146   5.515  20.415  0.00  0.00    +0.000 A 
ATOM      9  O   UNL     1      47.128   6.061  20.841  0.00  0.00    +0.000 OA
ATOM     10  N   UNL     1      48.563   4.280  20.759  0.00  0.00    +0.000 N 
ATOM     11  C   UNL     1      48.609   3.387  19.717  0.00  0.00    +0.000 A 
ATOM     12  N   UNL     1      48.346   3.702  18.457  0.00  0.00    +0.000 NA
ATOM     13  C   UNL     1      48.354   5.107  18.138  0.00  0.00    +0.000 A 
ATOM     14  H   UNL     1      49.347   4.265  21.402  0.00  0.00    +0.000 HD
BRANCH   6  15
ATOM     15  C   UNL     1      50.832   6.752  20.184  0.00  0.00    +0.000 C 
ATOM     16  O   UNL     1      50.653   7.652  21.004  0.00  0.00    +0.000 OA
ATOM     17  N   UNL     1      51.783   5.737  20.408  0.00  0.00    +0.000 N 
ATOM     18  C   UNL     1      52.087   4.587  19.559  0.00  0.00    +0.000 C 
ATOM     19  C   UNL     1      52.677   5.894  21.547  0.00  0.00    +0.000 C 
ENDBRANCH   6  15
ENDBRANCH   2   3
BRANCH   2  20
ATOM     20  N   UNL     1      48.228   6.038  14.498  0.00  0.00    +0.000 NA
ATOM     21  H   UNL     1      49.095   6.476  14.806  0.00  0.00    +0.000 HD
BRANCH  20  22
ATOM     22  C   UNL     1      47.449   6.971  13.705  0.00  0.00    +0.000 C 
BRANCH  22  23
ATOM     23  C   UNL     1      46.477   6.347  12.750  0.00  0.00    +0.000 A 
ATOM     24  C   UNL     1      45.427   7.093  12.217  0.00  0.00    +0.000 A 
ATOM     25  C   UNL     1      44.503   6.486  11.372  0.00  0.00    +0.000 A 
ATOM     26  C   UNL     1      44.651   5.135  11.075  0.00  0.00    +0.000 A 
ATOM     27  N   UNL     1      45.661   4.383  11.584  0.00  0.00    +0.000 NA
ATOM     28  C   UNL     1      46.543   5.001  12.404  0.00  0.00    +0.000 A 
BRANCH  26  29
ATOM     29  C   UNL     1      43.642   4.443  10.174  0.00  0.00    +0.000 C 
BRANCH  29  30
ATOM     30  N   UNL     1      44.040   4.354   8.764  0.00  0.00    +0.000 NA
ATOM     31  H   UNL     1      43.562   5.109   8.271  0.00  0.00    +0.000 HD
BRANCH  30  32
ATOM     32  C   UNL     1      45.477   4.533   8.573  0.00  0.00    +0.000 C 
BRANCH  32  33
ATOM     33  C   UNL     1      46.068   3.336   7.863  0.00  0.00    +0.000 A 
ATOM     34  C   UNL     1      46.675   3.484   6.607  0.00  0.00    +0.000 A 
ATOM     35  C   UNL     1      47.237   2.384   5.957  0.00  0.00    +0.000 A 
ATOM     36  C   UNL     1      47.186   1.124   6.550  0.00  0.00    +0.000 A 
ATOM     37  C   UNL     1      46.555   0.958   7.782  0.00  0.00    +0.000 A 
ATOM     38  C   UNL     1      45.994   2.058   8.434  0.00  0.00    +0.000 A 
ENDBRANCH  32  33
ENDBRANCH  30  32
ENDBRANCH  29  30
ENDBRANCH  26  29
ENDBRANCH  22  23
ENDBRANCH  20  22
ENDBRANCH   2  20
TORSDOF 9
ENDMDL
MODEL 7
REMARK VINA RESULT:    -6.152      3.427      9.508
REMARK INTER + INTRA:         -11.077
REMARK INTER:                  -9.446
REMARK INTRA:                  -1.630
REMARK UNBOUND:                -1.688
REMARK  Name = 
REMARK  12 active torsions:
REMARK  status: ('A' for Active; 'I' for Inactive)
REMARK    1  A    between atoms: C_1  and  C_2
REMARK    2  A    between atoms: C_2  and  N_3
REMARK    3  A    between atoms: C_2  and  C_20
REMARK    4  A    between atoms: N_3  and  C_4
REMARK    5  A    between atoms: C_4  and  C_5
REMARK    6  A    between atoms: C_8  and  C_9
REMARK    7  A    between atoms: C_9  and  N_10
REMARK    8  A    between atoms: N_10  and  C_11
REMARK    9  A    between atoms: C_11  and  C_12
REMARK   10  A    between atoms: C_23  and  C_24
REMARK   11  A    between atoms: N_26  and  C_27
REMARK   12  A    between atoms: N_26  and  C_28
REMARK                            x       y       z     vdW  Elec       q    Type
REMARK                         _______ _______ _______ _____ _____    ______ ____
ROOT
ATOM      1  C   UNL     1      44.349   4.364  12.914  0.00  0.00    +0.000 C 
ATOM      2  C   UNL     1      45.859   4.609  13.101  0.00  0.00    +0.000 C 
ENDROOT
BRANCH   2   3
ATOM      3  C   UNL     1      46.284   6.012  12.626  0.00  0.00    +0.000 A 
ATOM      4  C   UNL     1      45.342   6.725  11.840  0.00  0.00    +0.000 A 
ATOM      5  C   UNL     1      45.460   8.093  11.620  0.00  0.00    +0.000 A 
ATOM      6  C   UNL     1      46.452   8.791  12.296  0.00  0.00    +0.000 A 
ATOM      7  C   UNL     1      47.087   8.131  13.337  0.00  0.00    +0.000 A 
ATOM      8  C   UNL     1      48.003   8.734  14.276  0.00  0.00    +0.000 A 
ATOM      9  O   UNL     1      47.647   8.966  15.431  0.00  0.00    +0.000 OA
ATOM     10  N   UNL     1      49.282   8.592  13.874  0.00  0.00    +0.000 N 
ATOM     11  C   UNL     1      49.582   7.351  13.369  0.00  0.00    +0.000 A 
ATOM     12  N   UNL     1      48.694   6.381  13.206  0.00  0.00    +0.000 NA
ATOM     13  C   UNL     1      47.309   6.776  13.239  0.00  0.00    +0.000 A 
ATOM     14  H   UNL     1      49.655   9.388  13.369  0.00  0.00    +0.000 HD
BRANCH   6  15
ATOM     15  C   UNL     1      47.006  10.085  11.831  0.00  0.00    +0.000 C 
ATOM     16  O   UNL     1      48.209  10.116  11.572  0.00  0.00    +0.000 OA
ATOM     17  N   UNL     1      46.168  11.181  11.544  0.00  0.00    +0.000 N 
ATOM     18  C   UNL     1      44.725  11.288  11.752  0.00  0.00    +0.000 C 
ATOM     19  C   UNL     1      46.804  12.418  11.112  0.00  0.00    +0.000 C 
ENDBRANCH   6  15
ENDBRANCH   2   3
BRANCH   2  20
ATOM     20  N   UNL     1      46.236   4.565  14.532  0.00  0.00    +0.000 NA
ATOM     21  H   UNL     1      46.477   5.505  14.838  0.00  0.00    +0.000 HD
BRANCH  20  22
ATOM     22  C   UNL     1      47.247   3.620  14.971  0.00  0.00    +0.000 C 
BRANCH  22  23
ATOM     23  C   UNL     1      47.827   3.885  16.328  0.00  0.00    +0.000 A 
ATOM     24  C   UNL     1      47.807   2.900  17.314  0.00  0.00    +0.000 A 
ATOM     25  C   UNL     1      48.302   3.178  18.584  0.00  0.00    +0.000 A 
ATOM     26  C   UNL     1      48.814   4.446  18.843  0.00  0.00    +0.000 A 
ATOM     27  N   UNL     1      48.841   5.426  17.904  0.00  0.00    +0.000 NA
ATOM     28  C   UNL     1      48.350   5.126  16.678  0.00  0.00    +0.000 A 
BRANCH  26  29
ATOM     29  C   UNL     1      49.339   4.782  20.227  0.00  0.00    +0.000 C 
BRANCH  29  30
ATOM     30  N   UNL     1      49.176   6.187  20.620  0.00  0.00    +0.000 NA
ATOM     31  H   UNL     1      49.253   6.746  19.770  0.00  0.00    +0.000 HD
BRANCH  30  32
ATOM     32  C   UNL     1      47.870   6.456  21.218  0.00  0.00    +0.000 C 
BRANCH  32  33
ATOM     33  C   UNL     1      47.426   7.865  20.903  0.00  0.00    +0.000 A 
ATOM     34  C   UNL     1      47.501   8.357  19.591  0.00  0.00    +0.000 A 
ATOM     35  C   UNL     1      47.075   9.652  19.294  0.00  0.00    +0.000 A 
ATOM     36  C   UNL     1      46.582  10.474  20.307  0.00  0.00    +0.000 A 
ATOM     37  C   UNL     1      46.535  10.008  21.620  0.00  0.00    +0.000 A 
ATOM     38  C   UNL     1      46.960   8.712  21.919  0.00  0.00    +0.000 A 
ENDBRANCH  32  33
ENDBRANCH  30  32
ENDBRANCH  29  30
ENDBRANCH  26  29
ENDBRANCH  22  23
ENDBRANCH  20  22
ENDBRANCH   2  20
TORSDOF 9
ENDMDL
MODEL 8
REMARK VINA RESULT:    -6.134      2.081      3.015
REMARK INTER + INTRA:         -11.050
REMARK INTER:                 -10.572
REMARK INTRA:                  -0.477
REMARK UNBOUND:                -1.688
REMARK  Name = 
REMARK  12 active torsions:
REMARK  status: ('A' for Active; 'I' for Inactive)
REMARK    1  A    between atoms: C_1  and  C_2
REMARK    2  A    between atoms: C_2  and  N_3
REMARK    3  A    between atoms: C_2  and  C_20
REMARK    4  A    between atoms: N_3  and  C_4
REMARK    5  A    between atoms: C_4  and  C_5
REMARK    6  A    between atoms: C_8  and  C_9
REMARK    7  A    between atoms: C_9  and  N_10
REMARK    8  A    between atoms: N_10  and  C_11
REMARK    9  A    between atoms: C_11  and  C_12
REMARK   10  A    between atoms: C_23  and  C_24
REMARK   11  A    between atoms: N_26  and  C_27
REMARK   12  A    between atoms: N_26  and  C_28
REMARK                            x       y       z     vdW  Elec       q    Type
REMARK                         _______ _______ _______ _____ _____    ______ ____
ROOT
ATOM      1  C   UNL     1      47.285   3.638  15.279  0.00  0.00    +0.000 C 
ATOM      2  C   UNL     1      47.571   5.061  15.798  0.00  0.00    +0.000 C 
ENDROOT
BRANCH   2   3
ATOM      3  C   UNL     1      48.521   5.057  17.012  0.00  0.00    +0.000 A 
ATOM      4  C   UNL     1      49.301   3.886  17.199  0.00  0.00    +0.000 A 
ATOM      5  C   UNL     1      50.406   3.872  18.043  0.00  0.00    +0.000 A 
ATOM      6  C   UNL     1      50.824   5.070  18.611  0.00  0.00    +0.000 A 
ATOM      7  C   UNL     1      50.276   6.234  18.095  0.00  0.00    +0.000 A 
ATOM      8  C   UNL     1      50.710   7.574  18.410  0.00  0.00    +0.000 A 
ATOM      9  O   UNL     1      51.361   8.226  17.594  0.00  0.00    +0.000 OA
ATOM     10  N   UNL     1      49.986   8.100  19.419  0.00  0.00    +0.000 N 
ATOM     11  C   UNL     1      48.639   7.847  19.340  0.00  0.00    +0.000 A 
ATOM     12  N   UNL     1      48.078   7.090  18.408  0.00  0.00    +0.000 NA
ATOM     13  C   UNL     1      48.967   6.231  17.668  0.00  0.00    +0.000 A 
ATOM     14  H   UNL     1      50.411   8.006  20.335  0.00  0.00    +0.000 HD
BRANCH   6  15
ATOM     15  C   UNL     1      51.631   5.151  19.852  0.00  0.00    +0.000 C 
ATOM     16  O   UNL     1      52.835   5.368  19.720  0.00  0.00    +0.000 OA
ATOM     17  N   UNL     1      51.024   5.140  21.123  0.00  0.00    +0.000 N 
ATOM     18  C   UNL     1      49.613   4.938  21.444  0.00  0.00    +0.000 C 
ATOM     19  C   UNL     1      51.899   5.203  22.285  0.00  0.00    +0.000 C 
ENDBRANCH   6  15
ENDBRANCH   2   3
BRANCH   2  20
ATOM     20  N   UNL     1      48.268   5.874  14.776  0.00  0.00    +0.000 NA
ATOM     21  H   UNL     1      49.080   6.316  15.204  0.00  0.00    +0.000 HD
BRANCH  20  22
ATOM     22  C   UNL     1      47.514   6.848  14.008  0.00  0.00    +0.000 C 
BRANCH  22  23
ATOM     23  C   UNL     1      46.520   6.275  13.043  0.00  0.00    +0.000 A 
ATOM     24  C   UNL     1      45.412   7.018  12.641  0.00  0.00    +0.000 A 
ATOM     25  C   UNL     1      44.471   6.453  11.785  0.00  0.00    +0.000 A 
ATOM     26  C   UNL     1      44.662   5.147  11.344  0.00  0.00    +0.000 A 
ATOM     27  N   UNL     1      45.730   4.399  11.724  0.00  0.00    +0.000 NA
ATOM     28  C   UNL     1      46.627   4.976  12.558  0.00  0.00    +0.000 A 
BRANCH  26  29
ATOM     29  C   UNL     1      43.638   4.500  10.428  0.00  0.00    +0.000 C 
BRANCH  29  30
ATOM     30  N   UNL     1      43.983   4.534   9.002  0.00  0.00    +0.000 NA
ATOM     31  H   UNL     1      43.508   5.341   8.598  0.00  0.00    +0.000 HD
BRANCH  30  32
ATOM     32  C   UNL     1      45.418   4.697   8.775  0.00  0.00    +0.000 C 
BRANCH  32  33
ATOM     33  C   UNL     1      45.973   3.506   8.029  0.00  0.00    +0.000 A 
ATOM     34  C   UNL     1      46.565   3.672   6.767  0.00  0.00    +0.000 A 
ATOM     35  C   UNL     1      47.094   2.577   6.084  0.00  0.00    +0.000 A 
ATOM     36  C   UNL     1      47.026   1.303   6.647  0.00  0.00    +0.000 A 
ATOM     37  C   UNL     1      46.409   1.122   7.884  0.00  0.00    +0.000 A 
ATOM     38  C   UNL     1      45.880   2.216   8.570  0.00  0.00    +0.000 A 
ENDBRANCH  32  33
ENDBRANCH  30  32
ENDBRANCH  29  30
ENDBRANCH  26  29
ENDBRANCH  22  23
ENDBRANCH  20  22
ENDBRANCH   2  20
TORSDOF 9
ENDMDL
