MODEL 1
REMARK VINA RESULT:    -7.661      0.000      0.000
REMARK INTER + INTRA:         -11.340
REMARK INTER:                 -10.348
REMARK INTRA:                  -0.992
REMARK UNBOUND:                -0.992
REMARK  Name = 
REMARK  7 active torsions:
REMARK  status: ('A' for Active; 'I' for Inactive)
REMARK    1  A    between atoms: C_1  and  C_2
REMARK    2  A    between atoms: N_4  and  C_5
REMARK    3  A    between atoms: C_9  and  C_10
REMARK    4  A    between atoms: C_10  and  C_11
REMARK    5  A    between atoms: C_11  and  N_12
REMARK    6  A    between atoms: N_12  and  C_13
REMARK    7  A    between atoms: C_16  and  C_17
REMARK                            x       y       z     vdW  Elec       q    Type
REMARK                         _______ _______ _______ _____ _____    ______ ____
ROOT
ATOM      1  C   UNL     1      43.292   5.443  12.429  0.00  0.00    +0.000 C 
ENDROOT
BRANCH   1   6
ATOM      2  C   UNL     1      46.803   6.775  13.218  0.00  0.00    +0.000 A 
ATOM      3  C   UNL     1      47.434   5.577  13.580  0.00  0.00    +0.000 A 
ATOM      4  C   UNL     1      46.757   4.352  13.570  0.00  0.00    +0.000 A 
ATOM      5  C   UNL     1      45.420   4.293  13.188  0.00  0.00    +0.000 A 
ATOM      6  C   UNL     1      44.753   5.461  12.816  0.00  0.00    +0.000 A 
ATOM      7  C   UNL     1      45.452   6.683  12.849  0.00  0.00    +0.000 A 
BRANCH   2  11
ATOM      8  C   UNL     1      50.097   7.681  11.466  0.00  0.00    +0.000 C 
ATOM      9  C   UNL     1      49.355   8.950  11.901  0.00  0.00    +0.000 C 
ATOM     10  C   UNL     1      47.824   8.718  12.009  0.00  0.00    +0.000 C 
ATOM     11  N   UNL     1      47.473   7.979  13.230  0.00  0.00    +0.000 N 
ATOM     12  C   UNL     1      48.009   8.565  14.466  0.00  0.00    +0.000 C 
ATOM     13  C   UNL     1      49.535   8.781  14.333  0.00  0.00    +0.000 C 
ATOM     14  N   UNL     1      49.948   9.531  13.129  0.00  0.00    +0.000 NA
ATOM     15  H   UNL     1      50.964   9.511  13.059  0.00  0.00    +0.000 HD
ENDBRANCH   2  11
ENDBRANCH   1   6
BRANCH   1  16
ATOM     16  C   UNL     1      43.036   4.420  11.318  0.00  0.00    +0.000 C 
BRANCH  16  17
ATOM     17  N   UNL     1      43.609   4.860  10.037  0.00  0.00    +0.000 N 
ATOM     18  H   UNL     1      44.052   5.775  10.107  0.00  0.00    +0.000 HD
BRANCH  17  19
ATOM     19  C   UNL     1      44.443   3.933   9.384  0.00  0.00    +0.000 A 
ATOM     20  C   UNL     1      45.351   4.303   8.388  0.00  0.00    +0.000 A 
ATOM     21  C   UNL     1      46.179   3.358   7.786  0.00  0.00    +0.000 A 
ATOM     22  C   UNL     1      46.106   2.049   8.229  0.00  0.00    +0.000 A 
ATOM     23  N   UNL     1      45.289   1.635   9.236  0.00  0.00    +0.000 NA
ATOM     24  C   UNL     1      44.501   2.594   9.792  0.00  0.00    +0.000 A 
BRANCH  22  25
ATOM     25  C   UNL     1      46.972   1.014   7.582  0.00  0.00    +0.000 C 
ATOM     26  N   UNL     1      48.008   1.502   6.833  0.00  0.00    +0.000 N 
ATOM     27  O   UNL     1      46.778  -0.187   7.709  0.00  0.00    +0.000 OA
ATOM     28  H   UNL     1      48.129   2.503   6.741  0.00  0.00    +0.000 HD
ATOM     29  H   UNL     1      48.624   0.857   6.360  0.00  0.00    +0.000 HD
ENDBRANCH  22  25
ENDBRANCH  17  19
ENDBRANCH  16  17
ENDBRANCH   1  16
TORSDOF 6
ENDMDL
MODEL 2
REMARK VINA RESULT:    -7.632      2.822      3.771
REMARK INTER + INTRA:         -11.302
REMARK INTER:                 -10.559
REMARK INTRA:                  -0.742
REMARK UNBOUND:                -0.992
REMARK  Name = 
REMARK  7 active torsions:
REMARK  status: ('A' for Active; 'I' for Inactive)
REMARK    1  A    between atoms: C_1  and  C_2
REMARK    2  A    between atoms: N_4  and  C_5
REMARK    3  A    between atoms: C_9  and  C_10
REMARK    4  A    between atoms: C_10  and  C_11
REMARK    5  A    between atoms: C_11  and  N_12
REMARK    6  A    between atoms: N_12  and  C_13
REMARK    7  A    between atoms: C_16  and  C_17
REMARK                            x       y       z     vdW  Elec       q    Type
REMARK                         _______ _______ _______ _____ _____    ______ ____
ROOT
ATOM      1  C   UNL     1      45.190   3.941  12.338  0.00  0.00    +0.000 C 
ENDROOT
BRANCH   1   6
ATOM      2  C   UNL     1      47.495   4.945  15.237  0.00  0.00    +0.000 A 
ATOM      3  C   UNL     1      48.070   6.100  14.692  0.00  0.00    +0.000 A 
ATOM      4  C   UNL     1      47.730   6.565  13.416  0.00  0.00    +0.000 A 
ATOM      5  C   UNL     1      46.790   5.882  12.649  0.00  0.00    +0.000 A 
ATOM      6  C   UNL     1      46.188   4.729  13.155  0.00  0.00    +0.000 A 
ATOM      7  C   UNL     1      46.559   4.274  14.434  0.00  0.00    +0.000 A 
BRANCH   2  11
ATOM      8  C   UNL     1      50.767   5.505  17.167  0.00  0.00    +0.000 C 
ATOM      9  C   UNL     1      49.663   5.019  18.114  0.00  0.00    +0.000 C 
ATOM     10  C   UNL     1      48.248   5.380  17.587  0.00  0.00    +0.000 C 
ATOM     11  N   UNL     1      47.833   4.491  16.493  0.00  0.00    +0.000 N 
ATOM     12  C   UNL     1      47.932   3.059  16.808  0.00  0.00    +0.000 C 
ATOM     13  C   UNL     1      49.352   2.726  17.325  0.00  0.00    +0.000 C 
ATOM     14  N   UNL     1      49.819   3.581  18.436  0.00  0.00    +0.000 NA
ATOM     15  H   UNL     1      50.800   3.378  18.621  0.00  0.00    +0.000 HD
ENDBRANCH   2  11
ENDBRANCH   1   6
BRANCH   1  16
ATOM     16  C   UNL     1      44.504   4.838  11.305  0.00  0.00    +0.000 C 
BRANCH  16  17
ATOM     17  N   UNL     1      43.912   4.050  10.213  0.00  0.00    +0.000 N 
ATOM     18  H   UNL     1      43.141   4.538   9.759  0.00  0.00    +0.000 HD
BRANCH  17  19
ATOM     19  C   UNL     1      44.817   3.528   9.269  0.00  0.00    +0.000 A 
ATOM     20  C   UNL     1      45.630   4.340   8.472  0.00  0.00    +0.000 A 
ATOM     21  C   UNL     1      46.533   3.783   7.569  0.00  0.00    +0.000 A 
ATOM     22  C   UNL     1      46.633   2.404   7.512  0.00  0.00    +0.000 A 
ATOM     23  N   UNL     1      45.917   1.559   8.304  0.00  0.00    +0.000 NA
ATOM     24  C   UNL     1      45.049   2.151   9.168  0.00  0.00    +0.000 A 
BRANCH  22  25
ATOM     25  C   UNL     1      47.583   1.784   6.535  0.00  0.00    +0.000 C 
ATOM     26  N   UNL     1      48.703   2.521   6.259  0.00  0.00    +0.000 N 
ATOM     27  O   UNL     1      47.383   0.695   6.015  0.00  0.00    +0.000 OA
ATOM     28  H   UNL     1      48.827   3.424   6.701  0.00  0.00    +0.000 HD
ATOM     29  H   UNL     1      49.379   2.165   5.600  0.00  0.00    +0.000 HD
ENDBRANCH  22  25
ENDBRANCH  17  19
ENDBRANCH  16  17
ENDBRANCH   1  16
TORSDOF 6
ENDMDL
MODEL 3
REMARK VINA RESULT:    -7.342      1.354      2.194
REMARK INTER + INTRA:         -10.909
REMARK INTER:                 -10.102
REMARK INTRA:                  -0.807
REMARK UNBOUND:                -0.992
REMARK  Name = 
REMARK  7 active torsions:
REMARK  status: ('A' for Active; 'I' for Inactive)
REMARK    1  A    between atoms: C_1  and  C_2
REMARK    2  A    between atoms: N_4  and  C_5
REMARK    3  A    between atoms: C_9  and  C_10
REMARK    4  A    between atoms: C_10  and  C_11
REMARK    5  A    between atoms: C_11  and  N_12
REMARK    6  A    between atoms: N_12  and  C_13
REMARK    7  A    between atoms: C_16  and  C_17
REMARK                            x       y       z     vdW  Elec       q    Type
REMARK                         _______ _______ _______ _____ _____    ______ ____
ROOT
ATOM      1  C   UNL     1      43.724   4.261  12.696  0.00  0.00    +0.000 C 
ENDROOT
BRANCH   1   6
ATOM      2  C   UNL     1      46.760   6.605  12.789  0.00  0.00    +0.000 A 
ATOM      3  C   UNL     1      46.251   7.680  12.048  0.00  0.00    +0.000 A 
ATOM      4  C   UNL     1      44.953   7.668  11.524  0.00  0.00    +0.000 A 
ATOM      5  C   UNL     1      44.121   6.573  11.738  0.00  0.00    +0.000 A 
ATOM      6  C   UNL     1      44.585   5.483  12.474  0.00  0.00    +0.000 A 
ATOM      7  C   UNL     1      45.900   5.512  12.977  0.00  0.00    +0.000 A 
BRANCH   2  11
ATOM      8  C   UNL     1      48.217   8.927  15.478  0.00  0.00    +0.000 C 
ATOM      9  C   UNL     1      49.122   7.706  15.276  0.00  0.00    +0.000 C 
ATOM     10  C   UNL     1      48.334   6.483  14.735  0.00  0.00    +0.000 C 
ATOM     11  N   UNL     1      48.039   6.620  13.302  0.00  0.00    +0.000 N 
ATOM     12  C   UNL     1      49.214   6.905  12.467  0.00  0.00    +0.000 C 
ATOM     13  C   UNL     1      49.978   8.129  13.026  0.00  0.00    +0.000 C 
ATOM     14  N   UNL     1      50.314   8.043  14.462  0.00  0.00    +0.000 NA
ATOM     15  H   UNL     1      50.694   8.937  14.768  0.00  0.00    +0.000 HD
ENDBRANCH   2  11
ENDBRANCH   1   6
BRANCH   1  16
ATOM     16  C   UNL     1      44.049   3.171  11.671  0.00  0.00    +0.000 C 
BRANCH  16  17
ATOM     17  N   UNL     1      43.794   3.630  10.296  0.00  0.00    +0.000 N 
ATOM     18  H   UNL     1      43.627   4.634  10.250  0.00  0.00    +0.000 HD
BRANCH  17  19
ATOM     19  C   UNL     1      44.728   3.218   9.327  0.00  0.00    +0.000 A 
ATOM     20  C   UNL     1      45.405   4.119   8.499  0.00  0.00    +0.000 A 
ATOM     21  C   UNL     1      46.343   3.673   7.570  0.00  0.00    +0.000 A 
ATOM     22  C   UNL     1      46.616   2.318   7.517  0.00  0.00    +0.000 A 
ATOM     23  N   UNL     1      46.039   1.397   8.337  0.00  0.00    +0.000 NA
ATOM     24  C   UNL     1      45.131   1.881   9.226  0.00  0.00    +0.000 A 
BRANCH  22  25
ATOM     25  C   UNL     1      47.606   1.815   6.514  0.00  0.00    +0.000 C 
ATOM     26  N   UNL     1      48.700   2.613   6.319  0.00  0.00    +0.000 N 
ATOM     27  O   UNL     1      47.459   0.764   5.905  0.00  0.00    +0.000 OA
ATOM     28  H   UNL     1      48.781   3.482   6.832  0.00  0.00    +0.000 HD
ATOM     29  H   UNL     1      49.401   2.338   5.647  0.00  0.00    +0.000 HD
ENDBRANCH  22  25
ENDBRANCH  17  19
ENDBRANCH  16  17
ENDBRANCH   1  16
TORSDOF 6
ENDMDL
MODEL 4
REMARK VINA RESULT:    -6.866      1.232      2.074
REMARK INTER + INTRA:         -10.266
REMARK INTER:                  -9.568
REMARK INTRA:                  -0.698
REMARK UNBOUND:                -0.992
REMARK  Name = 
REMARK  7 active torsions:
REMARK  status: ('A' for Active; 'I' for Inactive)
REMARK    1  A    between atoms: C_1  and  C_2
REMARK    2  A    between atoms: N_4  and  C_5
REMARK    3  A    between atoms: C_9  and  C_10
REMARK    4  A    between atoms: C_10  and  C_11
REMARK    5  A    between atoms: C_11  and  N_12
REMARK    6  A    between atoms: N_12  and  C_13
REMARK    7  A    between atoms: C_16  and  C_17
REMARK                            x       y       z     vdW  Elec       q    Type
REMARK                         _______ _______ _______ _____ _____    ______ ____
ROOT
ATOM      1  C   UNL     1      45.764   5.449  11.467  0.00  0.00    +0.000 C 
ENDROOT
BRANCH   1   6
ATOM      2  C   UNL     1      47.546   8.728  12.359  0.00  0.00    +0.000 A 
ATOM      3  C   UNL     1      46.471   9.619  12.243  0.00  0.00    +0.000 A 
ATOM      4  C   UNL     1      45.187   9.188  11.889  0.00  0.00    +0.000 A 
ATOM      5  C   UNL     1      44.942   7.839  11.648  0.00  0.00    +0.000 A 
ATOM      6  C   UNL     1      45.983   6.916  11.756  0.00  0.00    +0.000 A 
ATOM      7  C   UNL     1      47.268   7.377  12.098  0.00  0.00    +0.000 A 
BRANCH   2  11
ATOM      8  C   UNL     1      50.923   7.576  10.942  0.00  0.00    +0.000 C 
ATOM      9  C   UNL     1      51.085   8.895  11.707  0.00  0.00    +0.000 C 
ATOM     10  C   UNL     1      49.765   9.712  11.739  0.00  0.00    +0.000 C 
ATOM     11  N   UNL     1      48.808   9.157  12.706  0.00  0.00    +0.000 N 
ATOM     12  C   UNL     1      49.352   8.976  14.059  0.00  0.00    +0.000 C 
ATOM     13  C   UNL     1      50.663   8.156  13.998  0.00  0.00    +0.000 C 
ATOM     14  N   UNL     1      51.671   8.674  13.051  0.00  0.00    +0.000 NA
ATOM     15  H   UNL     1      52.436   8.006  12.983  0.00  0.00    +0.000 HD
ENDBRANCH   2  11
ENDBRANCH   1   6
BRANCH   1  16
ATOM     16  C   UNL     1      44.280   5.156  11.232  0.00  0.00    +0.000 C 
BRANCH  16  17
ATOM     17  N   UNL     1      43.988   4.959   9.803  0.00  0.00    +0.000 N 
ATOM     18  H   UNL     1      43.998   5.836   9.284  0.00  0.00    +0.000 HD
BRANCH  17  19
ATOM     19  C   UNL     1      44.744   3.966   9.151  0.00  0.00    +0.000 A 
ATOM     20  C   UNL     1      45.711   4.264   8.187  0.00  0.00    +0.000 A 
ATOM     21  C   UNL     1      46.458   3.254   7.584  0.00  0.00    +0.000 A 
ATOM     22  C   UNL     1      46.244   1.950   7.996  0.00  0.00    +0.000 A 
ATOM     23  N   UNL     1      45.364   1.600   8.974  0.00  0.00    +0.000 NA
ATOM     24  C   UNL     1      44.659   2.621   9.530  0.00  0.00    +0.000 A 
BRANCH  22  25
ATOM     25  C   UNL     1      47.021   0.847   7.348  0.00  0.00    +0.000 C 
ATOM     26  N   UNL     1      47.851   1.234   6.331  0.00  0.00    +0.000 N 
ATOM     27  O   UNL     1      46.931  -0.322   7.697  0.00  0.00    +0.000 OA
ATOM     28  H   UNL     1      47.889   2.210   6.062  0.00  0.00    +0.000 HD
ATOM     29  H   UNL     1      48.395   0.538   5.844  0.00  0.00    +0.000 HD
ENDBRANCH  22  25
ENDBRANCH  17  19
ENDBRANCH  16  17
ENDBRANCH   1  16
TORSDOF 6
ENDMDL
MODEL 5
REMARK VINA RESULT:    -6.698      4.187      7.902
REMARK INTER + INTRA:         -10.040
REMARK INTER:                  -9.230
REMARK INTRA:                  -0.809
REMARK UNBOUND:                -0.992
REMARK  Name = 
REMARK  7 active torsions:
REMARK  status: ('A' for Active; 'I' for Inactive)
REMARK    1  A    between atoms: C_1  and  C_2
REMARK    2  A    between atoms: N_4  and  C_5
REMARK    3  A    between atoms: C_9  and  C_10
REMARK    4  A    between atoms: C_10  and  C_11
REMARK    5  A    between atoms: C_11  and  N_12
REMARK    6  A    between atoms: N_12  and  C_13
REMARK    7  A    between atoms: C_16  and  C_17
REMARK                            x       y       z     vdW  Elec       q    Type
REMARK                         _______ _______ _______ _____ _____    ______ ____
ROOT
ATOM      1  C   UNL     1      49.019   6.913  14.459  0.00  0.00    +0.000 C 
ENDROOT
BRANCH   1   6
ATOM      2  C   UNL     1      45.574   6.131  12.961  0.00  0.00    +0.000 A 
ATOM      3  C   UNL     1      45.227   7.404  12.491  0.00  0.00    +0.000 A 
ATOM      4  C   UNL     1      46.078   8.505  12.641  0.00  0.00    +0.000 A 
ATOM      5  C   UNL     1      47.313   8.357  13.265  0.00  0.00    +0.000 A 
ATOM      6  C   UNL     1      47.701   7.106  13.745  0.00  0.00    +0.000 A 
ATOM      7  C   UNL     1      46.821   6.017  13.595  0.00  0.00    +0.000 A 
BRANCH   2  11
ATOM      8  C   UNL     1      44.895   4.065   9.797  0.00  0.00    +0.000 C 
ATOM      9  C   UNL     1      44.408   3.314  11.042  0.00  0.00    +0.000 C 
ATOM     10  C   UNL     1      45.184   3.741  12.316  0.00  0.00    +0.000 C 
ATOM     11  N   UNL     1      44.734   5.050  12.812  0.00  0.00    +0.000 N 
ATOM     12  C   UNL     1      43.282   5.152  13.015  0.00  0.00    +0.000 C 
ATOM     13  C   UNL     1      42.534   4.725  11.729  0.00  0.00    +0.000 C 
ATOM     14  N   UNL     1      42.936   3.409  11.191  0.00  0.00    +0.000 NA
ATOM     15  H   UNL     1      42.492   3.273  10.284  0.00  0.00    +0.000 HD
ENDBRANCH   2  11
ENDBRANCH   1   6
BRANCH   1  16
ATOM     16  C   UNL     1      48.990   7.571  15.842  0.00  0.00    +0.000 C 
BRANCH  16  17
ATOM     17  N   UNL     1      48.438   6.665  16.860  0.00  0.00    +0.000 N 
ATOM     18  H   UNL     1      47.445   6.486  16.719  0.00  0.00    +0.000 HD
BRANCH  17  19
ATOM     19  C   UNL     1      49.151   5.470  17.072  0.00  0.00    +0.000 A 
ATOM     20  C   UNL     1      48.541   4.212  17.054  0.00  0.00    +0.000 A 
ATOM     21  C   UNL     1      49.288   3.050  17.242  0.00  0.00    +0.000 A 
ATOM     22  C   UNL     1      50.656   3.173  17.405  0.00  0.00    +0.000 A 
ATOM     23  N   UNL     1      51.320   4.362  17.369  0.00  0.00    +0.000 NA
ATOM     24  C   UNL     1      50.547   5.466  17.185  0.00  0.00    +0.000 A 
BRANCH  22  25
ATOM     25  C   UNL     1      51.475   1.940  17.627  0.00  0.00    +0.000 C 
ATOM     26  N   UNL     1      52.525   2.081  18.493  0.00  0.00    +0.000 N 
ATOM     27  O   UNL     1      51.230   0.874  17.079  0.00  0.00    +0.000 OA
ATOM     28  H   UNL     1      52.703   2.983  18.918  0.00  0.00    +0.000 HD
ATOM     29  H   UNL     1      53.124   1.291  18.679  0.00  0.00    +0.000 HD
ENDBRANCH  22  25
ENDBRANCH  17  19
ENDBRANCH  16  17
ENDBRANCH   1  16
TORSDOF 6
ENDMDL
MODEL 6
REMARK VINA RESULT:    -6.583      5.051      8.078
REMARK INTER + INTRA:          -9.884
REMARK INTER:                  -9.147
REMARK INTRA:                  -0.737
REMARK UNBOUND:                -0.992
REMARK  Name = 
REMARK  7 active torsions:
REMARK  status: ('A' for Active; 'I' for Inactive)
REMARK    1  A    between atoms: C_1  and  C_2
REMARK    2  A    between atoms: N_4  and  C_5
REMARK    3  A    between atoms: C_9  and  C_10
REMARK    4  A    between atoms: C_10  and  C_11
REMARK    5  A    between atoms: C_11  and  N_12
REMARK    6  A    between atoms: N_12  and  C_13
REMARK    7  A    between atoms: C_16  and  C_17
REMARK                            x       y       z     vdW  Elec       q    Type
REMARK                         _______ _______ _______ _____ _____    ______ ____
ROOT
ATOM      1  C   UNL     1      48.168   5.835  15.669  0.00  0.00    +0.000 C 
ENDROOT
BRANCH   1   6
ATOM      2  C   UNL     1      46.348   5.478  12.310  0.00  0.00    +0.000 A 
ATOM      3  C   UNL     1      46.780   6.654  11.682  0.00  0.00    +0.000 A 
ATOM      4  C   UNL     1      47.647   7.554  12.313  0.00  0.00    +0.000 A 
ATOM      5  C   UNL     1      48.113   7.295  13.598  0.00  0.00    +0.000 A 
ATOM      6  C   UNL     1      47.711   6.134  14.260  0.00  0.00    +0.000 A 
ATOM      7  C   UNL     1      46.827   5.252  13.610  0.00  0.00    +0.000 A 
BRANCH   2  11
ATOM      8  C   UNL     1      42.574   5.842  11.705  0.00  0.00    +0.000 C 
ATOM      9  C   UNL     1      43.156   4.737  10.815  0.00  0.00    +0.000 C 
ATOM     10  C   UNL     1      44.665   4.958  10.528  0.00  0.00    +0.000 C 
ATOM     11  N   UNL     1      45.495   4.595  11.686  0.00  0.00    +0.000 N 
ATOM     12  C   UNL     1      45.247   3.244  12.207  0.00  0.00    +0.000 C 
ATOM     13  C   UNL     1      43.737   3.053  12.488  0.00  0.00    +0.000 C 
ATOM     14  N   UNL     1      42.852   3.390  11.355  0.00  0.00    +0.000 NA
ATOM     15  H   UNL     1      41.884   3.360  11.670  0.00  0.00    +0.000 HD
ENDBRANCH   2  11
ENDBRANCH   1   6
BRANCH   1  16
ATOM     16  C   UNL     1      47.537   4.538  16.183  0.00  0.00    +0.000 C 
BRANCH  16  17
ATOM     17  N   UNL     1      48.067   4.165  17.503  0.00  0.00    +0.000 N 
ATOM     18  H   UNL     1      47.386   3.653  18.061  0.00  0.00    +0.000 HD
BRANCH  17  19
ATOM     19  C   UNL     1      49.320   3.524  17.506  0.00  0.00    +0.000 A 
ATOM     20  C   UNL     1      50.454   4.080  18.107  0.00  0.00    +0.000 A 
ATOM     21  C   UNL     1      51.669   3.399  18.111  0.00  0.00    +0.000 A 
ATOM     22  C   UNL     1      51.715   2.140  17.539  0.00  0.00    +0.000 A 
ATOM     23  N   UNL     1      50.634   1.516  16.994  0.00  0.00    +0.000 NA
ATOM     24  C   UNL     1      49.471   2.221  17.014  0.00  0.00    +0.000 A 
BRANCH  22  25
ATOM     25  C   UNL     1      53.015   1.399  17.516  0.00  0.00    +0.000 C 
ATOM     26  N   UNL     1      52.913   0.035  17.469  0.00  0.00    +0.000 N 
ATOM     27  O   UNL     1      54.100   1.964  17.533  0.00  0.00    +0.000 OA
ATOM     28  H   UNL     1      51.996  -0.396  17.468  0.00  0.00    +0.000 HD
ATOM     29  H   UNL     1      53.752  -0.525  17.462  0.00  0.00    +0.000 HD
ENDBRANCH  22  25
ENDBRANCH  17  19
ENDBRANCH  16  17
ENDBRANCH   1  16
TORSDOF 6
ENDMDL
MODEL 7
REMARK VINA RESULT:    -6.554      3.920      6.066
REMARK INTER + INTRA:          -9.845
REMARK INTER:                  -9.143
REMARK INTRA:                  -0.703
REMARK UNBOUND:                -0.992
REMARK  Name = 
REMARK  7 active torsions:
REMARK  status: ('A' for Active; 'I' for Inactive)
REMARK    1  A    between atoms: C_1  and  C_2
REMARK    2  A    between atoms: N_4  and  C_5
REMARK    3  A    between atoms: C_9  and  C_10
REMARK    4  A    between atoms: C_10  and  C_11
REMARK    5  A    between atoms: C_11  and  N_12
REMARK    6  A    between atoms: N_12  and  C_13
REMARK    7  A    between atoms: C_16  and  C_17
REMARK                            x       y       z     vdW  Elec       q    Type
REMARK                         _______ _______ _______ _____ _____    ______ ____
ROOT
ATOM      1  C   UNL     1      48.620   8.021  14.617  0.00  0.00    +0.000 C 
ENDROOT
BRANCH   1   6
ATOM      2  C   UNL     1      50.475   5.706  17.050  0.00  0.00    +0.000 A 
ATOM      3  C   UNL     1      51.792   6.120  16.811  0.00  0.00    +0.000 A 
ATOM      4  C   UNL     1      52.095   7.129  15.889  0.00  0.00    +0.000 A 
ATOM      5  C   UNL     1      51.076   7.761  15.182  0.00  0.00    +0.000 A 
ATOM      6  C   UNL     1      49.749   7.383  15.392  0.00  0.00    +0.000 A 
ATOM      7  C   UNL     1      49.473   6.355  16.313  0.00  0.00    +0.000 A 
BRANCH   2  11
ATOM      8  C   UNL     1      47.239   3.667  17.381  0.00  0.00    +0.000 C 
ATOM      9  C   UNL     1      48.380   2.989  18.149  0.00  0.00    +0.000 C 
ATOM     10  C   UNL     1      49.770   3.357  17.564  0.00  0.00    +0.000 C 
ATOM     11  N   UNL     1      50.182   4.712  17.958  0.00  0.00    +0.000 N 
ATOM     12  C   UNL     1      50.132   4.962  19.405  0.00  0.00    +0.000 C 
ATOM     13  C   UNL     1      48.736   4.591  19.960  0.00  0.00    +0.000 C 
ATOM     14  N   UNL     1      48.273   3.233  19.607  0.00  0.00    +0.000 NA
ATOM     15  H   UNL     1      47.304   3.127  19.900  0.00  0.00    +0.000 HD
ENDBRANCH   2  11
ENDBRANCH   1   6
BRANCH   1  16
ATOM     16  C   UNL     1      48.015   7.029  13.620  0.00  0.00    +0.000 C 
BRANCH  16  17
ATOM     17  N   UNL     1      46.553   7.171  13.536  0.00  0.00    +0.000 N 
ATOM     18  H   UNL     1      46.276   8.073  13.151  0.00  0.00    +0.000 HD
BRANCH  17  19
ATOM     19  C   UNL     1      45.866   6.113  12.912  0.00  0.00    +0.000 A 
ATOM     20  C   UNL     1      45.152   6.272  11.721  0.00  0.00    +0.000 A 
ATOM     21  C   UNL     1      44.508   5.192  11.121  0.00  0.00    +0.000 A 
ATOM     22  C   UNL     1      44.628   3.948  11.715  0.00  0.00    +0.000 A 
ATOM     23  N   UNL     1      45.360   3.713  12.838  0.00  0.00    +0.000 NA
ATOM     24  C   UNL     1      45.969   4.799  13.386  0.00  0.00    +0.000 A 
BRANCH  22  25
ATOM     25  C   UNL     1      43.928   2.778  11.098  0.00  0.00    +0.000 C 
ATOM     26  N   UNL     1      44.562   2.216  10.023  0.00  0.00    +0.000 N 
ATOM     27  O   UNL     1      42.865   2.344  11.518  0.00  0.00    +0.000 OA
ATOM     28  H   UNL     1      45.436   2.611   9.697  0.00  0.00    +0.000 HD
ATOM     29  H   UNL     1      44.139   1.430   9.553  0.00  0.00    +0.000 HD
ENDBRANCH  22  25
ENDBRANCH  17  19
ENDBRANCH  16  17
ENDBRANCH   1  16
TORSDOF 6
ENDMDL
MODEL 8
REMARK VINA RESULT:    -6.419      3.353      7.505
REMARK INTER + INTRA:          -9.663
REMARK INTER:                  -8.752
REMARK INTRA:                  -0.911
REMARK UNBOUND:                -0.992
REMARK  Name = 
REMARK  7 active torsions:
REMARK  status: ('A' for Active; 'I' for Inactive)
REMARK    1  A    between atoms: C_1  and  C_2
REMARK    2  A    between atoms: N_4  and  C_5
REMARK    3  A    between atoms: C_9  and  C_10
REMARK    4  A    between atoms: C_10  and  C_11
REMARK    5  A    between atoms: C_11  and  N_12
REMARK    6  A    between atoms: N_12  and  C_13
REMARK    7  A    between atoms: C_16  and  C_17
REMARK                            x       y       z     vdW  Elec       q    Type
REMARK                         _______ _______ _______ _____ _____    ______ ____
ROOT
ATOM      1  C   UNL     1      49.334   8.456  12.215  0.00  0.00    +0.000 C 
ENDROOT
BRANCH   1   6
ATOM      2  C   UNL     1      45.951   6.693  11.801  0.00  0.00    +0.000 A 
ATOM      3  C   UNL     1      45.093   7.792  11.948  0.00  0.00    +0.000 A 
ATOM      4  C   UNL     1      45.579   9.085  12.171  0.00  0.00    +0.000 A 
ATOM      5  C   UNL     1      46.950   9.315  12.247  0.00  0.00    +0.000 A 
ATOM      6  C   UNL     1      47.841   8.251  12.103  0.00  0.00    +0.000 A 
ATOM      7  C   UNL     1      47.326   6.957  11.895  0.00  0.00    +0.000 A 
BRANCH   2  11
ATOM      8  C   UNL     1      42.297   5.517  11.724  0.00  0.00    +0.000 C 
ATOM      9  C   UNL     1      43.212   4.465  11.086  0.00  0.00    +0.000 C 
ATOM     10  C   UNL     1      44.510   5.096  10.516  0.00  0.00    +0.000 C 
ATOM     11  N   UNL     1      45.468   5.422  11.582  0.00  0.00    +0.000 N 
ATOM     12  C   UNL     1      45.774   4.302  12.483  0.00  0.00    +0.000 C 
ATOM     13  C   UNL     1      44.463   3.696  13.040  0.00  0.00    +0.000 C 
ATOM     14  N   UNL     1      43.465   3.335  12.012  0.00  0.00    +0.000 NA
ATOM     15  H   UNL     1      42.596   3.070  12.472  0.00  0.00    +0.000 HD
ENDBRANCH   2  11
ENDBRANCH   1   6
BRANCH   1  16
ATOM     16  C   UNL     1      49.916   7.607  13.349  0.00  0.00    +0.000 C 
BRANCH  16  17
ATOM     17  N   UNL     1      49.303   7.942  14.644  0.00  0.00    +0.000 N 
ATOM     18  H   UNL     1      48.547   8.619  14.549  0.00  0.00    +0.000 HD
BRANCH  17  19
ATOM     19  C   UNL     1      48.919   6.850  15.445  0.00  0.00    +0.000 A 
ATOM     20  C   UNL     1      49.201   6.779  16.812  0.00  0.00    +0.000 A 
ATOM     21  C   UNL     1      48.779   5.692  17.575  0.00  0.00    +0.000 A 
ATOM     22  C   UNL     1      48.037   4.705  16.951  0.00  0.00    +0.000 A 
ATOM     23  N   UNL     1      47.675   4.745  15.639  0.00  0.00    +0.000 NA
ATOM     24  C   UNL     1      48.112   5.824  14.937  0.00  0.00    +0.000 A 
BRANCH  22  25
ATOM     25  C   UNL     1      47.590   3.519  17.748  0.00  0.00    +0.000 C 
ATOM     26  N   UNL     1      48.382   3.199  18.817  0.00  0.00    +0.000 N 
ATOM     27  O   UNL     1      46.587   2.875  17.473  0.00  0.00    +0.000 OA
ATOM     28  H   UNL     1      49.212   3.749  19.005  0.00  0.00    +0.000 HD
ATOM     29  H   UNL     1      48.143   2.403  19.390  0.00  0.00    +0.000 HD
ENDBRANCH  22  25
ENDBRANCH  17  19
ENDBRANCH  16  17
ENDBRANCH   1  16
TORSDOF 6
ENDMDL
MODEL 9
REMARK VINA RESULT:    -6.412      2.618      7.476
REMARK INTER + INTRA:          -9.653
REMARK INTER:                  -8.582
REMARK INTRA:                  -1.072
REMARK UNBOUND:                -0.992
REMARK  Name = 
REMARK  7 active torsions:
REMARK  status: ('A' for Active; 'I' for Inactive)
REMARK    1  A    between atoms: C_1  and  C_2
REMARK    2  A    between atoms: N_4  and  C_5
REMARK    3  A    between atoms: C_9  and  C_10
REMARK    4  A    between atoms: C_10  and  C_11
REMARK    5  A    between atoms: C_11  and  N_12
REMARK    6  A    between atoms: N_12  and  C_13
REMARK    7  A    between atoms: C_16  and  C_17
REMARK                            x       y       z     vdW  Elec       q    Type
REMARK                         _______ _______ _______ _____ _____    ______ ____
ROOT
ATOM      1  C   UNL     1      43.764   2.441  10.980  0.00  0.00    +0.000 C 
ENDROOT
BRANCH   1   6
ATOM      2  C   UNL     1      46.278   2.540   8.083  0.00  0.00    +0.000 A 
ATOM      3  C   UNL     1      46.240   3.908   7.784  0.00  0.00    +0.000 A 
ATOM      4  C   UNL     1      45.428   4.799   8.497  0.00  0.00    +0.000 A 
ATOM      5  C   UNL     1      44.632   4.339   9.541  0.00  0.00    +0.000 A 
ATOM      6  C   UNL     1      44.642   2.984   9.876  0.00  0.00    +0.000 A 
ATOM      7  C   UNL     1      45.455   2.107   9.133  0.00  0.00    +0.000 A 
BRANCH   2  11
ATOM      8  C   UNL     1      46.557   2.113   4.277  0.00  0.00    +0.000 C 
ATOM      9  C   UNL     1      47.749   1.452   4.979  0.00  0.00    +0.000 C 
ATOM     10  C   UNL     1      48.042   2.102   6.358  0.00  0.00    +0.000 C 
ATOM     11  N   UNL     1      47.078   1.667   7.378  0.00  0.00    +0.000 N 
ATOM     12  C   UNL     1      46.941   0.209   7.498  0.00  0.00    +0.000 C 
ATOM     13  C   UNL     1      46.645  -0.412   6.111  0.00  0.00    +0.000 C 
ATOM     14  N   UNL     1      47.591  -0.020   5.046  0.00  0.00    +0.000 NA
ATOM     15  H   UNL     1      47.246  -0.367   4.153  0.00  0.00    +0.000 HD
ENDBRANCH   2  11
ENDBRANCH   1   6
BRANCH   1  16
ATOM     16  C   UNL     1      43.322   3.562  11.924  0.00  0.00    +0.000 C 
BRANCH  16  17
ATOM     17  N   UNL     1      44.128   3.581  13.155  0.00  0.00    +0.000 N 
ATOM     18  H   UNL     1      44.369   2.643  13.471  0.00  0.00    +0.000 HD
BRANCH  17  19
ATOM     19  C   UNL     1      45.254   4.425  13.140  0.00  0.00    +0.000 A 
ATOM     20  C   UNL     1      45.175   5.786  12.829  0.00  0.00    +0.000 A 
ATOM     21  C   UNL     1      46.311   6.593  12.852  0.00  0.00    +0.000 A 
ATOM     22  C   UNL     1      47.512   6.020  13.233  0.00  0.00    +0.000 A 
ATOM     23  N   UNL     1      47.644   4.719  13.608  0.00  0.00    +0.000 NA
ATOM     24  C   UNL     1      46.508   3.972  13.568  0.00  0.00    +0.000 A 
BRANCH  22  25
ATOM     25  C   UNL     1      48.747   6.865  13.246  0.00  0.00    +0.000 C 
ATOM     26  N   UNL     1      48.944   7.634  12.131  0.00  0.00    +0.000 N 
ATOM     27  O   UNL     1      49.532   6.877  14.184  0.00  0.00    +0.000 OA
ATOM     28  H   UNL     1      48.277   7.588  11.370  0.00  0.00    +0.000 HD
ATOM     29  H   UNL     1      49.764   8.219  12.072  0.00  0.00    +0.000 HD
ENDBRANCH  22  25
ENDBRANCH  17  19
ENDBRANCH  16  17
ENDBRANCH   1  16
TORSDOF 6
ENDMDL
