MODEL 1
REMARK VINA RESULT:    -7.264      0.000      0.000
REMARK INTER + INTRA:          -9.984
REMARK INTER:                  -9.388
REMARK INTRA:                  -0.596
REMARK UNBOUND:                -0.596
REMARK  Name = 
REMARK  5 active torsions:
REMARK  status: ('A' for Active; 'I' for Inactive)
REMARK    1  A    between atoms: C_2  and  C_4
REMARK    2  A    between atoms: C_8  and  C_9
REMARK    3  A    between atoms: C_9  and  O_10
REMARK    4  A    between atoms: O_10  and  C_11
REMARK    5  A    between atoms: C_15  and  N_16
REMARK                            x       y       z     vdW  Elec       q    Type
REMARK                         _______ _______ _______ _____ _____    ______ ____
ROOT
ATOM      1  O   UNL     1      45.595   6.206  12.684  0.00  0.00    +0.000 OA
ENDROOT
BRANCH   1   2
ATOM      2  C   UNL     1      44.963   5.109  12.164  0.00  0.00    +0.000 A 
ATOM      3  C   UNL     1      44.150   4.393  13.031  0.00  0.00    +0.000 A 
ATOM      4  N   UNL     1      43.470   3.278  12.684  0.00  0.00    +0.000 NA
ATOM      5  C   UNL     1      43.631   2.851  11.408  0.00  0.00    +0.000 A 
ATOM      6  C   UNL     1      44.439   3.456  10.440  0.00  0.00    +0.000 A 
ATOM      7  C   UNL     1      45.106   4.619  10.864  0.00  0.00    +0.000 A 
BRANCH   6   8
ATOM      8  N   UNL     1      44.573   2.989   9.145  0.00  0.00    +0.000 N 
ATOM      9  C   UNL     1      44.845   1.575   8.829  0.00  0.00    +0.000 C 
ATOM     10  C   UNL     1      46.238   1.406   8.207  0.00  0.00    +0.000 C 
ATOM     11  O   UNL     1      46.416   2.268   7.071  0.00  0.00    +0.000 OA
ATOM     12  C   UNL     1      46.266   3.641   7.463  0.00  0.00    +0.000 C 
ATOM     13  C   UNL     1      44.866   3.919   8.039  0.00  0.00    +0.000 C 
ENDBRANCH   6   8
ENDBRANCH   1   2
BRANCH   1  14
ATOM     14  C   UNL     1      47.024   6.165  12.675  0.00  0.00    +0.000 C 
BRANCH  14  19
ATOM     15  C   UNL     1      47.834   4.612  16.077  0.00  0.00    +0.000 A 
ATOM     16  C   UNL     1      48.628   5.608  16.656  0.00  0.00    +0.000 A 
ATOM     17  C   UNL     1      48.860   6.798  15.966  0.00  0.00    +0.000 A 
ATOM     18  C   UNL     1      48.321   6.990  14.692  0.00  0.00    +0.000 A 
ATOM     19  C   UNL     1      47.538   5.996  14.090  0.00  0.00    +0.000 A 
ATOM     20  C   UNL     1      47.292   4.809  14.799  0.00  0.00    +0.000 A 
BRANCH  15  22
ATOM     21  N   UNL     1      48.579   2.358  16.654  0.00  0.00    +0.000 N 
ATOM     22  C   UNL     1      47.599   3.304  16.754  0.00  0.00    +0.000 C 
ATOM     23  O   UNL     1      46.577   3.088  17.387  0.00  0.00    +0.000 OA
ATOM     24  H   UNL     1      48.434   1.502  17.176  0.00  0.00    +0.000 HD
ATOM     25  H   UNL     1      49.519   2.572  16.356  0.00  0.00    +0.000 HD
ENDBRANCH  15  22
ENDBRANCH  14  19
ENDBRANCH   1  14
TORSDOF 5
ENDMDL
MODEL 2
REMARK VINA RESULT:    -6.867      2.542      4.008
REMARK INTER + INTRA:          -9.470
REMARK INTER:                  -8.725
REMARK INTRA:                  -0.746
REMARK UNBOUND:                -0.596
REMARK  Name = 
REMARK  5 active torsions:
REMARK  status: ('A' for Active; 'I' for Inactive)
REMARK    1  A    between atoms: C_2  and  C_4
REMARK    2  A    between atoms: C_8  and  C_9
REMARK    3  A    between atoms: C_9  and  O_10
REMARK    4  A    between atoms: O_10  and  C_11
REMARK    5  A    between atoms: C_15  and  N_16
REMARK                            x       y       z     vdW  Elec       q    Type
REMARK                         _______ _______ _______ _____ _____    ______ ____
ROOT
ATOM      1  O   UNL     1      48.996   6.571  14.755  0.00  0.00    +0.000 OA
ENDROOT
BRANCH   1   2
ATOM      2  C   UNL     1      47.846   6.615  14.014  0.00  0.00    +0.000 A 
ATOM      3  C   UNL     1      47.536   7.831  13.422  0.00  0.00    +0.000 A 
ATOM      4  N   UNL     1      46.432   8.050  12.675  0.00  0.00    +0.000 NA
ATOM      5  C   UNL     1      45.587   7.000  12.532  0.00  0.00    +0.000 A 
ATOM      6  C   UNL     1      45.759   5.732  13.095  0.00  0.00    +0.000 A 
ATOM      7  C   UNL     1      46.936   5.569  13.848  0.00  0.00    +0.000 A 
BRANCH   6   8
ATOM      8  N   UNL     1      44.873   4.684  12.922  0.00  0.00    +0.000 N 
ATOM      9  C   UNL     1      45.266   3.395  12.324  0.00  0.00    +0.000 C 
ATOM     10  C   UNL     1      44.574   3.179  10.972  0.00  0.00    +0.000 C 
ATOM     11  O   UNL     1      43.148   3.323  11.080  0.00  0.00    +0.000 OA
ATOM     12  C   UNL     1      42.818   4.641  11.545  0.00  0.00    +0.000 C 
ATOM     13  C   UNL     1      43.417   4.921  12.935  0.00  0.00    +0.000 C 
ENDBRANCH   6   8
ENDBRANCH   1   2
BRANCH   1  14
ATOM     14  C   UNL     1      48.883   7.019  16.108  0.00  0.00    +0.000 C 
BRANCH  14  19
ATOM     15  C   UNL     1      49.325   3.490  17.521  0.00  0.00    +0.000 A 
ATOM     16  C   UNL     1      48.807   3.640  18.813  0.00  0.00    +0.000 A 
ATOM     17  C   UNL     1      48.272   4.868  19.207  0.00  0.00    +0.000 A 
ATOM     18  C   UNL     1      48.272   5.951  18.326  0.00  0.00    +0.000 A 
ATOM     19  C   UNL     1      48.803   5.824  17.035  0.00  0.00    +0.000 A 
ATOM     20  C   UNL     1      49.320   4.579  16.639  0.00  0.00    +0.000 A 
BRANCH  15  22
ATOM     21  N   UNL     1      50.937   1.685  17.856  0.00  0.00    +0.000 N 
ATOM     22  C   UNL     1      49.951   2.214  17.072  0.00  0.00    +0.000 C 
ATOM     23  O   UNL     1      49.589   1.651  16.049  0.00  0.00    +0.000 OA
ATOM     24  H   UNL     1      51.304   0.785  17.573  0.00  0.00    +0.000 HD
ATOM     25  H   UNL     1      51.096   1.978  18.809  0.00  0.00    +0.000 HD
ENDBRANCH  15  22
ENDBRANCH  14  19
ENDBRANCH   1  14
TORSDOF 5
ENDMDL
MODEL 3
REMARK VINA RESULT:    -6.675      2.225      3.454
REMARK INTER + INTRA:          -9.222
REMARK INTER:                  -8.540
REMARK INTRA:                  -0.682
REMARK UNBOUND:                -0.596
REMARK  Name = 
REMARK  5 active torsions:
REMARK  status: ('A' for Active; 'I' for Inactive)
REMARK    1  A    between atoms: C_2  and  C_4
REMARK    2  A    between atoms: C_8  and  C_9
REMARK    3  A    between atoms: C_9  and  O_10
REMARK    4  A    between atoms: O_10  and  C_11
REMARK    5  A    between atoms: C_15  and  N_16
REMARK                            x       y       z     vdW  Elec       q    Type
REMARK                         _______ _______ _______ _____ _____    ______ ____
ROOT
ATOM      1  O   UNL     1      48.504   6.047  13.684  0.00  0.00    +0.000 OA
ENDROOT
BRANCH   1   2
ATOM      2  C   UNL     1      47.307   6.461  13.168  0.00  0.00    +0.000 A 
ATOM      3  C   UNL     1      47.125   7.830  13.041  0.00  0.00    +0.000 A 
ATOM      4  N   UNL     1      45.997   8.405  12.568  0.00  0.00    +0.000 NA
ATOM      5  C   UNL     1      44.995   7.560  12.221  0.00  0.00    +0.000 A 
ATOM      6  C   UNL     1      45.030   6.166  12.322  0.00  0.00    +0.000 A 
ATOM      7  C   UNL     1      46.238   5.635  12.809  0.00  0.00    +0.000 A 
BRANCH   6   8
ATOM      8  N   UNL     1      43.985   5.339  11.954  0.00  0.00    +0.000 N 
ATOM      9  C   UNL     1      43.342   4.399  12.890  0.00  0.00    +0.000 C 
ATOM     10  C   UNL     1      43.611   2.943  12.484  0.00  0.00    +0.000 C 
ATOM     11  O   UNL     1      43.239   2.700  11.118  0.00  0.00    +0.000 OA
ATOM     12  C   UNL     1      43.990   3.554  10.241  0.00  0.00    +0.000 C 
ATOM     13  C   UNL     1      43.728   5.042  10.533  0.00  0.00    +0.000 C 
ENDBRANCH   6   8
ENDBRANCH   1   2
BRANCH   1  14
ATOM     14  C   UNL     1      49.154   6.967  14.564  0.00  0.00    +0.000 C 
BRANCH  14  19
ATOM     15  C   UNL     1      48.078   4.994  17.661  0.00  0.00    +0.000 A 
ATOM     16  C   UNL     1      48.356   5.908  18.684  0.00  0.00    +0.000 A 
ATOM     17  C   UNL     1      48.846   7.175  18.368  0.00  0.00    +0.000 A 
ATOM     18  C   UNL     1      49.079   7.528  17.037  0.00  0.00    +0.000 A 
ATOM     19  C   UNL     1      48.822   6.620  16.001  0.00  0.00    +0.000 A 
ATOM     20  C   UNL     1      48.310   5.353  16.326  0.00  0.00    +0.000 A 
BRANCH  15  22
ATOM     21  N   UNL     1      48.212   2.937  18.972  0.00  0.00    +0.000 N 
ATOM     22  C   UNL     1      47.601   3.612  17.953  0.00  0.00    +0.000 C 
ATOM     23  O   UNL     1      46.690   3.104  17.318  0.00  0.00    +0.000 OA
ATOM     24  H   UNL     1      47.831   2.027  19.201  0.00  0.00    +0.000 HD
ATOM     25  H   UNL     1      48.787   3.393  19.665  0.00  0.00    +0.000 HD
ENDBRANCH  15  22
ENDBRANCH  14  19
ENDBRANCH   1  14
TORSDOF 5
ENDMDL
MODEL 4
REMARK VINA RESULT:    -6.549      1.918      7.483
REMARK INTER + INTRA:          -9.060
REMARK INTER:                  -8.309
REMARK INTRA:                  -0.751
REMARK UNBOUND:                -0.596
REMARK  Name = 
REMARK  5 active torsions:
REMARK  status: ('A' for Active; 'I' for Inactive)
REMARK    1  A    between atoms: C_2  and  C_4
REMARK    2  A    between atoms: C_8  and  C_9
REMARK    3  A    between atoms: C_9  and  O_10
REMARK    4  A    between atoms: O_10  and  C_11
REMARK    5  A    between atoms: C_15  and  N_16
REMARK                            x       y       z     vdW  Elec       q    Type
REMARK                         _______ _______ _______ _____ _____    ______ ____
ROOT
ATOM      1  O   UNL     1      47.253   6.490  11.858  0.00  0.00    +0.000 OA
ENDROOT
BRANCH   1   2
ATOM      2  C   UNL     1      47.942   6.606  13.035  0.00  0.00    +0.000 A 
ATOM      3  C   UNL     1      49.026   7.471  13.036  0.00  0.00    +0.000 A 
ATOM      4  N   UNL     1      49.822   7.686  14.107  0.00  0.00    +0.000 NA
ATOM      5  C   UNL     1      49.523   6.983  15.226  0.00  0.00    +0.000 A 
ATOM      6  C   UNL     1      48.481   6.060  15.357  0.00  0.00    +0.000 A 
ATOM      7  C   UNL     1      47.685   5.895  14.209  0.00  0.00    +0.000 A 
BRANCH   6   8
ATOM      8  N   UNL     1      48.207   5.364  16.521  0.00  0.00    +0.000 N 
ATOM      9  C   UNL     1      49.054   5.454  17.724  0.00  0.00    +0.000 C 
ATOM     10  C   UNL     1      49.751   4.117  18.010  0.00  0.00    +0.000 C 
ATOM     11  O   UNL     1      48.807   3.035  18.081  0.00  0.00    +0.000 OA
ATOM     12  C   UNL     1      48.101   2.913  16.836  0.00  0.00    +0.000 C 
ATOM     13  C   UNL     1      47.313   4.192  16.501  0.00  0.00    +0.000 C 
ENDBRANCH   6   8
ENDBRANCH   1   2
BRANCH   1  14
ATOM     14  C   UNL     1      45.864   6.827  11.914  0.00  0.00    +0.000 C 
BRANCH  14  19
ATOM     15  C   UNL     1      44.364   3.638  10.423  0.00  0.00    +0.000 A 
ATOM     16  C   UNL     1      43.609   3.156  11.497  0.00  0.00    +0.000 A 
ATOM     17  C   UNL     1      43.547   3.887  12.684  0.00  0.00    +0.000 A 
ATOM     18  C   UNL     1      44.253   5.086  12.811  0.00  0.00    +0.000 A 
ATOM     19  C   UNL     1      45.029   5.574  11.751  0.00  0.00    +0.000 A 
ATOM     20  C   UNL     1      45.069   4.842  10.552  0.00  0.00    +0.000 A 
BRANCH  15  22
ATOM     21  N   UNL     1      44.390   3.561   7.981  0.00  0.00    +0.000 N 
ATOM     22  C   UNL     1      44.500   2.868   9.153  0.00  0.00    +0.000 C 
ATOM     23  O   UNL     1      44.716   1.665   9.156  0.00  0.00    +0.000 OA
ATOM     24  H   UNL     1      44.552   3.036   7.130  0.00  0.00    +0.000 HD
ATOM     25  H   UNL     1      44.454   4.568   7.931  0.00  0.00    +0.000 HD
ENDBRANCH  15  22
ENDBRANCH  14  19
ENDBRANCH   1  14
TORSDOF 5
ENDMDL
MODEL 5
REMARK VINA RESULT:    -6.397      2.603      3.937
REMARK INTER + INTRA:          -8.863
REMARK INTER:                  -8.228
REMARK INTRA:                  -0.635
REMARK UNBOUND:                -0.596
REMARK  Name = 
REMARK  5 active torsions:
REMARK  status: ('A' for Active; 'I' for Inactive)
REMARK    1  A    between atoms: C_2  and  C_4
REMARK    2  A    between atoms: C_8  and  C_9
REMARK    3  A    between atoms: C_9  and  O_10
REMARK    4  A    between atoms: O_10  and  C_11
REMARK    5  A    between atoms: C_15  and  N_16
REMARK                            x       y       z     vdW  Elec       q    Type
REMARK                         _______ _______ _______ _____ _____    ______ ____
ROOT
ATOM      1  O   UNL     1      48.353   5.967  13.980  0.00  0.00    +0.000 OA
ENDROOT
BRANCH   1   2
ATOM      2  C   UNL     1      47.249   6.381  13.286  0.00  0.00    +0.000 A 
ATOM      3  C   UNL     1      47.166   7.737  13.003  0.00  0.00    +0.000 A 
ATOM      4  N   UNL     1      46.136   8.312  12.345  0.00  0.00    +0.000 NA
ATOM      5  C   UNL     1      45.131   7.485  11.966  0.00  0.00    +0.000 A 
ATOM      6  C   UNL     1      45.070   6.110  12.209  0.00  0.00    +0.000 A 
ATOM      7  C   UNL     1      46.180   5.575  12.886  0.00  0.00    +0.000 A 
BRANCH   6   8
ATOM      8  N   UNL     1      44.025   5.300  11.802  0.00  0.00    +0.000 N 
ATOM      9  C   UNL     1      43.283   4.427  12.730  0.00  0.00    +0.000 C 
ATOM     10  C   UNL     1      43.529   2.946  12.410  0.00  0.00    +0.000 C 
ATOM     11  O   UNL     1      43.248   2.650  11.033  0.00  0.00    +0.000 OA
ATOM     12  C   UNL     1      44.090   3.437  10.176  0.00  0.00    +0.000 C 
ATOM     13  C   UNL     1      43.860   4.945  10.380  0.00  0.00    +0.000 C 
ENDBRANCH   6   8
ENDBRANCH   1   2
BRANCH   1  14
ATOM     14  C   UNL     1      48.506   6.514  15.291  0.00  0.00    +0.000 C 
BRANCH  14  19
ATOM     15  C   UNL     1      49.043   4.498  18.499  0.00  0.00    +0.000 A 
ATOM     16  C   UNL     1      48.158   3.431  18.309  0.00  0.00    +0.000 A 
ATOM     17  C   UNL     1      47.425   3.340  17.125  0.00  0.00    +0.000 A 
ATOM     18  C   UNL     1      47.556   4.320  16.139  0.00  0.00    +0.000 A 
ATOM     19  C   UNL     1      48.425   5.405  16.320  0.00  0.00    +0.000 A 
ATOM     20  C   UNL     1      49.174   5.478  17.506  0.00  0.00    +0.000 A 
BRANCH  15  22
ATOM     21  N   UNL     1      49.183   4.320  20.932  0.00  0.00    +0.000 N 
ATOM     22  C   UNL     1      49.809   4.665  19.768  0.00  0.00    +0.000 C 
ATOM     23  O   UNL     1      50.958   5.080  19.770  0.00  0.00    +0.000 OA
ATOM     24  H   UNL     1      49.739   4.375  21.776  0.00  0.00    +0.000 HD
ATOM     25  H   UNL     1      48.344   3.758  20.958  0.00  0.00    +0.000 HD
ENDBRANCH  15  22
ENDBRANCH  14  19
ENDBRANCH   1  14
TORSDOF 5
ENDMDL
MODEL 6
REMARK VINA RESULT:    -6.296      2.705      8.501
REMARK INTER + INTRA:          -8.733
REMARK INTER:                  -8.252
REMARK INTRA:                  -0.480
REMARK UNBOUND:                -0.596
REMARK  Name = 
REMARK  5 active torsions:
REMARK  status: ('A' for Active; 'I' for Inactive)
REMARK    1  A    between atoms: C_2  and  C_4
REMARK    2  A    between atoms: C_8  and  C_9
REMARK    3  A    between atoms: C_9  and  O_10
REMARK    4  A    between atoms: O_10  and  C_11
REMARK    5  A    between atoms: C_15  and  N_16
REMARK                            x       y       z     vdW  Elec       q    Type
REMARK                         _______ _______ _______ _____ _____    ______ ____
ROOT
ATOM      1  O   UNL     1      46.594   4.173  15.162  0.00  0.00    +0.000 OA
ENDROOT
BRANCH   1   2
ATOM      2  C   UNL     1      47.465   3.991  16.202  0.00  0.00    +0.000 A 
ATOM      3  C   UNL     1      48.169   2.796  16.221  0.00  0.00    +0.000 A 
ATOM      4  N   UNL     1      49.051   2.451  17.184  0.00  0.00    +0.000 NA
ATOM      5  C   UNL     1      49.221   3.346  18.188  0.00  0.00    +0.000 A 
ATOM      6  C   UNL     1      48.559   4.571  18.311  0.00  0.00    +0.000 A 
ATOM      7  C   UNL     1      47.666   4.872  17.267  0.00  0.00    +0.000 A 
BRANCH   6   8
ATOM      8  N   UNL     1      48.764   5.459  19.352  0.00  0.00    +0.000 N 
ATOM      9  C   UNL     1      48.495   5.115  20.760  0.00  0.00    +0.000 C 
ATOM     10  C   UNL     1      47.326   5.941  21.316  0.00  0.00    +0.000 C 
ATOM     11  O   UNL     1      47.537   7.349  21.124  0.00  0.00    +0.000 OA
ATOM     12  C   UNL     1      47.665   7.644  19.724  0.00  0.00    +0.000 C 
ATOM     13  C   UNL     1      48.861   6.908  19.094  0.00  0.00    +0.000 C 
ENDBRANCH   6   8
ENDBRANCH   1   2
BRANCH   1  14
ATOM     14  C   UNL     1      47.014   5.093  14.151  0.00  0.00    +0.000 C 
BRANCH  14  19
ATOM     15  C   UNL     1      44.411   4.080  11.536  0.00  0.00    +0.000 A 
ATOM     16  C   UNL     1      43.876   5.323  11.179  0.00  0.00    +0.000 A 
ATOM     17  C   UNL     1      44.390   6.488  11.749  0.00  0.00    +0.000 A 
ATOM     18  C   UNL     1      45.421   6.418  12.689  0.00  0.00    +0.000 A 
ATOM     19  C   UNL     1      45.957   5.180  13.070  0.00  0.00    +0.000 A 
ATOM     20  C   UNL     1      45.447   4.013  12.477  0.00  0.00    +0.000 A 
BRANCH  15  22
ATOM     21  N   UNL     1      44.496   2.254   9.915  0.00  0.00    +0.000 N 
ATOM     22  C   UNL     1      43.861   2.805  10.992  0.00  0.00    +0.000 C 
ATOM     23  O   UNL     1      42.889   2.263  11.495  0.00  0.00    +0.000 OA
ATOM     24  H   UNL     1      44.152   1.355   9.600  0.00  0.00    +0.000 HD
ATOM     25  H   UNL     1      45.423   2.530   9.624  0.00  0.00    +0.000 HD
ENDBRANCH  15  22
ENDBRANCH  14  19
ENDBRANCH   1  14
TORSDOF 5
ENDMDL
MODEL 7
REMARK VINA RESULT:    -6.295      3.962      6.336
REMARK INTER + INTRA:          -8.732
REMARK INTER:                  -7.917
REMARK INTRA:                  -0.814
REMARK UNBOUND:                -0.596
REMARK  Name = 
REMARK  5 active torsions:
REMARK  status: ('A' for Active; 'I' for Inactive)
REMARK    1  A    between atoms: C_2  and  C_4
REMARK    2  A    between atoms: C_8  and  C_9
REMARK    3  A    between atoms: C_9  and  O_10
REMARK    4  A    between atoms: O_10  and  C_11
REMARK    5  A    between atoms: C_15  and  N_16
REMARK                            x       y       z     vdW  Elec       q    Type
REMARK                         _______ _______ _______ _____ _____    ______ ____
ROOT
ATOM      1  O   UNL     1      48.146   8.149  12.053  0.00  0.00    +0.000 OA
ENDROOT
BRANCH   1   2
ATOM      2  C   UNL     1      47.665   7.072  12.746  0.00  0.00    +0.000 A 
ATOM      3  C   UNL     1      48.389   6.679  13.863  0.00  0.00    +0.000 A 
ATOM      4  N   UNL     1      48.062   5.627  14.645  0.00  0.00    +0.000 NA
ATOM      5  C   UNL     1      46.963   4.924  14.276  0.00  0.00    +0.000 A 
ATOM      6  C   UNL     1      46.160   5.190  13.164  0.00  0.00    +0.000 A 
ATOM      7  C   UNL     1      46.549   6.306  12.401  0.00  0.00    +0.000 A 
BRANCH   6   8
ATOM      8  N   UNL     1      45.043   4.449  12.823  0.00  0.00    +0.000 N 
ATOM      9  C   UNL     1      45.101   3.280  11.927  0.00  0.00    +0.000 C 
ATOM     10  C   UNL     1      44.360   3.555  10.611  0.00  0.00    +0.000 C 
ATOM     11  O   UNL     1      43.014   4.000  10.848  0.00  0.00    +0.000 OA
ATOM     12  C   UNL     1      43.022   5.212  11.618  0.00  0.00    +0.000 C 
ATOM     13  C   UNL     1      43.690   5.011  12.990  0.00  0.00    +0.000 C 
ENDBRANCH   6   8
ENDBRANCH   1   2
BRANCH   1  14
ATOM     14  C   UNL     1      47.963   9.423  12.676  0.00  0.00    +0.000 C 
BRANCH  14  19
ATOM     15  C   UNL     1      44.758  10.933  11.231  0.00  0.00    +0.000 A 
ATOM     16  C   UNL     1      45.271  11.948  10.415  0.00  0.00    +0.000 A 
ATOM     17  C   UNL     1      46.652  12.111  10.297  0.00  0.00    +0.000 A 
ATOM     18  C   UNL     1      47.522  11.280  11.005  0.00  0.00    +0.000 A 
ATOM     19  C   UNL     1      47.026  10.270  11.840  0.00  0.00    +0.000 A 
ATOM     20  C   UNL     1      45.635  10.099  11.938  0.00  0.00    +0.000 A 
BRANCH  15  22
ATOM     21  N   UNL     1      42.726   9.608  10.942  0.00  0.00    +0.000 N 
ATOM     22  C   UNL     1      43.291  10.753  11.428  0.00  0.00    +0.000 C 
ATOM     23  O   UNL     1      42.618  11.587  12.013  0.00  0.00    +0.000 OA
ATOM     24  H   UNL     1      41.744   9.469  11.143  0.00  0.00    +0.000 HD
ATOM     25  H   UNL     1      43.269   8.799  10.674  0.00  0.00    +0.000 HD
ENDBRANCH  15  22
ENDBRANCH  14  19
ENDBRANCH   1  14
TORSDOF 5
ENDMDL
MODEL 8
REMARK VINA RESULT:    -5.913      2.595      7.311
REMARK INTER + INTRA:          -8.238
REMARK INTER:                  -7.449
REMARK INTRA:                  -0.789
REMARK UNBOUND:                -0.596
REMARK  Name = 
REMARK  5 active torsions:
REMARK  status: ('A' for Active; 'I' for Inactive)
REMARK    1  A    between atoms: C_2  and  C_4
REMARK    2  A    between atoms: C_8  and  C_9
REMARK    3  A    between atoms: C_9  and  O_10
REMARK    4  A    between atoms: O_10  and  C_11
REMARK    5  A    between atoms: C_15  and  N_16
REMARK                            x       y       z     vdW  Elec       q    Type
REMARK                         _______ _______ _______ _____ _____    ______ ____
ROOT
ATOM      1  O   UNL     1      47.824   7.931  12.961  0.00  0.00    +0.000 OA
ENDROOT
BRANCH   1   2
ATOM      2  C   UNL     1      48.651   7.570  13.990  0.00  0.00    +0.000 A 
ATOM      3  C   UNL     1      49.908   8.157  14.011  0.00  0.00    +0.000 A 
ATOM      4  N   UNL     1      50.851   7.898  14.944  0.00  0.00    +0.000 NA
ATOM      5  C   UNL     1      50.519   6.989  15.893  0.00  0.00    +0.000 A 
ATOM      6  C   UNL     1      49.304   6.303  15.978  0.00  0.00    +0.000 A 
ATOM      7  C   UNL     1      48.364   6.631  14.983  0.00  0.00    +0.000 A 
BRANCH   6   8
ATOM      8  N   UNL     1      49.003   5.384  16.966  0.00  0.00    +0.000 N 
ATOM      9  C   UNL     1      50.030   4.770  17.827  0.00  0.00    +0.000 C 
ATOM     10  C   UNL     1      50.155   3.266  17.552  0.00  0.00    +0.000 C 
ATOM     11  O   UNL     1      48.884   2.604  17.655  0.00  0.00    +0.000 OA
ATOM     12  C   UNL     1      47.960   3.156  16.705  0.00  0.00    +0.000 C 
ATOM     13  C   UNL     1      47.720   4.656  16.950  0.00  0.00    +0.000 C 
ENDBRANCH   6   8
ENDBRANCH   1   2
BRANCH   1  14
ATOM     14  C   UNL     1      47.697   6.980  11.902  0.00  0.00    +0.000 C 
BRANCH  14  19
ATOM     15  C   UNL     1      44.482   4.918  11.673  0.00  0.00    +0.000 A 
ATOM     16  C   UNL     1      43.515   5.922  11.549  0.00  0.00    +0.000 A 
ATOM     17  C   UNL     1      43.908   7.260  11.492  0.00  0.00    +0.000 A 
ATOM     18  C   UNL     1      45.259   7.601  11.579  0.00  0.00    +0.000 A 
ATOM     19  C   UNL     1      46.240   6.609  11.720  0.00  0.00    +0.000 A 
ATOM     20  C   UNL     1      45.838   5.264  11.757  0.00  0.00    +0.000 A 
BRANCH  15  22
ATOM     21  N   UNL     1      44.979   2.651  12.435  0.00  0.00    +0.000 N 
ATOM     22  C   UNL     1      44.107   3.479  11.788  0.00  0.00    +0.000 C 
ATOM     23  O   UNL     1      43.055   3.055  11.334  0.00  0.00    +0.000 OA
ATOM     24  H   UNL     1      44.680   1.692  12.564  0.00  0.00    +0.000 HD
ATOM     25  H   UNL     1      45.726   2.992  13.023  0.00  0.00    +0.000 HD
ENDBRANCH  15  22
ENDBRANCH  14  19
ENDBRANCH   1  14
TORSDOF 5
ENDMDL
MODEL 9
REMARK VINA RESULT:    -5.910      2.726      8.259
REMARK INTER + INTRA:          -8.234
REMARK INTER:                  -7.636
REMARK INTRA:                  -0.598
REMARK UNBOUND:                -0.596
REMARK  Name = 
REMARK  5 active torsions:
REMARK  status: ('A' for Active; 'I' for Inactive)
REMARK    1  A    between atoms: C_2  and  C_4
REMARK    2  A    between atoms: C_8  and  C_9
REMARK    3  A    between atoms: C_9  and  O_10
REMARK    4  A    between atoms: O_10  and  C_11
REMARK    5  A    between atoms: C_15  and  N_16
REMARK                            x       y       z     vdW  Elec       q    Type
REMARK                         _______ _______ _______ _____ _____    ______ ____
ROOT
ATOM      1  O   UNL     1      46.544   3.957  15.376  0.00  0.00    +0.000 OA
ENDROOT
BRANCH   1   2
ATOM      2  C   UNL     1      47.491   4.105  16.353  0.00  0.00    +0.000 A 
ATOM      3  C   UNL     1      47.490   3.158  17.367  0.00  0.00    +0.000 A 
ATOM      4  N   UNL     1      48.344   3.169  18.415  0.00  0.00    +0.000 NA
ATOM      5  C   UNL     1      49.232   4.193  18.453  0.00  0.00    +0.000 A 
ATOM      6  C   UNL     1      49.326   5.227  17.517  0.00  0.00    +0.000 A 
ATOM      7  C   UNL     1      48.417   5.147  16.447  0.00  0.00    +0.000 A 
BRANCH   6   8
ATOM      8  N   UNL     1      50.250   6.254  17.592  0.00  0.00    +0.000 N 
ATOM      9  C   UNL     1      51.019   6.723  16.425  0.00  0.00    +0.000 C 
ATOM     10  C   UNL     1      52.513   6.412  16.587  0.00  0.00    +0.000 C 
ATOM     11  O   UNL     1      53.028   6.924  17.827  0.00  0.00    +0.000 OA
ATOM     12  C   UNL     1      52.327   6.335  18.934  0.00  0.00    +0.000 C 
ATOM     13  C   UNL     1      50.822   6.656  18.890  0.00  0.00    +0.000 C 
ENDBRANCH   6   8
ENDBRANCH   1   2
BRANCH   1  14
ATOM     14  C   UNL     1      47.042   3.752  14.052  0.00  0.00    +0.000 C 
BRANCH  14  19
ATOM     15  C   UNL     1      44.779   4.473  11.051  0.00  0.00    +0.000 A 
ATOM     16  C   UNL     1      44.407   5.800  11.296  0.00  0.00    +0.000 A 
ATOM     17  C   UNL     1      44.925   6.473  12.403  0.00  0.00    +0.000 A 
ATOM     18  C   UNL     1      45.796   5.822  13.279  0.00  0.00    +0.000 A 
ATOM     19  C   UNL     1      46.167   4.488  13.059  0.00  0.00    +0.000 A 
ATOM     20  C   UNL     1      45.657   3.824  11.931  0.00  0.00    +0.000 A 
BRANCH  15  22
ATOM     21  N   UNL     1      44.043   4.355   8.725  0.00  0.00    +0.000 N 
ATOM     22  C   UNL     1      44.214   3.698   9.910  0.00  0.00    +0.000 C 
ATOM     23  O   UNL     1      43.925   2.516  10.023  0.00  0.00    +0.000 OA
ATOM     24  H   UNL     1      43.722   3.798   7.943  0.00  0.00    +0.000 HD
ATOM     25  H   UNL     1      44.482   5.241   8.521  0.00  0.00    +0.000 HD
ENDBRANCH  15  22
ENDBRANCH  14  19
ENDBRANCH   1  14
TORSDOF 5
ENDMDL
