MODEL 1
REMARK VINA RESULT:    -7.414      0.000      0.000
REMARK INTER + INTRA:         -14.630
REMARK INTER:                 -12.182
REMARK INTRA:                  -2.448
REMARK UNBOUND:                -2.448
REMARK  Name = 
REMARK  12 active torsions:
REMARK  status: ('A' for Active; 'I' for Inactive)
REMARK    1  A    between atoms: C_1  and  C_2
REMARK    2  A    between atoms: C_2  and  N_3
REMARK    3  A    between atoms: C_2  and  C_20
REMARK    4  A    between atoms: N_3  and  C_4
REMARK    5  A    between atoms: C_4  and  C_5
REMARK    6  A    between atoms: C_9  and  C_10
REMARK    7  A    between atoms: C_10  and  O_11
REMARK    8  A    between atoms: O_11  and  C_12
REMARK    9  A    between atoms: C_12  and  C_13
REMARK   10  A    between atoms: C_23  and  C_24
REMARK   11  A    between atoms: C_24  and  N_25
REMARK   12  A    between atoms: C_26  and  C_28
REMARK                            x       y       z     vdW  Elec       q    Type
REMARK                         _______ _______ _______ _____ _____    ______ ____
ROOT
ATOM      1  C   UNL     1      47.969   9.565  12.301  0.00  0.00    +0.000 A 
ATOM      2  C   UNL     1      48.672   8.472  11.773  0.00  0.00    +0.000 A 
ATOM      3  C   UNL     1      49.854   8.019  12.378  0.00  0.00    +0.000 A 
ATOM      4  C   UNL     1      50.343   8.637  13.536  0.00  0.00    +0.000 A 
ATOM      5  C   UNL     1      49.658   9.742  14.049  0.00  0.00    +0.000 A 
ATOM      6  C   UNL     1      48.475  10.181  13.457  0.00  0.00    +0.000 A 
ENDROOT
BRANCH   1   8
ATOM      7  C   UNL     1      46.567  11.563  11.646  0.00  0.00    +0.000 C 
ATOM      8  C   UNL     1      46.666  10.030  11.654  0.00  0.00    +0.000 C 
BRANCH   8   9
ATOM      9  N   UNL     1      45.544   9.376  12.337  0.00  0.00    +0.000 NA
ATOM     10  H   UNL     1      45.926   8.824  13.108  0.00  0.00    +0.000 HD
BRANCH   9  11
ATOM     11  C   UNL     1      44.762   8.478  11.483  0.00  0.00    +0.000 C 
BRANCH  11  12
ATOM     12  C   UNL     1      44.951   7.020  11.851  0.00  0.00    +0.000 A 
ATOM     13  C   UNL     1      45.721   6.678  12.973  0.00  0.00    +0.000 A 
ATOM     14  C   UNL     1      45.849   5.345  13.365  0.00  0.00    +0.000 A 
ATOM     15  C   UNL     1      45.203   4.339  12.647  0.00  0.00    +0.000 A 
ATOM     16  C   UNL     1      44.452   4.653  11.508  0.00  0.00    +0.000 A 
ATOM     17  C   UNL     1      44.374   5.989  11.095  0.00  0.00    +0.000 A 
BRANCH  16  18
ATOM     18  C   UNL     1      43.672   3.600  10.769  0.00  0.00    +0.000 C 
BRANCH  18  19
ATOM     19  O   UNL     1      44.586   2.867   9.956  0.00  0.00    +0.000 OA
BRANCH  19  20
ATOM     20  C   UNL     1      44.705   3.430   8.656  0.00  0.00    +0.000 C 
BRANCH  20  21
ATOM     21  C   UNL     1      45.854   2.760   7.956  0.00  0.00    +0.000 A 
ATOM     22  C   UNL     1      46.668   3.482   7.077  0.00  0.00    +0.000 A 
ATOM     23  C   UNL     1      47.716   2.828   6.450  0.00  0.00    +0.000 A 
ATOM     24  N   UNL     1      48.008   1.523   6.638  0.00  0.00    +0.000 NA
ATOM     25  C   UNL     1      47.204   0.842   7.483  0.00  0.00    +0.000 A 
ATOM     26  C   UNL     1      46.135   1.407   8.158  0.00  0.00    +0.000 A 
ENDBRANCH  20  21
ENDBRANCH  19  20
ENDBRANCH  18  19
ENDBRANCH  16  18
ENDBRANCH  11  12
ENDBRANCH   9  11
ENDBRANCH   8   9
ENDBRANCH   1   8
BRANCH   4  27
ATOM     27  C   UNL     1      51.593   8.157  14.228  0.00  0.00    +0.000 C 
BRANCH  27  28
ATOM     28  N   UNL     1      51.288   7.137  15.193  0.00  0.00    +0.000 N 
ATOM     29  C   UNL     1      51.167   7.414  16.528  0.00  0.00    +0.000 C 
ATOM     30  O   UNL     1      51.262   8.550  16.978  0.00  0.00    +0.000 OA
ATOM     31  H   UNL     1      51.495   6.186  14.910  0.00  0.00    +0.000 HD
BRANCH  29  32
ATOM     32  C   UNL     1      50.838   6.266  17.380  0.00  0.00    +0.000 A 
ATOM     33  C   UNL     1      51.662   5.926  18.444  0.00  0.00    +0.000 A 
ATOM     34  S   UNL     1      51.068   4.624  19.373  0.00  0.00    +0.000 S 
ATOM     35  C   UNL     1      49.727   4.427  18.345  0.00  0.00    +0.000 A 
ATOM     36  N   UNL     1      48.809   3.448  18.565  0.00  0.00    +0.000 NA
ATOM     37  C   UNL     1      47.858   3.401  17.693  0.00  0.00    +0.000 A 
ATOM     38  N   UNL     1      47.737   4.242  16.622  0.00  0.00    +0.000 N 
ATOM     39  C   UNL     1      48.624   5.265  16.373  0.00  0.00    +0.000 A 
ATOM     40  O   UNL     1      48.465   6.026  15.427  0.00  0.00    +0.000 OA
ATOM     41  C   UNL     1      49.718   5.355  17.320  0.00  0.00    +0.000 A 
ATOM     42  H   UNL     1      46.964   4.161  15.976  0.00  0.00    +0.000 HD
ENDBRANCH  29  32
ENDBRANCH  27  28
ENDBRANCH   4  27
TORSDOF 11
ENDMDL
MODEL 2
REMARK VINA RESULT:    -7.205      3.033      8.308
REMARK INTER + INTRA:         -14.286
REMARK INTER:                 -10.762
REMARK INTRA:                  -3.524
REMARK UNBOUND:                -2.448
REMARK  Name = 
REMARK  12 active torsions:
REMARK  status: ('A' for Active; 'I' for Inactive)
REMARK    1  A    between atoms: C_1  and  C_2
REMARK    2  A    between atoms: C_2  and  N_3
REMARK    3  A    between atoms: C_2  and  C_20
REMARK    4  A    between atoms: N_3  and  C_4
REMARK    5  A    between atoms: C_4  and  C_5
REMARK    6  A    between atoms: C_9  and  C_10
REMARK    7  A    between atoms: C_10  and  O_11
REMARK    8  A    between atoms: O_11  and  C_12
REMARK    9  A    between atoms: C_12  and  C_13
REMARK   10  A    between atoms: C_23  and  C_24
REMARK   11  A    between atoms: C_24  and  N_25
REMARK   12  A    between atoms: C_26  and  C_28
REMARK                            x       y       z     vdW  Elec       q    Type
REMARK                         _______ _______ _______ _____ _____    ______ ____
ROOT
ATOM      1  C   UNL     1      50.728   7.584  15.154  0.00  0.00    +0.000 A 
ATOM      2  C   UNL     1      50.577   8.575  14.172  0.00  0.00    +0.000 A 
ATOM      3  C   UNL     1      49.352   8.752  13.513  0.00  0.00    +0.000 A 
ATOM      4  C   UNL     1      48.247   7.956  13.839  0.00  0.00    +0.000 A 
ATOM      5  C   UNL     1      48.401   6.952  14.798  0.00  0.00    +0.000 A 
ATOM      6  C   UNL     1      49.615   6.787  15.465  0.00  0.00    +0.000 A 
ENDROOT
BRANCH   1   8
ATOM      7  C   UNL     1      52.062   6.149  16.748  0.00  0.00    +0.000 C 
ATOM      8  C   UNL     1      52.057   7.421  15.888  0.00  0.00    +0.000 C 
BRANCH   8   9
ATOM      9  N   UNL     1      52.322   8.645  16.653  0.00  0.00    +0.000 NA
ATOM     10  H   UNL     1      53.322   8.846  16.584  0.00  0.00    +0.000 HD
BRANCH   9  11
ATOM     11  C   UNL     1      51.979   8.551  18.075  0.00  0.00    +0.000 C 
BRANCH  11  12
ATOM     12  C   UNL     1      50.500   8.761  18.327  0.00  0.00    +0.000 A 
ATOM     13  C   UNL     1      49.824   9.807  17.682  0.00  0.00    +0.000 A 
ATOM     14  C   UNL     1      48.448   9.973  17.850  0.00  0.00    +0.000 A 
ATOM     15  C   UNL     1      47.730   9.091  18.657  0.00  0.00    +0.000 A 
ATOM     16  C   UNL     1      48.388   8.055  19.333  0.00  0.00    +0.000 A 
ATOM     17  C   UNL     1      49.776   7.932  19.197  0.00  0.00    +0.000 A 
BRANCH  16  18
ATOM     18  C   UNL     1      47.626   7.037  20.137  0.00  0.00    +0.000 C 
BRANCH  18  19
ATOM     19  O   UNL     1      47.939   5.747  19.620  0.00  0.00    +0.000 OA
BRANCH  19  20
ATOM     20  C   UNL     1      47.133   5.419  18.495  0.00  0.00    +0.000 C 
BRANCH  20  21
ATOM     21  C   UNL     1      47.843   4.359  17.699  0.00  0.00    +0.000 A 
ATOM     22  C   UNL     1      47.282   3.864  16.518  0.00  0.00    +0.000 A 
ATOM     23  C   UNL     1      47.966   2.886  15.813  0.00  0.00    +0.000 A 
ATOM     24  N   UNL     1      49.156   2.378  16.198  0.00  0.00    +0.000 NA
ATOM     25  C   UNL     1      49.676   2.864  17.346  0.00  0.00    +0.000 A 
ATOM     26  C   UNL     1      49.070   3.841  18.117  0.00  0.00    +0.000 A 
ENDBRANCH  20  21
ENDBRANCH  19  20
ENDBRANCH  18  19
ENDBRANCH  16  18
ENDBRANCH  11  12
ENDBRANCH   9  11
ENDBRANCH   8   9
ENDBRANCH   1   8
BRANCH   4  27
ATOM     27  C   UNL     1      46.908   8.140  13.172  0.00  0.00    +0.000 C 
BRANCH  27  28
ATOM     28  N   UNL     1      46.299   6.871  12.879  0.00  0.00    +0.000 N 
ATOM     29  C   UNL     1      45.271   6.749  11.983  0.00  0.00    +0.000 C 
ATOM     30  O   UNL     1      44.838   7.699  11.341  0.00  0.00    +0.000 OA
ATOM     31  H   UNL     1      46.421   6.151  13.581  0.00  0.00    +0.000 HD
BRANCH  29  32
ATOM     32  C   UNL     1      44.770   5.384  11.784  0.00  0.00    +0.000 A 
ATOM     33  C   UNL     1      44.092   4.734  12.805  0.00  0.00    +0.000 A 
ATOM     34  S   UNL     1      43.507   3.195  12.357  0.00  0.00    +0.000 S 
ATOM     35  C   UNL     1      44.200   3.318  10.808  0.00  0.00    +0.000 A 
ATOM     36  N   UNL     1      44.089   2.308   9.905  0.00  0.00    +0.000 NA
ATOM     37  C   UNL     1      44.683   2.529   8.780  0.00  0.00    +0.000 A 
ATOM     38  N   UNL     1      45.376   3.667   8.473  0.00  0.00    +0.000 N 
ATOM     39  C   UNL     1      45.492   4.728   9.342  0.00  0.00    +0.000 A 
ATOM     40  O   UNL     1      46.086   5.750   9.020  0.00  0.00    +0.000 OA
ATOM     41  C   UNL     1      44.849   4.526  10.625  0.00  0.00    +0.000 A 
ATOM     42  H   UNL     1      45.815   3.786   7.569  0.00  0.00    +0.000 HD
ENDBRANCH  29  32
ENDBRANCH  27  28
ENDBRANCH   4  27
TORSDOF 11
ENDMDL
MODEL 3
REMARK VINA RESULT:    -7.159      1.947      2.590
REMARK INTER + INTRA:         -14.212
REMARK INTER:                 -12.622
REMARK INTRA:                  -1.590
REMARK UNBOUND:                -2.448
REMARK  Name = 
REMARK  12 active torsions:
REMARK  status: ('A' for Active; 'I' for Inactive)
REMARK    1  A    between atoms: C_1  and  C_2
REMARK    2  A    between atoms: C_2  and  N_3
REMARK    3  A    between atoms: C_2  and  C_20
REMARK    4  A    between atoms: N_3  and  C_4
REMARK    5  A    between atoms: C_4  and  C_5
REMARK    6  A    between atoms: C_9  and  C_10
REMARK    7  A    between atoms: C_10  and  O_11
REMARK    8  A    between atoms: O_11  and  C_12
REMARK    9  A    between atoms: C_12  and  C_13
REMARK   10  A    between atoms: C_23  and  C_24
REMARK   11  A    between atoms: C_24  and  N_25
REMARK   12  A    between atoms: C_26  and  C_28
REMARK                            x       y       z     vdW  Elec       q    Type
REMARK                         _______ _______ _______ _____ _____    ______ ____
ROOT
ATOM      1  C   UNL     1      49.151   8.888  13.796  0.00  0.00    +0.000 A 
ATOM      2  C   UNL     1      48.233   9.080  14.839  0.00  0.00    +0.000 A 
ATOM      3  C   UNL     1      48.623   8.923  16.177  0.00  0.00    +0.000 A 
ATOM      4  C   UNL     1      49.945   8.591  16.499  0.00  0.00    +0.000 A 
ATOM      5  C   UNL     1      50.855   8.374  15.462  0.00  0.00    +0.000 A 
ATOM      6  C   UNL     1      50.471   8.547  14.132  0.00  0.00    +0.000 A 
ENDROOT
BRANCH   1   8
ATOM      7  C   UNL     1      47.828  10.331  12.199  0.00  0.00    +0.000 C 
ATOM      8  C   UNL     1      48.725   9.093  12.344  0.00  0.00    +0.000 C 
BRANCH   8   9
ATOM      9  N   UNL     1      48.097   7.857  11.862  0.00  0.00    +0.000 NA
ATOM     10  H   UNL     1      48.116   7.875  10.840  0.00  0.00    +0.000 HD
BRANCH   9  11
ATOM     11  C   UNL     1      46.704   7.686  12.285  0.00  0.00    +0.000 C 
BRANCH  11  12
ATOM     12  C   UNL     1      46.285   6.230  12.316  0.00  0.00    +0.000 A 
ATOM     13  C   UNL     1      46.840   5.364  13.270  0.00  0.00    +0.000 A 
ATOM     14  C   UNL     1      46.415   4.037  13.356  0.00  0.00    +0.000 A 
ATOM     15  C   UNL     1      45.424   3.563  12.497  0.00  0.00    +0.000 A 
ATOM     16  C   UNL     1      44.874   4.401  11.519  0.00  0.00    +0.000 A 
ATOM     17  C   UNL     1      45.347   5.714  11.409  0.00  0.00    +0.000 A 
BRANCH  16  18
ATOM     18  C   UNL     1      43.742   3.942  10.641  0.00  0.00    +0.000 C 
BRANCH  18  19
ATOM     19  O   UNL     1      44.267   3.011   9.699  0.00  0.00    +0.000 OA
BRANCH  19  20
ATOM     20  C   UNL     1      44.685   3.652   8.500  0.00  0.00    +0.000 C 
BRANCH  20  21
ATOM     21  C   UNL     1      45.830   2.867   7.920  0.00  0.00    +0.000 A 
ATOM     22  C   UNL     1      45.963   1.502   8.191  0.00  0.00    +0.000 A 
ATOM     23  C   UNL     1      47.032   0.814   7.640  0.00  0.00    +0.000 A 
ATOM     24  N   UNL     1      47.963   1.385   6.845  0.00  0.00    +0.000 NA
ATOM     25  C   UNL     1      47.821   2.706   6.603  0.00  0.00    +0.000 A 
ATOM     26  C   UNL     1      46.786   3.478   7.106  0.00  0.00    +0.000 A 
ENDBRANCH  20  21
ENDBRANCH  19  20
ENDBRANCH  18  19
ENDBRANCH  16  18
ENDBRANCH  11  12
ENDBRANCH   9  11
ENDBRANCH   8   9
ENDBRANCH   1   8
BRANCH   4  27
ATOM     27  C   UNL     1      50.404   8.444  17.927  0.00  0.00    +0.000 C 
BRANCH  27  28
ATOM     28  N   UNL     1      51.215   7.269  18.089  0.00  0.00    +0.000 N 
ATOM     29  C   UNL     1      50.713   6.108  18.613  0.00  0.00    +0.000 C 
ATOM     30  O   UNL     1      49.536   5.981  18.931  0.00  0.00    +0.000 OA
ATOM     31  H   UNL     1      52.216   7.424  18.120  0.00  0.00    +0.000 HD
BRANCH  29  32
ATOM     32  C   UNL     1      51.665   4.994  18.698  0.00  0.00    +0.000 A 
ATOM     33  C   UNL     1      52.868   5.154  19.371  0.00  0.00    +0.000 A 
ATOM     34  S   UNL     1      53.799   3.726  19.443  0.00  0.00    +0.000 S 
ATOM     35  C   UNL     1      52.657   2.866  18.519  0.00  0.00    +0.000 A 
ATOM     36  N   UNL     1      52.856   1.562  18.190  0.00  0.00    +0.000 NA
ATOM     37  C   UNL     1      51.920   1.044  17.468  0.00  0.00    +0.000 A 
ATOM     38  N   UNL     1      50.802   1.708  17.045  0.00  0.00    +0.000 N 
ATOM     39  C   UNL     1      50.542   3.018  17.374  0.00  0.00    +0.000 A 
ATOM     40  O   UNL     1      49.511   3.571  17.013  0.00  0.00    +0.000 OA
ATOM     41  C   UNL     1      51.569   3.649  18.180  0.00  0.00    +0.000 A 
ATOM     42  H   UNL     1      50.098   1.245  16.485  0.00  0.00    +0.000 HD
ENDBRANCH  29  32
ENDBRANCH  27  28
ENDBRANCH   4  27
TORSDOF 11
ENDMDL
MODEL 4
REMARK VINA RESULT:    -7.068      2.688      8.362
REMARK INTER + INTRA:         -14.062
REMARK INTER:                 -11.224
REMARK INTRA:                  -2.837
REMARK UNBOUND:                -2.448
REMARK  Name = 
REMARK  12 active torsions:
REMARK  status: ('A' for Active; 'I' for Inactive)
REMARK    1  A    between atoms: C_1  and  C_2
REMARK    2  A    between atoms: C_2  and  N_3
REMARK    3  A    between atoms: C_2  and  C_20
REMARK    4  A    between atoms: N_3  and  C_4
REMARK    5  A    between atoms: C_4  and  C_5
REMARK    6  A    between atoms: C_9  and  C_10
REMARK    7  A    between atoms: C_10  and  O_11
REMARK    8  A    between atoms: O_11  and  C_12
REMARK    9  A    between atoms: C_12  and  C_13
REMARK   10  A    between atoms: C_23  and  C_24
REMARK   11  A    between atoms: C_24  and  N_25
REMARK   12  A    between atoms: C_26  and  C_28
REMARK                            x       y       z     vdW  Elec       q    Type
REMARK                         _______ _______ _______ _____ _____    ______ ____
ROOT
ATOM      1  C   UNL     1      50.584   8.470  11.580  0.00  0.00    +0.000 A 
ATOM      2  C   UNL     1      49.769   9.611  11.615  0.00  0.00    +0.000 A 
ATOM      3  C   UNL     1      48.436   9.528  12.043  0.00  0.00    +0.000 A 
ATOM      4  C   UNL     1      47.898   8.305  12.465  0.00  0.00    +0.000 A 
ATOM      5  C   UNL     1      48.701   7.162  12.406  0.00  0.00    +0.000 A 
ATOM      6  C   UNL     1      50.031   7.249  11.996  0.00  0.00    +0.000 A 
ENDROOT
BRANCH   1   8
ATOM      7  C   UNL     1      52.293   7.793   9.846  0.00  0.00    +0.000 C 
ATOM      8  C   UNL     1      52.043   8.577  11.143  0.00  0.00    +0.000 C 
BRANCH   8   9
ATOM      9  N   UNL     1      52.898   8.151  12.257  0.00  0.00    +0.000 NA
ATOM     10  H   UNL     1      52.518   7.278  12.627  0.00  0.00    +0.000 HD
BRANCH   9  11
ATOM     11  C   UNL     1      52.971   9.114  13.360  0.00  0.00    +0.000 C 
BRANCH  11  12
ATOM     12  C   UNL     1      52.218   8.644  14.588  0.00  0.00    +0.000 A 
ATOM     13  C   UNL     1      51.071   9.334  15.009  0.00  0.00    +0.000 A 
ATOM     14  C   UNL     1      50.328   8.875  16.098  0.00  0.00    +0.000 A 
ATOM     15  C   UNL     1      50.715   7.717  16.772  0.00  0.00    +0.000 A 
ATOM     16  C   UNL     1      51.872   7.028  16.387  0.00  0.00    +0.000 A 
ATOM     17  C   UNL     1      52.638   7.528  15.327  0.00  0.00    +0.000 A 
BRANCH  16  18
ATOM     18  C   UNL     1      52.263   5.729  17.038  0.00  0.00    +0.000 C 
BRANCH  18  19
ATOM     19  O   UNL     1      51.346   5.478  18.100  0.00  0.00    +0.000 OA
BRANCH  19  20
ATOM     20  C   UNL     1      51.014   4.099  18.195  0.00  0.00    +0.000 C 
BRANCH  20  21
ATOM     21  C   UNL     1      49.563   3.937  17.833  0.00  0.00    +0.000 A 
ATOM     22  C   UNL     1      49.132   2.820  17.112  0.00  0.00    +0.000 A 
ATOM     23  C   UNL     1      47.788   2.708  16.796  0.00  0.00    +0.000 A 
ATOM     24  N   UNL     1      46.855   3.620  17.147  0.00  0.00    +0.000 NA
ATOM     25  C   UNL     1      47.294   4.696  17.835  0.00  0.00    +0.000 A 
ATOM     26  C   UNL     1      48.615   4.895  18.199  0.00  0.00    +0.000 A 
ENDBRANCH  20  21
ENDBRANCH  19  20
ENDBRANCH  18  19
ENDBRANCH  16  18
ENDBRANCH  11  12
ENDBRANCH   9  11
ENDBRANCH   8   9
ENDBRANCH   1   8
BRANCH   4  27
ATOM     27  C   UNL     1      46.480   8.186  12.959  0.00  0.00    +0.000 C 
BRANCH  27  28
ATOM     28  N   UNL     1      45.937   6.889  12.660  0.00  0.00    +0.000 N 
ATOM     29  C   UNL     1      45.011   6.701  11.669  0.00  0.00    +0.000 C 
ATOM     30  O   UNL     1      44.623   7.611  10.946  0.00  0.00    +0.000 OA
ATOM     31  H   UNL     1      46.003   6.202  13.401  0.00  0.00    +0.000 HD
BRANCH  29  32
ATOM     32  C   UNL     1      44.567   5.315  11.479  0.00  0.00    +0.000 A 
ATOM     33  C   UNL     1      43.817   4.681  12.459  0.00  0.00    +0.000 A 
ATOM     34  S   UNL     1      43.317   3.110  12.019  0.00  0.00    +0.000 S 
ATOM     35  C   UNL     1      44.144   3.199  10.535  0.00  0.00    +0.000 A 
ATOM     36  N   UNL     1      44.144   2.155   9.665  0.00  0.00    +0.000 NA
ATOM     37  C   UNL     1      44.831   2.354   8.591  0.00  0.00    +0.000 A 
ATOM     38  N   UNL     1      45.517   3.500   8.303  0.00  0.00    +0.000 N 
ATOM     39  C   UNL     1      45.526   4.594   9.138  0.00  0.00    +0.000 A 
ATOM     40  O   UNL     1      46.118   5.622   8.832  0.00  0.00    +0.000 OA
ATOM     41  C   UNL     1      44.774   4.419  10.365  0.00  0.00    +0.000 A 
ATOM     42  H   UNL     1      46.033   3.600   7.439  0.00  0.00    +0.000 HD
ENDBRANCH  29  32
ENDBRANCH  27  28
ENDBRANCH   4  27
TORSDOF 11
ENDMDL
MODEL 5
REMARK VINA RESULT:    -7.024      3.930     10.112
REMARK INTER + INTRA:         -13.990
REMARK INTER:                 -10.841
REMARK INTRA:                  -3.149
REMARK UNBOUND:                -2.448
REMARK  Name = 
REMARK  12 active torsions:
REMARK  status: ('A' for Active; 'I' for Inactive)
REMARK    1  A    between atoms: C_1  and  C_2
REMARK    2  A    between atoms: C_2  and  N_3
REMARK    3  A    between atoms: C_2  and  C_20
REMARK    4  A    between atoms: N_3  and  C_4
REMARK    5  A    between atoms: C_4  and  C_5
REMARK    6  A    between atoms: C_9  and  C_10
REMARK    7  A    between atoms: C_10  and  O_11
REMARK    8  A    between atoms: O_11  and  C_12
REMARK    9  A    between atoms: C_12  and  C_13
REMARK   10  A    between atoms: C_23  and  C_24
REMARK   11  A    between atoms: C_24  and  N_25
REMARK   12  A    between atoms: C_26  and  C_28
REMARK                            x       y       z     vdW  Elec       q    Type
REMARK                         _______ _______ _______ _____ _____    ______ ____
ROOT
ATOM      1  C   UNL     1      51.429   3.037  17.630  0.00  0.00    +0.000 A 
ATOM      2  C   UNL     1      50.761   4.242  17.901  0.00  0.00    +0.000 A 
ATOM      3  C   UNL     1      49.383   4.364  17.673  0.00  0.00    +0.000 A 
ATOM      4  C   UNL     1      48.641   3.278  17.191  0.00  0.00    +0.000 A 
ATOM      5  C   UNL     1      49.308   2.085  16.898  0.00  0.00    +0.000 A 
ATOM      6  C   UNL     1      50.675   1.959  17.140  0.00  0.00    +0.000 A 
ENDROOT
BRANCH   1   8
ATOM      7  C   UNL     1      53.318   1.436  18.133  0.00  0.00    +0.000 C 
ATOM      8  C   UNL     1      52.924   2.904  17.912  0.00  0.00    +0.000 C 
BRANCH   8   9
ATOM      9  N   UNL     1      53.268   3.777  19.040  0.00  0.00    +0.000 NA
ATOM     10  H   UNL     1      52.417   4.265  19.328  0.00  0.00    +0.000 HD
BRANCH   9  11
ATOM     11  C   UNL     1      54.284   4.787  18.730  0.00  0.00    +0.000 C 
BRANCH  11  12
ATOM     12  C   UNL     1      53.726   5.940  17.921  0.00  0.00    +0.000 A 
ATOM     13  C   UNL     1      53.958   5.999  16.538  0.00  0.00    +0.000 A 
ATOM     14  C   UNL     1      53.395   7.017  15.767  0.00  0.00    +0.000 A 
ATOM     15  C   UNL     1      52.585   7.981  16.366  0.00  0.00    +0.000 A 
ATOM     16  C   UNL     1      52.362   7.959  17.749  0.00  0.00    +0.000 A 
ATOM     17  C   UNL     1      52.975   6.963  18.518  0.00  0.00    +0.000 A 
BRANCH  16  18
ATOM     18  C   UNL     1      51.422   8.933  18.405  0.00  0.00    +0.000 C 
BRANCH  18  19
ATOM     19  O   UNL     1      51.187   8.486  19.738  0.00  0.00    +0.000 OA
BRANCH  19  20
ATOM     20  C   UNL     1      49.809   8.553  20.082  0.00  0.00    +0.000 C 
BRANCH  20  21
ATOM     21  C   UNL     1      49.362   7.181  20.508  0.00  0.00    +0.000 A 
ATOM     22  C   UNL     1      48.022   6.804  20.390  0.00  0.00    +0.000 A 
ATOM     23  C   UNL     1      47.649   5.532  20.795  0.00  0.00    +0.000 A 
ATOM     24  N   UNL     1      48.510   4.621  21.299  0.00  0.00    +0.000 NA
ATOM     25  C   UNL     1      49.799   5.009  21.412  0.00  0.00    +0.000 A 
ATOM     26  C   UNL     1      50.268   6.257  21.033  0.00  0.00    +0.000 A 
ENDBRANCH  20  21
ENDBRANCH  19  20
ENDBRANCH  18  19
ENDBRANCH  16  18
ENDBRANCH  11  12
ENDBRANCH   9  11
ENDBRANCH   8   9
ENDBRANCH   1   8
BRANCH   4  27
ATOM     27  C   UNL     1      47.153   3.366  16.964  0.00  0.00    +0.000 C 
BRANCH  27  28
ATOM     28  N   UNL     1      46.841   4.365  15.980  0.00  0.00    +0.000 N 
ATOM     29  C   UNL     1      46.959   4.123  14.637  0.00  0.00    +0.000 C 
ATOM     30  O   UNL     1      47.291   3.032  14.190  0.00  0.00    +0.000 OA
ATOM     31  H   UNL     1      46.857   5.325  16.305  0.00  0.00    +0.000 HD
BRANCH  29  32
ATOM     32  C   UNL     1      46.587   5.241  13.763  0.00  0.00    +0.000 A 
ATOM     33  C   UNL     1      47.464   6.299  13.569  0.00  0.00    +0.000 A 
ATOM     34  S   UNL     1      46.895   7.454  12.450  0.00  0.00    +0.000 S 
ATOM     35  C   UNL     1      45.430   6.615  12.239  0.00  0.00    +0.000 A 
ATOM     36  N   UNL     1      44.462   7.086  11.409  0.00  0.00    +0.000 NA
ATOM     37  C   UNL     1      43.395   6.360  11.365  0.00  0.00    +0.000 A 
ATOM     38  N   UNL     1      43.207   5.204  12.072  0.00  0.00    +0.000 N 
ATOM     39  C   UNL     1      44.167   4.673  12.902  0.00  0.00    +0.000 A 
ATOM     40  O   UNL     1      43.982   3.614  13.490  0.00  0.00    +0.000 OA
ATOM     41  C   UNL     1      45.383   5.457  12.993  0.00  0.00    +0.000 A 
ATOM     42  H   UNL     1      42.350   4.673  11.990  0.00  0.00    +0.000 HD
ENDBRANCH  29  32
ENDBRANCH  27  28
ENDBRANCH   4  27
TORSDOF 11
ENDMDL
MODEL 6
REMARK VINA RESULT:    -6.615      3.656      8.163
REMARK INTER + INTRA:         -13.317
REMARK INTER:                  -9.722
REMARK INTRA:                  -3.594
REMARK UNBOUND:                -2.448
REMARK  Name = 
REMARK  12 active torsions:
REMARK  status: ('A' for Active; 'I' for Inactive)
REMARK    1  A    between atoms: C_1  and  C_2
REMARK    2  A    between atoms: C_2  and  N_3
REMARK    3  A    between atoms: C_2  and  C_20
REMARK    4  A    between atoms: N_3  and  C_4
REMARK    5  A    between atoms: C_4  and  C_5
REMARK    6  A    between atoms: C_9  and  C_10
REMARK    7  A    between atoms: C_10  and  O_11
REMARK    8  A    between atoms: O_11  and  C_12
REMARK    9  A    between atoms: C_12  and  C_13
REMARK   10  A    between atoms: C_23  and  C_24
REMARK   11  A    between atoms: C_24  and  N_25
REMARK   12  A    between atoms: C_26  and  C_28
REMARK                            x       y       z     vdW  Elec       q    Type
REMARK                         _______ _______ _______ _____ _____    ______ ____
ROOT
ATOM      1  C   UNL     1      51.679   7.286  16.636  0.00  0.00    +0.000 A 
ATOM      2  C   UNL     1      51.769   8.517  15.970  0.00  0.00    +0.000 A 
ATOM      3  C   UNL     1      50.684   9.015  15.234  0.00  0.00    +0.000 A 
ATOM      4  C   UNL     1      49.481   8.301  15.167  0.00  0.00    +0.000 A 
ATOM      5  C   UNL     1      49.397   7.062  15.809  0.00  0.00    +0.000 A 
ATOM      6  C   UNL     1      50.471   6.576  16.554  0.00  0.00    +0.000 A 
ENDROOT
BRANCH   1   8
ATOM      7  C   UNL     1      53.485   5.527  16.811  0.00  0.00    +0.000 C 
ATOM      8  C   UNL     1      52.855   6.767  17.461  0.00  0.00    +0.000 C 
BRANCH   8   9
ATOM      9  N   UNL     1      52.396   6.538  18.836  0.00  0.00    +0.000 NA
ATOM     10  H   UNL     1      51.533   5.992  18.791  0.00  0.00    +0.000 HD
BRANCH   9  11
ATOM     11  C   UNL     1      52.116   7.764  19.589  0.00  0.00    +0.000 C 
BRANCH  11  12
ATOM     12  C   UNL     1      50.635   8.080  19.647  0.00  0.00    +0.000 A 
ATOM     13  C   UNL     1      50.170   9.329  19.208  0.00  0.00    +0.000 A 
ATOM     14  C   UNL     1      48.804   9.611  19.192  0.00  0.00    +0.000 A 
ATOM     15  C   UNL     1      47.884   8.647  19.604  0.00  0.00    +0.000 A 
ATOM     16  C   UNL     1      48.326   7.403  20.073  0.00  0.00    +0.000 A 
ATOM     17  C   UNL     1      49.702   7.152  20.133  0.00  0.00    +0.000 A 
BRANCH  16  18
ATOM     18  C   UNL     1      47.355   6.314  20.438  0.00  0.00    +0.000 C 
BRANCH  18  19
ATOM     19  O   UNL     1      47.746   5.128  19.752  0.00  0.00    +0.000 OA
BRANCH  19  20
ATOM     20  C   UNL     1      47.360   5.158  18.383  0.00  0.00    +0.000 C 
BRANCH  20  21
ATOM     21  C   UNL     1      48.077   4.048  17.667  0.00  0.00    +0.000 A 
ATOM     22  C   UNL     1      49.321   3.598  18.120  0.00  0.00    +0.000 A 
ATOM     23  C   UNL     1      49.951   2.574  17.431  0.00  0.00    +0.000 A 
ATOM     24  N   UNL     1      49.432   1.973  16.339  0.00  0.00    +0.000 NA
ATOM     25  C   UNL     1      48.234   2.428  15.913  0.00  0.00    +0.000 A 
ATOM     26  C   UNL     1      47.526   3.444  16.534  0.00  0.00    +0.000 A 
ENDBRANCH  20  21
ENDBRANCH  19  20
ENDBRANCH  18  19
ENDBRANCH  16  18
ENDBRANCH  11  12
ENDBRANCH   9  11
ENDBRANCH   8   9
ENDBRANCH   1   8
BRANCH   4  27
ATOM     27  C   UNL     1      48.286   8.822  14.410  0.00  0.00    +0.000 C 
BRANCH  27  28
ATOM     28  N   UNL     1      47.392   7.753  14.058  0.00  0.00    +0.000 N 
ATOM     29  C   UNL     1      47.606   6.959  12.963  0.00  0.00    +0.000 C 
ATOM     30  O   UNL     1      48.590   7.077  12.243  0.00  0.00    +0.000 OA
ATOM     31  H   UNL     1      46.455   7.819  14.436  0.00  0.00    +0.000 HD
BRANCH  29  32
ATOM     32  C   UNL     1      46.610   5.902  12.750  0.00  0.00    +0.000 A 
ATOM     33  C   UNL     1      46.912   4.585  13.066  0.00  0.00    +0.000 A 
ATOM     34  S   UNL     1      45.601   3.517  12.838  0.00  0.00    +0.000 S 
ATOM     35  C   UNL     1      44.610   4.767  12.244  0.00  0.00    +0.000 A 
ATOM     36  N   UNL     1      43.336   4.522  11.837  0.00  0.00    +0.000 NA
ATOM     37  C   UNL     1      42.710   5.558  11.389  0.00  0.00    +0.000 A 
ATOM     38  N   UNL     1      43.238   6.817  11.311  0.00  0.00    +0.000 N 
ATOM     39  C   UNL     1      44.511   7.120  11.736  0.00  0.00    +0.000 A 
ATOM     40  O   UNL     1      44.939   8.266  11.690  0.00  0.00    +0.000 OA
ATOM     41  C   UNL     1      45.261   5.987  12.242  0.00  0.00    +0.000 A 
ATOM     42  H   UNL     1      42.694   7.592  10.957  0.00  0.00    +0.000 HD
ENDBRANCH  29  32
ENDBRANCH  27  28
ENDBRANCH   4  27
TORSDOF 11
ENDMDL
MODEL 7
REMARK VINA RESULT:    -6.565      3.628      9.482
REMARK INTER + INTRA:         -13.235
REMARK INTER:                 -10.433
REMARK INTRA:                  -2.802
REMARK UNBOUND:                -2.448
REMARK  Name = 
REMARK  12 active torsions:
REMARK  status: ('A' for Active; 'I' for Inactive)
REMARK    1  A    between atoms: C_1  and  C_2
REMARK    2  A    between atoms: C_2  and  N_3
REMARK    3  A    between atoms: C_2  and  C_20
REMARK    4  A    between atoms: N_3  and  C_4
REMARK    5  A    between atoms: C_4  and  C_5
REMARK    6  A    between atoms: C_9  and  C_10
REMARK    7  A    between atoms: C_10  and  O_11
REMARK    8  A    between atoms: O_11  and  C_12
REMARK    9  A    between atoms: C_12  and  C_13
REMARK   10  A    between atoms: C_23  and  C_24
REMARK   11  A    between atoms: C_24  and  N_25
REMARK   12  A    between atoms: C_26  and  C_28
REMARK                            x       y       z     vdW  Elec       q    Type
REMARK                         _______ _______ _______ _____ _____    ______ ____
ROOT
ATOM      1  C   UNL     1      48.638   5.618  19.402  0.00  0.00    +0.000 A 
ATOM      2  C   UNL     1      48.372   6.993  19.311  0.00  0.00    +0.000 A 
ATOM      3  C   UNL     1      48.480   7.665  18.085  0.00  0.00    +0.000 A 
ATOM      4  C   UNL     1      48.836   6.972  16.921  0.00  0.00    +0.000 A 
ATOM      5  C   UNL     1      49.126   5.608  17.014  0.00  0.00    +0.000 A 
ATOM      6  C   UNL     1      49.002   4.937  18.230  0.00  0.00    +0.000 A 
ENDROOT
BRANCH   1   8
ATOM      7  C   UNL     1      47.650   5.713  21.726  0.00  0.00    +0.000 C 
ATOM      8  C   UNL     1      48.487   4.889  20.735  0.00  0.00    +0.000 C 
BRANCH   8   9
ATOM      9  N   UNL     1      49.823   4.550  21.238  0.00  0.00    +0.000 NA
ATOM     10  H   UNL     1      49.758   3.648  21.715  0.00  0.00    +0.000 HD
BRANCH   9  11
ATOM     11  C   UNL     1      50.372   5.523  22.187  0.00  0.00    +0.000 C 
BRANCH  11  12
ATOM     12  C   UNL     1      51.358   6.472  21.537  0.00  0.00    +0.000 A 
ATOM     13  C   UNL     1      51.563   7.748  22.083  0.00  0.00    +0.000 A 
ATOM     14  C   UNL     1      52.516   8.608  21.537  0.00  0.00    +0.000 A 
ATOM     15  C   UNL     1      53.284   8.201  20.446  0.00  0.00    +0.000 A 
ATOM     16  C   UNL     1      53.079   6.942  19.867  0.00  0.00    +0.000 A 
ATOM     17  C   UNL     1      52.083   6.110  20.392  0.00  0.00    +0.000 A 
BRANCH  16  18
ATOM     18  C   UNL     1      53.953   6.443  18.749  0.00  0.00    +0.000 C 
BRANCH  18  19
ATOM     19  O   UNL     1      53.287   5.347  18.127  0.00  0.00    +0.000 OA
BRANCH  19  20
ATOM     20  C   UNL     1      54.130   4.207  18.024  0.00  0.00    +0.000 C 
BRANCH  20  21
ATOM     21  C   UNL     1      53.261   2.992  17.852  0.00  0.00    +0.000 A 
ATOM     22  C   UNL     1      51.897   3.129  17.576  0.00  0.00    +0.000 A 
ATOM     23  C   UNL     1      51.129   1.985  17.427  0.00  0.00    +0.000 A 
ATOM     24  N   UNL     1      51.621   0.731  17.528  0.00  0.00    +0.000 NA
ATOM     25  C   UNL     1      52.939   0.622  17.803  0.00  0.00    +0.000 A 
ATOM     26  C   UNL     1      53.788   1.704  17.968  0.00  0.00    +0.000 A 
ENDBRANCH  20  21
ENDBRANCH  19  20
ENDBRANCH  18  19
ENDBRANCH  16  18
ENDBRANCH  11  12
ENDBRANCH   9  11
ENDBRANCH   8   9
ENDBRANCH   1   8
BRANCH   4  27
ATOM     27  C   UNL     1      48.932   7.657  15.583  0.00  0.00    +0.000 C 
BRANCH  27  28
ATOM     28  N   UNL     1      47.801   7.336  14.757  0.00  0.00    +0.000 N 
ATOM     29  C   UNL     1      47.932   6.638  13.586  0.00  0.00    +0.000 C 
ATOM     30  O   UNL     1      49.008   6.204  13.193  0.00  0.00    +0.000 OA
ATOM     31  H   UNL     1      46.979   7.915  14.890  0.00  0.00    +0.000 HD
BRANCH  29  32
ATOM     32  C   UNL     1      46.680   6.378  12.867  0.00  0.00    +0.000 A 
ATOM     33  C   UNL     1      45.982   7.424  12.278  0.00  0.00    +0.000 A 
ATOM     34  S   UNL     1      44.603   6.915  11.411  0.00  0.00    +0.000 S 
ATOM     35  C   UNL     1      44.855   5.290  11.850  0.00  0.00    +0.000 A 
ATOM     36  N   UNL     1      44.001   4.312  11.447  0.00  0.00    +0.000 NA
ATOM     37  C   UNL     1      44.302   3.131  11.874  0.00  0.00    +0.000 A 
ATOM     38  N   UNL     1      45.378   2.836  12.664  0.00  0.00    +0.000 N 
ATOM     39  C   UNL     1      46.285   3.786  13.074  0.00  0.00    +0.000 A 
ATOM     40  O   UNL     1      47.261   3.482  13.749  0.00  0.00    +0.000 OA
ATOM     41  C   UNL     1      45.987   5.133  12.628  0.00  0.00    +0.000 A 
ATOM     42  H   UNL     1      45.566   1.888  12.961  0.00  0.00    +0.000 HD
ENDBRANCH  29  32
ENDBRANCH  27  28
ENDBRANCH   4  27
TORSDOF 11
ENDMDL
MODEL 8
REMARK VINA RESULT:    -6.547      2.659      4.425
REMARK INTER + INTRA:         -13.205
REMARK INTER:                 -11.162
REMARK INTRA:                  -2.043
REMARK UNBOUND:                -2.448
REMARK  Name = 
REMARK  12 active torsions:
REMARK  status: ('A' for Active; 'I' for Inactive)
REMARK    1  A    between atoms: C_1  and  C_2
REMARK    2  A    between atoms: C_2  and  N_3
REMARK    3  A    between atoms: C_2  and  C_20
REMARK    4  A    between atoms: N_3  and  C_4
REMARK    5  A    between atoms: C_4  and  C_5
REMARK    6  A    between atoms: C_9  and  C_10
REMARK    7  A    between atoms: C_10  and  O_11
REMARK    8  A    between atoms: O_11  and  C_12
REMARK    9  A    between atoms: C_12  and  C_13
REMARK   10  A    between atoms: C_23  and  C_24
REMARK   11  A    between atoms: C_24  and  N_25
REMARK   12  A    between atoms: C_26  and  C_28
REMARK                            x       y       z     vdW  Elec       q    Type
REMARK                         _______ _______ _______ _____ _____    ______ ____
ROOT
ATOM      1  C   UNL     1      50.141   9.242  12.490  0.00  0.00    +0.000 A 
ATOM      2  C   UNL     1      50.215   9.587  13.849  0.00  0.00    +0.000 A 
ATOM      3  C   UNL     1      49.719   8.725  14.837  0.00  0.00    +0.000 A 
ATOM      4  C   UNL     1      49.159   7.489  14.488  0.00  0.00    +0.000 A 
ATOM      5  C   UNL     1      49.061   7.153  13.134  0.00  0.00    +0.000 A 
ATOM      6  C   UNL     1      49.570   8.004  12.154  0.00  0.00    +0.000 A 
ENDROOT
BRANCH   1   8
ATOM      7  C   UNL     1      51.583  11.271  12.055  0.00  0.00    +0.000 C 
ATOM      8  C   UNL     1      50.714  10.173  11.424  0.00  0.00    +0.000 C 
BRANCH   8   9
ATOM      9  N   UNL     1      49.606  10.697  10.617  0.00  0.00    +0.000 NA
ATOM     10  H   UNL     1      50.006  11.150   9.793  0.00  0.00    +0.000 HD
BRANCH   9  11
ATOM     11  C   UNL     1      48.769  11.681  11.312  0.00  0.00    +0.000 C 
BRANCH  11  12
ATOM     12  C   UNL     1      47.311  11.274  11.352  0.00  0.00    +0.000 A 
ATOM     13  C   UNL     1      46.346  12.072  10.720  0.00  0.00    +0.000 A 
ATOM     14  C   UNL     1      45.007  11.677  10.689  0.00  0.00    +0.000 A 
ATOM     15  C   UNL     1      44.619  10.475  11.281  0.00  0.00    +0.000 A 
ATOM     16  C   UNL     1      45.560   9.675  11.942  0.00  0.00    +0.000 A 
ATOM     17  C   UNL     1      46.889  10.109  12.010  0.00  0.00    +0.000 A 
BRANCH  16  18
ATOM     18  C   UNL     1      45.185   8.333  12.510  0.00  0.00    +0.000 C 
BRANCH  18  19
ATOM     19  O   UNL     1      44.911   7.457  11.420  0.00  0.00    +0.000 OA
BRANCH  19  20
ATOM     20  C   UNL     1      45.792   6.342  11.404  0.00  0.00    +0.000 C 
BRANCH  20  21
ATOM     21  C   UNL     1      44.965   5.086  11.390  0.00  0.00    +0.000 A 
ATOM     22  C   UNL     1      44.831   4.338  10.217  0.00  0.00    +0.000 A 
ATOM     23  C   UNL     1      44.058   3.189  10.244  0.00  0.00    +0.000 A 
ATOM     24  N   UNL     1      43.421   2.737  11.346  0.00  0.00    +0.000 NA
ATOM     25  C   UNL     1      43.557   3.479  12.466  0.00  0.00    +0.000 A 
ATOM     26  C   UNL     1      44.308   4.640  12.539  0.00  0.00    +0.000 A 
ENDBRANCH  20  21
ENDBRANCH  19  20
ENDBRANCH  18  19
ENDBRANCH  16  18
ENDBRANCH  11  12
ENDBRANCH   9  11
ENDBRANCH   8   9
ENDBRANCH   1   8
BRANCH   4  27
ATOM     27  C   UNL     1      48.644   6.526  15.526  0.00  0.00    +0.000 C 
BRANCH  27  28
ATOM     28  N   UNL     1      49.728   5.869  16.203  0.00  0.00    +0.000 N 
ATOM     29  C   UNL     1      49.518   5.021  17.257  0.00  0.00    +0.000 C 
ATOM     30  O   UNL     1      48.398   4.731  17.659  0.00  0.00    +0.000 OA
ATOM     31  H   UNL     1      50.639   6.301  16.099  0.00  0.00    +0.000 HD
BRANCH  29  32
ATOM     32  C   UNL     1      50.728   4.419  17.828  0.00  0.00    +0.000 A 
ATOM     33  C   UNL     1      51.576   5.175  18.625  0.00  0.00    +0.000 A 
ATOM     34  S   UNL     1      52.876   4.280  19.272  0.00  0.00    +0.000 S 
ATOM     35  C   UNL     1      52.388   2.870  18.454  0.00  0.00    +0.000 A 
ATOM     36  N   UNL     1      53.097   1.714  18.560  0.00  0.00    +0.000 NA
ATOM     37  C   UNL     1      52.625   0.733  17.867  0.00  0.00    +0.000 A 
ATOM     38  N   UNL     1      51.509   0.797  17.080  0.00  0.00    +0.000 N 
ATOM     39  C   UNL     1      50.743   1.935  16.962  0.00  0.00    +0.000 A 
ATOM     40  O   UNL     1      49.726   1.948  16.280  0.00  0.00    +0.000 OA
ATOM     41  C   UNL     1      51.237   3.071  17.716  0.00  0.00    +0.000 A 
ATOM     42  H   UNL     1      51.183  -0.010  16.565  0.00  0.00    +0.000 HD
ENDBRANCH  29  32
ENDBRANCH  27  28
ENDBRANCH   4  27
TORSDOF 11
ENDMDL
