MODEL 1
REMARK VINA RESULT:    -8.197      0.000      0.000
REMARK INTER + INTRA:         -12.836
REMARK INTER:                 -11.551
REMARK INTRA:                  -1.285
REMARK UNBOUND:                -1.285
REMARK  Name = 
REMARK  8 active torsions:
REMARK  status: ('A' for Active; 'I' for Inactive)
REMARK    1  A    between atoms: C_1  and  N_2
REMARK    2  A    between atoms: C_4  and  C_5
REMARK    3  A    between atoms: N_7  and  C_8
REMARK    4  A    between atoms: C_8  and  C_9
REMARK    5  A    between atoms: C_12  and  C_13
REMARK    6  A    between atoms: C_13  and  N_14
REMARK    7  A    between atoms: N_14  and  C_15
REMARK    8  A    between atoms: C_15  and  C_16
REMARK                            x       y       z     vdW  Elec       q    Type
REMARK                         _______ _______ _______ _____ _____    ______ ____
ROOT
ATOM      1  C   UNL     1      46.957   7.923  12.913  0.00  0.00    +0.000 C 
ENDROOT
BRANCH   1   2
ATOM      2  C   UNL     1      46.092   6.814  12.391  0.00  0.00    +0.000 A 
ATOM      3  C   UNL     1      46.132   6.460  11.037  0.00  0.00    +0.000 A 
ATOM      4  C   UNL     1      45.356   5.402  10.559  0.00  0.00    +0.000 A 
ATOM      5  C   UNL     1      44.521   4.682  11.427  0.00  0.00    +0.000 A 
ATOM      6  C   UNL     1      44.476   5.046  12.778  0.00  0.00    +0.000 A 
ATOM      7  C   UNL     1      45.249   6.105  13.256  0.00  0.00    +0.000 A 
BRANCH   5   8
ATOM      8  C   UNL     1      43.674   3.537  10.922  0.00  0.00    +0.000 C 
BRANCH   8   9
ATOM      9  N   UNL     1      43.943   3.260   9.517  0.00  0.00    +0.000 NA
ATOM     10  H   UNL     1      44.480   4.029   9.117  0.00  0.00    +0.000 HD
BRANCH   9  11
ATOM     11  C   UNL     1      44.700   2.020   9.358  0.00  0.00    +0.000 C 
BRANCH  11  12
ATOM     12  C   UNL     1      45.717   2.156   8.251  0.00  0.00    +0.000 A 
ATOM     13  C   UNL     1      46.559   1.091   7.903  0.00  0.00    +0.000 A 
ATOM     14  C   UNL     1      47.491   1.235   6.873  0.00  0.00    +0.000 A 
ATOM     15  C   UNL     1      47.591   2.443   6.183  0.00  0.00    +0.000 A 
ATOM     16  C   UNL     1      46.759   3.508   6.520  0.00  0.00    +0.000 A 
ATOM     17  C   UNL     1      45.826   3.364   7.545  0.00  0.00    +0.000 A 
ENDBRANCH  11  12
ENDBRANCH   9  11
ENDBRANCH   8   9
ENDBRANCH   5   8
ENDBRANCH   1   2
BRANCH   1  20
ATOM     18  C   UNL     1      48.598   6.969  14.426  0.00  0.00    +0.000 C 
ATOM     19  O   UNL     1      49.222   6.530  13.465  0.00  0.00    +0.000 OA
ATOM     20  N   UNL     1      47.434   7.686  14.250  0.00  0.00    +0.000 N 
ATOM     21  H   UNL     1      46.958   8.043  15.071  0.00  0.00    +0.000 HD
BRANCH  18  25
ATOM     22  C   UNL     1      50.730   7.911  18.679  0.00  0.00    +0.000 C 
ATOM     23  N   UNL     1      49.958   7.199  17.690  0.00  0.00    +0.000 N 
ATOM     24  N   UNL     1      49.788   7.702  16.449  0.00  0.00    +0.000 NA
ATOM     25  C   UNL     1      49.020   6.774  15.822  0.00  0.00    +0.000 A 
ATOM     26  C   UNL     1      48.717   5.677  16.690  0.00  0.00    +0.000 A 
ATOM     27  C   UNL     1      48.035   4.466  16.716  0.00  0.00    +0.000 A 
ATOM     28 CL   UNL     1      47.205   3.856  15.372  0.00  0.00    +0.000 Cl
ATOM     29  N   UNL     1      47.996   3.695  17.818  0.00  0.00    +0.000 NA
ATOM     30  C   UNL     1      48.643   4.138  18.901  0.00  0.00    +0.000 A 
ATOM     31  N   UNL     1      49.342   5.278  19.022  0.00  0.00    +0.000 NA
ATOM     32  C   UNL     1      49.340   5.998  17.884  0.00  0.00    +0.000 A 
ENDBRANCH  18  25
ENDBRANCH   1  20
TORSDOF 7
ENDMDL
MODEL 2
REMARK VINA RESULT:    -8.080      1.946      2.571
REMARK INTER + INTRA:         -12.672
REMARK INTER:                 -11.656
REMARK INTRA:                  -1.015
REMARK UNBOUND:                -1.285
REMARK  Name = 
REMARK  8 active torsions:
REMARK  status: ('A' for Active; 'I' for Inactive)
REMARK    1  A    between atoms: C_1  and  N_2
REMARK    2  A    between atoms: C_4  and  C_5
REMARK    3  A    between atoms: N_7  and  C_8
REMARK    4  A    between atoms: C_8  and  C_9
REMARK    5  A    between atoms: C_12  and  C_13
REMARK    6  A    between atoms: C_13  and  N_14
REMARK    7  A    between atoms: N_14  and  C_15
REMARK    8  A    between atoms: C_15  and  C_16
REMARK                            x       y       z     vdW  Elec       q    Type
REMARK                         _______ _______ _______ _____ _____    ______ ____
ROOT
ATOM      1  C   UNL     1      48.125   6.512  13.763  0.00  0.00    +0.000 C 
ENDROOT
BRANCH   1   2
ATOM      2  C   UNL     1      46.923   6.096  12.967  0.00  0.00    +0.000 A 
ATOM      3  C   UNL     1      46.646   6.698  11.734  0.00  0.00    +0.000 A 
ATOM      4  C   UNL     1      45.549   6.283  10.975  0.00  0.00    +0.000 A 
ATOM      5  C   UNL     1      44.706   5.262  11.439  0.00  0.00    +0.000 A 
ATOM      6  C   UNL     1      44.981   4.671  12.678  0.00  0.00    +0.000 A 
ATOM      7  C   UNL     1      46.075   5.086  13.438  0.00  0.00    +0.000 A 
BRANCH   5   8
ATOM      8  C   UNL     1      43.515   4.807  10.630  0.00  0.00    +0.000 C 
BRANCH   8   9
ATOM      9  N   UNL     1      43.923   4.309   9.323  0.00  0.00    +0.000 NA
ATOM     10  H   UNL     1      44.683   4.885   8.962  0.00  0.00    +0.000 HD
BRANCH   9  11
ATOM     11  C   UNL     1      44.376   2.922   9.402  0.00  0.00    +0.000 C 
BRANCH  11  12
ATOM     12  C   UNL     1      45.490   2.670   8.415  0.00  0.00    +0.000 A 
ATOM     13  C   UNL     1      46.081   1.405   8.295  0.00  0.00    +0.000 A 
ATOM     14  C   UNL     1      47.108   1.190   7.373  0.00  0.00    +0.000 A 
ATOM     15  C   UNL     1      47.552   2.234   6.563  0.00  0.00    +0.000 A 
ATOM     16  C   UNL     1      46.970   3.495   6.673  0.00  0.00    +0.000 A 
ATOM     17  C   UNL     1      45.944   3.710   7.590  0.00  0.00    +0.000 A 
ENDBRANCH  11  12
ENDBRANCH   9  11
ENDBRANCH   8   9
ENDBRANCH   5   8
ENDBRANCH   1   2
BRANCH   1  20
ATOM     18  C   UNL     1      49.036   6.399  16.010  0.00  0.00    +0.000 C 
ATOM     19  O   UNL     1      50.169   6.516  15.551  0.00  0.00    +0.000 OA
ATOM     20  N   UNL     1      47.934   6.382  15.183  0.00  0.00    +0.000 N 
ATOM     21  H   UNL     1      47.015   6.298  15.605  0.00  0.00    +0.000 HD
BRANCH  18  25
ATOM     22  C   UNL     1      48.708   4.315  20.377  0.00  0.00    +0.000 C 
ATOM     23  N   UNL     1      48.618   5.340  19.365  0.00  0.00    +0.000 N 
ATOM     24  N   UNL     1      48.965   5.083  18.086  0.00  0.00    +0.000 NA
ATOM     25  C   UNL     1      48.756   6.264  17.447  0.00  0.00    +0.000 A 
ATOM     26  C   UNL     1      48.266   7.263  18.349  0.00  0.00    +0.000 A 
ATOM     27  C   UNL     1      47.864   8.593  18.384  0.00  0.00    +0.000 A 
ATOM     28 CL   UNL     1      47.851   9.580  17.009  0.00  0.00    +0.000 Cl
ATOM     29  N   UNL     1      47.454   9.182  19.522  0.00  0.00    +0.000 NA
ATOM     30  C   UNL     1      47.446   8.436  20.631  0.00  0.00    +0.000 A 
ATOM     31  N   UNL     1      47.800   7.146  20.748  0.00  0.00    +0.000 NA
ATOM     32  C   UNL     1      48.198   6.621  19.573  0.00  0.00    +0.000 A 
ENDBRANCH  18  25
ENDBRANCH   1  20
TORSDOF 7
ENDMDL
MODEL 3
REMARK VINA RESULT:    -7.980      1.517      1.868
REMARK INTER + INTRA:         -12.530
REMARK INTER:                 -11.465
REMARK INTRA:                  -1.065
REMARK UNBOUND:                -1.285
REMARK  Name = 
REMARK  8 active torsions:
REMARK  status: ('A' for Active; 'I' for Inactive)
REMARK    1  A    between atoms: C_1  and  N_2
REMARK    2  A    between atoms: C_4  and  C_5
REMARK    3  A    between atoms: N_7  and  C_8
REMARK    4  A    between atoms: C_8  and  C_9
REMARK    5  A    between atoms: C_12  and  C_13
REMARK    6  A    between atoms: C_13  and  N_14
REMARK    7  A    between atoms: N_14  and  C_15
REMARK    8  A    between atoms: C_15  and  C_16
REMARK                            x       y       z     vdW  Elec       q    Type
REMARK                         _______ _______ _______ _____ _____    ______ ____
ROOT
ATOM      1  C   UNL     1      48.269   6.538  13.605  0.00  0.00    +0.000 C 
ENDROOT
BRANCH   1   2
ATOM      2  C   UNL     1      47.080   5.993  12.870  0.00  0.00    +0.000 A 
ATOM      3  C   UNL     1      46.316   4.959  13.424  0.00  0.00    +0.000 A 
ATOM      4  C   UNL     1      45.187   4.478  12.758  0.00  0.00    +0.000 A 
ATOM      5  C   UNL     1      44.804   5.021  11.522  0.00  0.00    +0.000 A 
ATOM      6  C   UNL     1      45.577   6.048  10.966  0.00  0.00    +0.000 A 
ATOM      7  C   UNL     1      46.707   6.526  11.630  0.00  0.00    +0.000 A 
BRANCH   5   8
ATOM      8  C   UNL     1      43.587   4.508  10.789  0.00  0.00    +0.000 C 
BRANCH   8   9
ATOM      9  N   UNL     1      43.925   4.076   9.440  0.00  0.00    +0.000 NA
ATOM     10  H   UNL     1      44.633   4.698   9.052  0.00  0.00    +0.000 HD
BRANCH   9  11
ATOM     11  C   UNL     1      44.441   2.708   9.435  0.00  0.00    +0.000 C 
BRANCH  11  12
ATOM     12  C   UNL     1      45.554   2.564   8.426  0.00  0.00    +0.000 A 
ATOM     13  C   UNL     1      46.189   1.332   8.216  0.00  0.00    +0.000 A 
ATOM     14  C   UNL     1      47.214   1.217   7.274  0.00  0.00    +0.000 A 
ATOM     15  C   UNL     1      47.613   2.330   6.535  0.00  0.00    +0.000 A 
ATOM     16  C   UNL     1      46.989   3.559   6.735  0.00  0.00    +0.000 A 
ATOM     17  C   UNL     1      45.964   3.674   7.671  0.00  0.00    +0.000 A 
ENDBRANCH  11  12
ENDBRANCH   9  11
ENDBRANCH   8   9
ENDBRANCH   5   8
ENDBRANCH   1   2
BRANCH   1  20
ATOM     18  C   UNL     1      49.067   6.752  15.887  0.00  0.00    +0.000 C 
ATOM     19  O   UNL     1      50.212   6.535  15.503  0.00  0.00    +0.000 OA
ATOM     20  N   UNL     1      48.012   6.771  15.001  0.00  0.00    +0.000 N 
ATOM     21  H   UNL     1      47.084   6.968  15.360  0.00  0.00    +0.000 HD
BRANCH  18  25
ATOM     22  C   UNL     1      47.682   9.204  19.836  0.00  0.00    +0.000 C 
ATOM     23  N   UNL     1      48.108   8.089  19.025  0.00  0.00    +0.000 N 
ATOM     24  N   UNL     1      48.359   8.245  17.709  0.00  0.00    +0.000 NA
ATOM     25  C   UNL     1      48.721   7.002  17.295  0.00  0.00    +0.000 A 
ATOM     26  C   UNL     1      48.697   6.066  18.378  0.00  0.00    +0.000 A 
ATOM     27  C   UNL     1      48.934   4.727  18.663  0.00  0.00    +0.000 A 
ATOM     28 CL   UNL     1      49.448   3.620  17.491  0.00  0.00    +0.000 Cl
ATOM     29  N   UNL     1      48.772   4.224  19.901  0.00  0.00    +0.000 NA
ATOM     30  C   UNL     1      48.370   5.067  20.858  0.00  0.00    +0.000 A 
ATOM     31  N   UNL     1      48.109   6.377  20.733  0.00  0.00    +0.000 NA
ATOM     32  C   UNL     1      48.292   6.813  19.472  0.00  0.00    +0.000 A 
ENDBRANCH  18  25
ENDBRANCH   1  20
TORSDOF 7
ENDMDL
MODEL 4
REMARK VINA RESULT:    -7.456      2.037      2.814
REMARK INTER + INTRA:         -11.793
REMARK INTER:                 -10.830
REMARK INTRA:                  -0.963
REMARK UNBOUND:                -1.285
REMARK  Name = 
REMARK  8 active torsions:
REMARK  status: ('A' for Active; 'I' for Inactive)
REMARK    1  A    between atoms: C_1  and  N_2
REMARK    2  A    between atoms: C_4  and  C_5
REMARK    3  A    between atoms: N_7  and  C_8
REMARK    4  A    between atoms: C_8  and  C_9
REMARK    5  A    between atoms: C_12  and  C_13
REMARK    6  A    between atoms: C_13  and  N_14
REMARK    7  A    between atoms: N_14  and  C_15
REMARK    8  A    between atoms: C_15  and  C_16
REMARK                            x       y       z     vdW  Elec       q    Type
REMARK                         _______ _______ _______ _____ _____    ______ ____
ROOT
ATOM      1  C   UNL     1      47.228   4.386  14.844  0.00  0.00    +0.000 C 
ENDROOT
BRANCH   1   2
ATOM      2  C   UNL     1      46.323   4.456  13.650  0.00  0.00    +0.000 A 
ATOM      3  C   UNL     1      45.989   3.294  12.944  0.00  0.00    +0.000 A 
ATOM      4  C   UNL     1      45.115   3.354  11.856  0.00  0.00    +0.000 A 
ATOM      5  C   UNL     1      44.564   4.579  11.451  0.00  0.00    +0.000 A 
ATOM      6  C   UNL     1      44.910   5.741  12.153  0.00  0.00    +0.000 A 
ATOM      7  C   UNL     1      45.785   5.682  13.238  0.00  0.00    +0.000 A 
BRANCH   5   8
ATOM      8  C   UNL     1      43.620   4.659  10.274  0.00  0.00    +0.000 C 
BRANCH   8   9
ATOM      9  N   UNL     1      44.014   3.736   9.218  0.00  0.00    +0.000 NA
ATOM     10  H   UNL     1      43.219   3.566   8.603  0.00  0.00    +0.000 HD
BRANCH   9  11
ATOM     11  C   UNL     1      45.118   4.275   8.427  0.00  0.00    +0.000 C 
BRANCH  11  12
ATOM     12  C   UNL     1      45.942   3.158   7.833  0.00  0.00    +0.000 A 
ATOM     13  C   UNL     1      45.895   1.861   8.363  0.00  0.00    +0.000 A 
ATOM     14  C   UNL     1      46.661   0.840   7.797  0.00  0.00    +0.000 A 
ATOM     15  C   UNL     1      47.479   1.104   6.699  0.00  0.00    +0.000 A 
ATOM     16  C   UNL     1      47.533   2.390   6.164  0.00  0.00    +0.000 A 
ATOM     17  C   UNL     1      46.766   3.408   6.726  0.00  0.00    +0.000 A 
ENDBRANCH  11  12
ENDBRANCH   9  11
ENDBRANCH   8   9
ENDBRANCH   5   8
ENDBRANCH   1   2
BRANCH   1  20
ATOM     18  C   UNL     1      48.625   5.771  16.265  0.00  0.00    +0.000 C 
ATOM     19  O   UNL     1      49.207   4.768  16.665  0.00  0.00    +0.000 OA
ATOM     20  N   UNL     1      47.604   5.681  15.344  0.00  0.00    +0.000 N 
ATOM     21  H   UNL     1      47.160   6.537  15.030  0.00  0.00    +0.000 HD
BRANCH  18  25
ATOM     22  C   UNL     1      50.532  10.230  16.201  0.00  0.00    +0.000 C 
ATOM     23  N   UNL     1      49.791   9.091  16.685  0.00  0.00    +0.000 N 
ATOM     24  N   UNL     1      49.721   7.952  15.965  0.00  0.00    +0.000 NA
ATOM     25  C   UNL     1      48.950   7.131  16.724  0.00  0.00    +0.000 A 
ATOM     26  C   UNL     1      48.544   7.774  17.937  0.00  0.00    +0.000 A 
ATOM     27  C   UNL     1      47.805   7.549  19.093  0.00  0.00    +0.000 A 
ATOM     28 CL   UNL     1      47.032   6.078  19.411  0.00  0.00    +0.000 Cl
ATOM     29  N   UNL     1      47.662   8.494  20.040  0.00  0.00    +0.000 NA
ATOM     30  C   UNL     1      48.261   9.671  19.829  0.00  0.00    +0.000 A 
ATOM     31  N   UNL     1      49.004  10.029  18.770  0.00  0.00    +0.000 NA
ATOM     32  C   UNL     1      49.106   9.037  17.864  0.00  0.00    +0.000 A 
ENDBRANCH  18  25
ENDBRANCH   1  20
TORSDOF 7
ENDMDL
MODEL 5
REMARK VINA RESULT:    -7.435      2.869      5.302
REMARK INTER + INTRA:         -11.763
REMARK INTER:                 -11.733
REMARK INTRA:                  -0.029
REMARK UNBOUND:                -1.285
REMARK  Name = 
REMARK  8 active torsions:
REMARK  status: ('A' for Active; 'I' for Inactive)
REMARK    1  A    between atoms: C_1  and  N_2
REMARK    2  A    between atoms: C_4  and  C_5
REMARK    3  A    between atoms: N_7  and  C_8
REMARK    4  A    between atoms: C_8  and  C_9
REMARK    5  A    between atoms: C_12  and  C_13
REMARK    6  A    between atoms: C_13  and  N_14
REMARK    7  A    between atoms: N_14  and  C_15
REMARK    8  A    between atoms: C_15  and  C_16
REMARK                            x       y       z     vdW  Elec       q    Type
REMARK                         _______ _______ _______ _____ _____    ______ ____
ROOT
ATOM      1  C   UNL     1      44.225   4.560   9.797  0.00  0.00    +0.000 C 
ENDROOT
BRANCH   1   2
ATOM      2  C   UNL     1      45.002   3.586   8.962  0.00  0.00    +0.000 A 
ATOM      3  C   UNL     1      45.885   4.043   7.976  0.00  0.00    +0.000 A 
ATOM      4  C   UNL     1      46.638   3.137   7.226  0.00  0.00    +0.000 A 
ATOM      5  C   UNL     1      46.517   1.756   7.445  0.00  0.00    +0.000 A 
ATOM      6  C   UNL     1      45.625   1.303   8.425  0.00  0.00    +0.000 A 
ATOM      7  C   UNL     1      44.870   2.208   9.173  0.00  0.00    +0.000 A 
BRANCH   5   8
ATOM      8  C   UNL     1      47.323   0.766   6.638  0.00  0.00    +0.000 C 
BRANCH   8   9
ATOM      9  N   UNL     1      48.076   1.431   5.584  0.00  0.00    +0.000 NA
ATOM     10  H   UNL     1      48.758   0.782   5.193  0.00  0.00    +0.000 HD
BRANCH   9  11
ATOM     11  C   UNL     1      47.194   1.893   4.513  0.00  0.00    +0.000 C 
BRANCH  11  12
ATOM     12  C   UNL     1      46.678   0.725   3.709  0.00  0.00    +0.000 A 
ATOM     13  C   UNL     1      47.213  -0.561   3.870  0.00  0.00    +0.000 A 
ATOM     14  C   UNL     1      46.719  -1.630   3.120  0.00  0.00    +0.000 A 
ATOM     15  C   UNL     1      45.688  -1.425   2.204  0.00  0.00    +0.000 A 
ATOM     16  C   UNL     1      45.148  -0.152   2.035  0.00  0.00    +0.000 A 
ATOM     17  C   UNL     1      45.638   0.914   2.786  0.00  0.00    +0.000 A 
ENDBRANCH  11  12
ENDBRANCH   9  11
ENDBRANCH   8   9
ENDBRANCH   5   8
ENDBRANCH   1   2
BRANCH   1  20
ATOM     18  C   UNL     1      44.802   5.989  11.672  0.00  0.00    +0.000 C 
ATOM     19  O   UNL     1      43.895   5.487  12.328  0.00  0.00    +0.000 OA
ATOM     20  N   UNL     1      45.046   5.589  10.376  0.00  0.00    +0.000 N 
ATOM     21  H   UNL     1      45.815   6.021   9.874  0.00  0.00    +0.000 HD
BRANCH  18  25
ATOM     22  C   UNL     1      46.648  10.425  12.331  0.00  0.00    +0.000 C 
ATOM     23  N   UNL     1      46.491   8.998  12.477  0.00  0.00    +0.000 N 
ATOM     24  N   UNL     1      45.531   8.334  11.800  0.00  0.00    +0.000 NA
ATOM     25  C   UNL     1      45.687   7.043  12.191  0.00  0.00    +0.000 A 
ATOM     26  C   UNL     1      46.768   6.909  13.121  0.00  0.00    +0.000 A 
ATOM     27  C   UNL     1      47.443   5.956  13.874  0.00  0.00    +0.000 A 
ATOM     28 CL   UNL     1      47.040   4.312  13.841  0.00  0.00    +0.000 Cl
ATOM     29  N   UNL     1      48.470   6.283  14.679  0.00  0.00    +0.000 NA
ATOM     30  C   UNL     1      48.824   7.571  14.731  0.00  0.00    +0.000 A 
ATOM     31  N   UNL     1      48.271   8.595  14.063  0.00  0.00    +0.000 NA
ATOM     32  C   UNL     1      47.252   8.197  13.277  0.00  0.00    +0.000 A 
ENDBRANCH  18  25
ENDBRANCH   1  20
TORSDOF 7
ENDMDL
MODEL 6
REMARK VINA RESULT:    -7.181      2.578      4.151
REMARK INTER + INTRA:         -11.404
REMARK INTER:                 -10.354
REMARK INTRA:                  -1.051
REMARK UNBOUND:                -1.285
REMARK  Name = 
REMARK  8 active torsions:
REMARK  status: ('A' for Active; 'I' for Inactive)
REMARK    1  A    between atoms: C_1  and  N_2
REMARK    2  A    between atoms: C_4  and  C_5
REMARK    3  A    between atoms: N_7  and  C_8
REMARK    4  A    between atoms: C_8  and  C_9
REMARK    5  A    between atoms: C_12  and  C_13
REMARK    6  A    between atoms: C_13  and  N_14
REMARK    7  A    between atoms: N_14  and  C_15
REMARK    8  A    between atoms: C_15  and  C_16
REMARK                            x       y       z     vdW  Elec       q    Type
REMARK                         _______ _______ _______ _____ _____    ______ ____
ROOT
ATOM      1  C   UNL     1      47.491   5.413  14.716  0.00  0.00    +0.000 C 
ENDROOT
BRANCH   1   2
ATOM      2  C   UNL     1      46.469   4.930  13.730  0.00  0.00    +0.000 A 
ATOM      3  C   UNL     1      46.474   3.599  13.298  0.00  0.00    +0.000 A 
ATOM      4  C   UNL     1      45.498   3.139  12.410  0.00  0.00    +0.000 A 
ATOM      5  C   UNL     1      44.503   4.006  11.934  0.00  0.00    +0.000 A 
ATOM      6  C   UNL     1      44.507   5.339  12.361  0.00  0.00    +0.000 A 
ATOM      7  C   UNL     1      45.483   5.800  13.246  0.00  0.00    +0.000 A 
BRANCH   5   8
ATOM      8  C   UNL     1      43.444   3.523  10.971  0.00  0.00    +0.000 C 
BRANCH   8   9
ATOM      9  N   UNL     1      44.028   2.727   9.900  0.00  0.00    +0.000 NA
ATOM     10  H   UNL     1      43.311   2.126   9.495  0.00  0.00    +0.000 HD
BRANCH   9  11
ATOM     11  C   UNL     1      44.582   3.578   8.848  0.00  0.00    +0.000 C 
BRANCH  11  12
ATOM     12  C   UNL     1      45.648   2.842   8.075  0.00  0.00    +0.000 A 
ATOM     13  C   UNL     1      45.955   1.503   8.356  0.00  0.00    +0.000 A 
ATOM     14  C   UNL     1      46.943   0.837   7.627  0.00  0.00    +0.000 A 
ATOM     15  C   UNL     1      47.632   1.501   6.613  0.00  0.00    +0.000 A 
ATOM     16  C   UNL     1      47.335   2.831   6.324  0.00  0.00    +0.000 A 
ATOM     17  C   UNL     1      46.347   3.495   7.049  0.00  0.00    +0.000 A 
ENDBRANCH  11  12
ENDBRANCH   9  11
ENDBRANCH   8   9
ENDBRANCH   5   8
ENDBRANCH   1   2
BRANCH   1  20
ATOM     18  C   UNL     1      49.027   7.282  14.912  0.00  0.00    +0.000 C 
ATOM     19  O   UNL     1      49.906   6.514  15.290  0.00  0.00    +0.000 OA
ATOM     20  N   UNL     1      47.767   6.820  14.600  0.00  0.00    +0.000 N 
ATOM     21  H   UNL     1      47.074   7.487  14.277  0.00  0.00    +0.000 HD
BRANCH  18  25
ATOM     22  C   UNL     1      49.804  11.894  16.195  0.00  0.00    +0.000 C 
ATOM     23  N   UNL     1      49.573  10.757  15.338  0.00  0.00    +0.000 N 
ATOM     24  N   UNL     1      49.413   9.521  15.854  0.00  0.00    +0.000 NA
ATOM     25  C   UNL     1      49.228   8.732  14.763  0.00  0.00    +0.000 A 
ATOM     26  C   UNL     1      49.269   9.498  13.554  0.00  0.00    +0.000 A 
ATOM     27  C   UNL     1      49.163   9.361  12.175  0.00  0.00    +0.000 A 
ATOM     28 CL   UNL     1      48.873   7.872  11.425  0.00  0.00    +0.000 Cl
ATOM     29  N   UNL     1      49.280  10.413  11.345  0.00  0.00    +0.000 NA
ATOM     30  C   UNL     1      49.505  11.610  11.898  0.00  0.00    +0.000 A 
ATOM     31  N   UNL     1      49.627  11.894  13.204  0.00  0.00    +0.000 NA
ATOM     32  C   UNL     1      49.498  10.797  13.976  0.00  0.00    +0.000 A 
ENDBRANCH  18  25
ENDBRANCH   1  20
TORSDOF 7
ENDMDL
MODEL 7
REMARK VINA RESULT:    -7.031      1.713      2.356
REMARK INTER + INTRA:         -11.193
REMARK INTER:                  -9.727
REMARK INTRA:                  -1.467
REMARK UNBOUND:                -1.285
REMARK  Name = 
REMARK  8 active torsions:
REMARK  status: ('A' for Active; 'I' for Inactive)
REMARK    1  A    between atoms: C_1  and  N_2
REMARK    2  A    between atoms: C_4  and  C_5
REMARK    3  A    between atoms: N_7  and  C_8
REMARK    4  A    between atoms: C_8  and  C_9
REMARK    5  A    between atoms: C_12  and  C_13
REMARK    6  A    between atoms: C_13  and  N_14
REMARK    7  A    between atoms: N_14  and  C_15
REMARK    8  A    between atoms: C_15  and  C_16
REMARK                            x       y       z     vdW  Elec       q    Type
REMARK                         _______ _______ _______ _____ _____    ______ ____
ROOT
ATOM      1  C   UNL     1      48.420   7.330  12.959  0.00  0.00    +0.000 C 
ENDROOT
BRANCH   1   2
ATOM      2  C   UNL     1      47.124   6.575  12.945  0.00  0.00    +0.000 A 
ATOM      3  C   UNL     1      47.092   5.215  13.274  0.00  0.00    +0.000 A 
ATOM      4  C   UNL     1      45.880   4.522  13.300  0.00  0.00    +0.000 A 
ATOM      5  C   UNL     1      44.678   5.176  12.991  0.00  0.00    +0.000 A 
ATOM      6  C   UNL     1      44.716   6.534  12.652  0.00  0.00    +0.000 A 
ATOM      7  C   UNL     1      45.927   7.227  12.624  0.00  0.00    +0.000 A 
BRANCH   5   8
ATOM      8  C   UNL     1      43.361   4.437  13.012  0.00  0.00    +0.000 C 
BRANCH   8   9
ATOM      9  N   UNL     1      42.925   4.096  11.664  0.00  0.00    +0.000 NA
ATOM     10  H   UNL     1      43.196   4.839  11.022  0.00  0.00    +0.000 HD
BRANCH   9  11
ATOM     11  C   UNL     1      43.523   2.840  11.216  0.00  0.00    +0.000 C 
BRANCH  11  12
ATOM     12  C   UNL     1      44.422   3.074  10.026  0.00  0.00    +0.000 A 
ATOM     13  C   UNL     1      44.788   4.369   9.637  0.00  0.00    +0.000 A 
ATOM     14  C   UNL     1      45.624   4.566   8.535  0.00  0.00    +0.000 A 
ATOM     15  C   UNL     1      46.100   3.472   7.814  0.00  0.00    +0.000 A 
ATOM     16  C   UNL     1      45.743   2.179   8.192  0.00  0.00    +0.000 A 
ATOM     17  C   UNL     1      44.913   1.982   9.294  0.00  0.00    +0.000 A 
ENDBRANCH  11  12
ENDBRANCH   9  11
ENDBRANCH   8   9
ENDBRANCH   5   8
ENDBRANCH   1   2
BRANCH   1  20
ATOM     18  C   UNL     1      49.608   7.672  15.048  0.00  0.00    +0.000 C 
ATOM     19  O   UNL     1      49.088   8.778  15.158  0.00  0.00    +0.000 OA
ATOM     20  N   UNL     1      49.336   6.864  13.966  0.00  0.00    +0.000 N 
ATOM     21  H   UNL     1      49.776   5.951  13.921  0.00  0.00    +0.000 HD
BRANCH  18  25
ATOM     22  C   UNL     1      53.693   7.180  17.614  0.00  0.00    +0.000 C 
ATOM     23  N   UNL     1      52.350   6.914  17.159  0.00  0.00    +0.000 N 
ATOM     24  N   UNL     1      51.792   7.653  16.178  0.00  0.00    +0.000 NA
ATOM     25  C   UNL     1      50.550   7.120  16.033  0.00  0.00    +0.000 A 
ATOM     26  C   UNL     1      50.344   6.029  16.938  0.00  0.00    +0.000 A 
ATOM     27  C   UNL     1      49.389   5.091  17.311  0.00  0.00    +0.000 A 
ATOM     28 CL   UNL     1      47.864   5.000  16.581  0.00  0.00    +0.000 Cl
ATOM     29  N   UNL     1      49.620   4.188  18.281  0.00  0.00    +0.000 NA
ATOM     30  C   UNL     1      50.815   4.223  18.880  0.00  0.00    +0.000 A 
ATOM     31  N   UNL     1      51.830   5.062  18.625  0.00  0.00    +0.000 NA
ATOM     32  C   UNL     1      51.531   5.937  17.645  0.00  0.00    +0.000 A 
ENDBRANCH  18  25
ENDBRANCH   1  20
TORSDOF 7
ENDMDL
MODEL 8
REMARK VINA RESULT:    -6.874      2.099      3.273
REMARK INTER + INTRA:         -10.972
REMARK INTER:                 -10.056
REMARK INTRA:                  -0.916
REMARK UNBOUND:                -1.285
REMARK  Name = 
REMARK  8 active torsions:
REMARK  status: ('A' for Active; 'I' for Inactive)
REMARK    1  A    between atoms: C_1  and  N_2
REMARK    2  A    between atoms: C_4  and  C_5
REMARK    3  A    between atoms: N_7  and  C_8
REMARK    4  A    between atoms: C_8  and  C_9
REMARK    5  A    between atoms: C_12  and  C_13
REMARK    6  A    between atoms: C_13  and  N_14
REMARK    7  A    between atoms: N_14  and  C_15
REMARK    8  A    between atoms: C_15  and  C_16
REMARK                            x       y       z     vdW  Elec       q    Type
REMARK                         _______ _______ _______ _____ _____    ______ ____
ROOT
ATOM      1  C   UNL     1      47.468   4.142  15.384  0.00  0.00    +0.000 C 
ENDROOT
BRANCH   1   2
ATOM      2  C   UNL     1      46.736   4.346  14.092  0.00  0.00    +0.000 A 
ATOM      3  C   UNL     1      46.187   3.255  13.407  0.00  0.00    +0.000 A 
ATOM      4  C   UNL     1      45.471   3.449  12.224  0.00  0.00    +0.000 A 
ATOM      5  C   UNL     1      45.296   4.739  11.701  0.00  0.00    +0.000 A 
ATOM      6  C   UNL     1      45.856   5.826  12.382  0.00  0.00    +0.000 A 
ATOM      7  C   UNL     1      46.573   5.633  13.563  0.00  0.00    +0.000 A 
BRANCH   5   8
ATOM      8  C   UNL     1      44.527   4.963  10.420  0.00  0.00    +0.000 C 
BRANCH   8   9
ATOM      9  N   UNL     1      44.470   3.748   9.618  0.00  0.00    +0.000 NA
ATOM     10  H   UNL     1      43.544   3.331   9.700  0.00  0.00    +0.000 HD
BRANCH   9  11
ATOM     11  C   UNL     1      44.740   4.029   8.209  0.00  0.00    +0.000 C 
BRANCH  11  12
ATOM     12  C   UNL     1      45.742   3.046   7.654  0.00  0.00    +0.000 A 
ATOM     13  C   UNL     1      45.950   1.800   8.260  0.00  0.00    +0.000 A 
ATOM     14  C   UNL     1      46.878   0.902   7.729  0.00  0.00    +0.000 A 
ATOM     15  C   UNL     1      47.606   1.241   6.589  0.00  0.00    +0.000 A 
ATOM     16  C   UNL     1      47.408   2.476   5.977  0.00  0.00    +0.000 A 
ATOM     17  C   UNL     1      46.479   3.371   6.504  0.00  0.00    +0.000 A 
ENDBRANCH  11  12
ENDBRANCH   9  11
ENDBRANCH   8   9
ENDBRANCH   5   8
ENDBRANCH   1   2
BRANCH   1  20
ATOM     18  C   UNL     1      48.815   5.640  16.739  0.00  0.00    +0.000 C 
ATOM     19  O   UNL     1      49.773   4.883  16.615  0.00  0.00    +0.000 OA
ATOM     20  N   UNL     1      47.601   5.349  16.155  0.00  0.00    +0.000 N 
ATOM     21  H   UNL     1      46.839   6.009  16.271  0.00  0.00    +0.000 HD
BRANCH  18  25
ATOM     22  C   UNL     1      48.023   8.756  20.369  0.00  0.00    +0.000 C 
ATOM     23  N   UNL     1      48.517   8.256  19.109  0.00  0.00    +0.000 N 
ATOM     24  N   UNL     1      48.243   6.998  18.708  0.00  0.00    +0.000 NA
ATOM     25  C   UNL     1      48.868   6.894  17.506  0.00  0.00    +0.000 A 
ATOM     26  C   UNL     1      49.534   8.113  17.159  0.00  0.00    +0.000 A 
ATOM     27  C   UNL     1      50.309   8.682  16.155  0.00  0.00    +0.000 A 
ATOM     28 CL   UNL     1      50.738   7.845  14.748  0.00  0.00    +0.000 Cl
ATOM     29  N   UNL     1      50.765   9.945  16.239  0.00  0.00    +0.000 NA
ATOM     30  C   UNL     1      50.444  10.643  17.333  0.00  0.00    +0.000 A 
ATOM     31  N   UNL     1      49.706  10.230  18.376  0.00  0.00    +0.000 NA
ATOM     32  C   UNL     1      49.283   8.960  18.225  0.00  0.00    +0.000 A 
ENDBRANCH  18  25
ENDBRANCH   1  20
TORSDOF 7
ENDMDL
MODEL 9
REMARK VINA RESULT:    -6.660      2.651      3.602
REMARK INTER + INTRA:         -10.670
REMARK INTER:                  -9.525
REMARK INTRA:                  -1.145
REMARK UNBOUND:                -1.285
REMARK  Name = 
REMARK  8 active torsions:
REMARK  status: ('A' for Active; 'I' for Inactive)
REMARK    1  A    between atoms: C_1  and  N_2
REMARK    2  A    between atoms: C_4  and  C_5
REMARK    3  A    between atoms: N_7  and  C_8
REMARK    4  A    between atoms: C_8  and  C_9
REMARK    5  A    between atoms: C_12  and  C_13
REMARK    6  A    between atoms: C_13  and  N_14
REMARK    7  A    between atoms: N_14  and  C_15
REMARK    8  A    between atoms: C_15  and  C_16
REMARK                            x       y       z     vdW  Elec       q    Type
REMARK                         _______ _______ _______ _____ _____    ______ ____
ROOT
ATOM      1  C   UNL     1      48.399   7.631  12.489  0.00  0.00    +0.000 C 
ENDROOT
BRANCH   1   2
ATOM      2  C   UNL     1      47.075   6.927  12.522  0.00  0.00    +0.000 A 
ATOM      3  C   UNL     1      46.955   5.669  13.123  0.00  0.00    +0.000 A 
ATOM      4  C   UNL     1      45.714   5.032  13.188  0.00  0.00    +0.000 A 
ATOM      5  C   UNL     1      44.571   5.640  12.647  0.00  0.00    +0.000 A 
ATOM      6  C   UNL     1      44.698   6.894  12.037  0.00  0.00    +0.000 A 
ATOM      7  C   UNL     1      45.938   7.530  11.969  0.00  0.00    +0.000 A 
BRANCH   5   8
ATOM      8  C   UNL     1      43.223   4.960  12.708  0.00  0.00    +0.000 C 
BRANCH   8   9
ATOM      9  N   UNL     1      42.870   4.371  11.424  0.00  0.00    +0.000 NA
ATOM     10  H   UNL     1      43.137   5.008  10.674  0.00  0.00    +0.000 HD
BRANCH   9  11
ATOM     11  C   UNL     1      43.548   3.092  11.223  0.00  0.00    +0.000 C 
BRANCH  11  12
ATOM     12  C   UNL     1      44.431   3.145  10.000  0.00  0.00    +0.000 A 
ATOM     13  C   UNL     1      44.755   1.982   9.287  0.00  0.00    +0.000 A 
ATOM     14  C   UNL     1      45.570   2.052   8.155  0.00  0.00    +0.000 A 
ATOM     15  C   UNL     1      46.069   3.281   7.727  0.00  0.00    +0.000 A 
ATOM     16  C   UNL     1      45.754   4.443   8.427  0.00  0.00    +0.000 A 
ATOM     17  C   UNL     1      44.937   4.375   9.554  0.00  0.00    +0.000 A 
ENDBRANCH  11  12
ENDBRANCH   9  11
ENDBRANCH   8   9
ENDBRANCH   5   8
ENDBRANCH   1   2
BRANCH   1  20
ATOM     18  C   UNL     1      49.655   7.789  14.560  0.00  0.00    +0.000 C 
ATOM     19  O   UNL     1      49.128   8.873  14.791  0.00  0.00    +0.000 OA
ATOM     20  N   UNL     1      49.353   7.083  13.416  0.00  0.00    +0.000 N 
ATOM     21  H   UNL     1      49.801   6.184  13.271  0.00  0.00    +0.000 HD
BRANCH  18  25
ATOM     22  C   UNL     1      51.447   4.719  17.859  0.00  0.00    +0.000 C 
ATOM     23  N   UNL     1      51.416   5.801  16.906  0.00  0.00    +0.000 N 
ATOM     24  N   UNL     1      50.278   6.117  16.252  0.00  0.00    +0.000 NA
ATOM     25  C   UNL     1      50.636   7.159  15.457  0.00  0.00    +0.000 A 
ATOM     26  C   UNL     1      52.017   7.494  15.630  0.00  0.00    +0.000 A 
ATOM     27  C   UNL     1      52.985   8.384  15.179  0.00  0.00    +0.000 A 
ATOM     28 CL   UNL     1      52.657   9.589  14.036  0.00  0.00    +0.000 Cl
ATOM     29  N   UNL     1      54.252   8.344  15.630  0.00  0.00    +0.000 NA
ATOM     30  C   UNL     1      54.552   7.410  16.537  0.00  0.00    +0.000 A 
ATOM     31  N   UNL     1      53.727   6.492  17.065  0.00  0.00    +0.000 NA
ATOM     32  C   UNL     1      52.478   6.589  16.571  0.00  0.00    +0.000 A 
ENDBRANCH  18  25
ENDBRANCH   1  20
TORSDOF 7
ENDMDL
