MODEL 1
REMARK VINA RESULT:    -8.042      0.000      0.000
REMARK INTER + INTRA:          -9.392
REMARK INTER:                  -8.982
REMARK INTRA:                  -0.410
REMARK UNBOUND:                -0.410
REMARK  Name = 
REMARK  3 active torsions:
REMARK  status: ('A' for Active; 'I' for Inactive)
REMARK    1  A    between atoms: C_1  and  C_2
REMARK    2  A    between atoms: N_6  and  C_7
REMARK    3  A    between atoms: C_7  and  C_8
REMARK                            x       y       z     vdW  Elec       q    Type
REMARK                         _______ _______ _______ _____ _____    ______ ____
ROOT
ATOM      1  C   UNL     1      45.046   4.628  11.827  0.00  0.00    +0.000 A 
ATOM      2  C   UNL     1      45.469   3.519  12.556  0.00  0.00    +0.000 A 
ATOM      3  C   UNL     1      46.587   3.654  13.364  0.00  0.00    +0.000 A 
ATOM      4  N   UNL     1      47.287   4.803  13.508  0.00  0.00    +0.000 NA
ATOM      5  C   UNL     1      46.879   5.883  12.812  0.00  0.00    +0.000 A 
ATOM      6  N   UNL     1      47.495   7.103  13.011  0.00  0.00    +0.000 N 
ATOM      7  C   UNL     1      48.253   7.318  14.245  0.00  0.00    +0.000 C 
ATOM      8  C   UNL     1      48.202   8.835  14.564  0.00  0.00    +0.000 C 
ATOM      9  N   UNL     1      48.700   9.698  13.464  0.00  0.00    +0.000 NA
ATOM     10  C   UNL     1      47.982   9.360  12.213  0.00  0.00    +0.000 C 
ATOM     11  C   UNL     1      48.009   7.852  11.863  0.00  0.00    +0.000 C 
ATOM     12  C   UNL     1      45.768   5.817  11.969  0.00  0.00    +0.000 A 
ATOM     13  H   UNL     1      49.687   9.481  13.326  0.00  0.00    +0.000 HD
ENDROOT
BRANCH   1  14
ATOM     14  C   UNL     1      43.830   4.570  10.937  0.00  0.00    +0.000 C 
BRANCH  14  20
ATOM     15  C   UNL     1      47.581   1.419   6.563  0.00  0.00    +0.000 C 
ATOM     16  C   UNL     1      46.711   2.270   7.433  0.00  0.00    +0.000 A 
ATOM     17  C   UNL     1      45.835   1.718   8.358  0.00  0.00    +0.000 A 
ATOM     18  C   UNL     1      45.001   2.554   9.103  0.00  0.00    +0.000 A 
ATOM     19  C   UNL     1      45.061   3.932   8.924  0.00  0.00    +0.000 A 
ATOM     20  N   UNL     1      44.205   4.820   9.559  0.00  0.00    +0.000 N 
ATOM     21  N   UNL     1      45.922   4.483   8.046  0.00  0.00    +0.000 NA
ATOM     22  C   UNL     1      46.715   3.654   7.321  0.00  0.00    +0.000 A 
ATOM     23  H   UNL     1      44.544   5.758   9.361  0.00  0.00    +0.000 HD
ENDBRANCH  14  20
ENDBRANCH   1  14
TORSDOF 2
ENDMDL
MODEL 2
REMARK VINA RESULT:    -7.939      1.726      2.280
REMARK INTER + INTRA:          -9.278
REMARK INTER:                  -8.846
REMARK INTRA:                  -0.431
REMARK UNBOUND:                -0.410
REMARK  Name = 
REMARK  3 active torsions:
REMARK  status: ('A' for Active; 'I' for Inactive)
REMARK    1  A    between atoms: C_1  and  C_2
REMARK    2  A    between atoms: N_6  and  C_7
REMARK    3  A    between atoms: C_7  and  C_8
REMARK                            x       y       z     vdW  Elec       q    Type
REMARK                         _______ _______ _______ _____ _____    ______ ____
ROOT
ATOM      1  C   UNL     1      44.022   4.186  11.082  0.00  0.00    +0.000 A 
ATOM      2  C   UNL     1      43.024   4.223  12.053  0.00  0.00    +0.000 A 
ATOM      3  C   UNL     1      43.152   5.131  13.090  0.00  0.00    +0.000 A 
ATOM      4  N   UNL     1      44.179   6.004  13.215  0.00  0.00    +0.000 NA
ATOM      5  C   UNL     1      45.146   5.980  12.275  0.00  0.00    +0.000 A 
ATOM      6  N   UNL     1      46.154   6.925  12.301  0.00  0.00    +0.000 N 
ATOM      7  C   UNL     1      45.938   8.166  13.044  0.00  0.00    +0.000 C 
ATOM      8  C   UNL     1      46.791   9.269  12.364  0.00  0.00    +0.000 C 
ATOM      9  N   UNL     1      48.236   8.939  12.267  0.00  0.00    +0.000 NA
ATOM     10  C   UNL     1      48.392   7.618  11.612  0.00  0.00    +0.000 C 
ATOM     11  C   UNL     1      47.552   6.492  12.262  0.00  0.00    +0.000 C 
ATOM     12  C   UNL     1      45.088   5.083  11.208  0.00  0.00    +0.000 A 
ATOM     13  H   UNL     1      48.597   8.860  13.217  0.00  0.00    +0.000 HD
ENDROOT
BRANCH   1  14
ATOM     14  C   UNL     1      43.950   3.238   9.912  0.00  0.00    +0.000 C 
BRANCH  14  20
ATOM     15  C   UNL     1      47.924   1.762   4.896  0.00  0.00    +0.000 C 
ATOM     16  C   UNL     1      47.128   1.991   6.142  0.00  0.00    +0.000 A 
ATOM     17  C   UNL     1      46.460   3.186   6.377  0.00  0.00    +0.000 A 
ATOM     18  C   UNL     1      45.781   3.371   7.582  0.00  0.00    +0.000 A 
ATOM     19  C   UNL     1      45.766   2.356   8.533  0.00  0.00    +0.000 A 
ATOM     20  N   UNL     1      45.191   2.498   9.788  0.00  0.00    +0.000 N 
ATOM     21  N   UNL     1      46.390   1.183   8.310  0.00  0.00    +0.000 NA
ATOM     22  C   UNL     1      47.057   1.027   7.138  0.00  0.00    +0.000 A 
ATOM     23  H   UNL     1      45.199   1.581  10.227  0.00  0.00    +0.000 HD
ENDBRANCH  14  20
ENDBRANCH   1  14
TORSDOF 2
ENDMDL
MODEL 3
REMARK VINA RESULT:    -7.426      1.661      6.451
REMARK INTER + INTRA:          -8.704
REMARK INTER:                  -8.247
REMARK INTRA:                  -0.457
REMARK UNBOUND:                -0.410
REMARK  Name = 
REMARK  3 active torsions:
REMARK  status: ('A' for Active; 'I' for Inactive)
REMARK    1  A    between atoms: C_1  and  C_2
REMARK    2  A    between atoms: N_6  and  C_7
REMARK    3  A    between atoms: C_7  and  C_8
REMARK                            x       y       z     vdW  Elec       q    Type
REMARK                         _______ _______ _______ _____ _____    ______ ____
ROOT
ATOM      1  C   UNL     1      44.383   4.910  12.213  0.00  0.00    +0.000 A 
ATOM      2  C   UNL     1      43.518   3.988  12.799  0.00  0.00    +0.000 A 
ATOM      3  C   UNL     1      43.230   2.825  12.103  0.00  0.00    +0.000 A 
ATOM      4  N   UNL     1      43.751   2.514  10.894  0.00  0.00    +0.000 NA
ATOM      5  C   UNL     1      44.594   3.398  10.322  0.00  0.00    +0.000 A 
ATOM      6  N   UNL     1      45.234   3.074   9.141  0.00  0.00    +0.000 N 
ATOM      7  C   UNL     1      45.342   1.665   8.761  0.00  0.00    +0.000 C 
ATOM      8  C   UNL     1      46.625   1.512   7.903  0.00  0.00    +0.000 C 
ATOM      9  N   UNL     1      46.663   2.400   6.714  0.00  0.00    +0.000 NA
ATOM     10  C   UNL     1      46.432   3.800   7.141  0.00  0.00    +0.000 C 
ATOM     11  C   UNL     1      45.161   3.991   8.003  0.00  0.00    +0.000 C 
ATOM     12  C   UNL     1      44.920   4.595  10.961  0.00  0.00    +0.000 A 
ATOM     13  H   UNL     1      45.892   2.129   6.104  0.00  0.00    +0.000 HD
ENDROOT
BRANCH   1  14
ATOM     14  C   UNL     1      44.760   6.192  12.911  0.00  0.00    +0.000 C 
BRANCH  14  20
ATOM     15  C   UNL     1      50.565   8.963  11.590  0.00  0.00    +0.000 C 
ATOM     16  C   UNL     1      49.334   8.228  12.015  0.00  0.00    +0.000 A 
ATOM     17  C   UNL     1      48.080   8.826  11.996  0.00  0.00    +0.000 A 
ATOM     18  C   UNL     1      46.970   8.117  12.459  0.00  0.00    +0.000 A 
ATOM     19  C   UNL     1      47.123   6.815  12.924  0.00  0.00    +0.000 A 
ATOM     20  N   UNL     1      46.088   6.080  13.483  0.00  0.00    +0.000 N 
ATOM     21  N   UNL     1      48.329   6.214  12.927  0.00  0.00    +0.000 NA
ATOM     22  C   UNL     1      49.398   6.924  12.486  0.00  0.00    +0.000 A 
ATOM     23  H   UNL     1      46.429   5.131  13.613  0.00  0.00    +0.000 HD
ENDBRANCH  14  20
ENDBRANCH   1  14
TORSDOF 2
ENDMDL
MODEL 4
REMARK VINA RESULT:    -6.804      2.601      3.840
REMARK INTER + INTRA:          -8.010
REMARK INTER:                  -7.681
REMARK INTRA:                  -0.328
REMARK UNBOUND:                -0.410
REMARK  Name = 
REMARK  3 active torsions:
REMARK  status: ('A' for Active; 'I' for Inactive)
REMARK    1  A    between atoms: C_1  and  C_2
REMARK    2  A    between atoms: N_6  and  C_7
REMARK    3  A    between atoms: C_7  and  C_8
REMARK                            x       y       z     vdW  Elec       q    Type
REMARK                         _______ _______ _______ _____ _____    ______ ____
ROOT
ATOM      1  C   UNL     1      46.147   4.833  13.041  0.00  0.00    +0.000 A 
ATOM      2  C   UNL     1      46.732   6.008  12.574  0.00  0.00    +0.000 A 
ATOM      3  C   UNL     1      47.669   6.637  13.377  0.00  0.00    +0.000 A 
ATOM      4  N   UNL     1      48.072   6.174  14.583  0.00  0.00    +0.000 NA
ATOM      5  C   UNL     1      47.516   5.033  15.039  0.00  0.00    +0.000 A 
ATOM      6  N   UNL     1      47.975   4.465  16.212  0.00  0.00    +0.000 N 
ATOM      7  C   UNL     1      49.303   4.836  16.703  0.00  0.00    +0.000 C 
ATOM      8  C   UNL     1      49.852   3.631  17.511  0.00  0.00    +0.000 C 
ATOM      9  N   UNL     1      48.966   3.194  18.619  0.00  0.00    +0.000 NA
ATOM     10  C   UNL     1      47.605   2.944  18.087  0.00  0.00    +0.000 C 
ATOM     11  C   UNL     1      47.024   4.125  17.273  0.00  0.00    +0.000 C 
ATOM     12  C   UNL     1      46.556   4.352  14.289  0.00  0.00    +0.000 A 
ATOM     13  H   UNL     1      48.905   3.964  19.284  0.00  0.00    +0.000 HD
ENDROOT
BRANCH   1  14
ATOM     14  C   UNL     1      45.131   4.078  12.223  0.00  0.00    +0.000 C 
BRANCH  14  20
ATOM     15  C   UNL     1      46.618   2.597   6.000  0.00  0.00    +0.000 C 
ATOM     16  C   UNL     1      46.220   3.097   7.352  0.00  0.00    +0.000 A 
ATOM     17  C   UNL     1      45.771   2.240   8.348  0.00  0.00    +0.000 A 
ATOM     18  C   UNL     1      45.354   2.764   9.574  0.00  0.00    +0.000 A 
ATOM     19  C   UNL     1      45.403   4.136   9.794  0.00  0.00    +0.000 A 
ATOM     20  N   UNL     1      44.923   4.739  10.948  0.00  0.00    +0.000 N 
ATOM     21  N   UNL     1      45.857   4.978   8.846  0.00  0.00    +0.000 NA
ATOM     22  C   UNL     1      46.245   4.452   7.656  0.00  0.00    +0.000 A 
ATOM     23  H   UNL     1      45.198   5.717  10.913  0.00  0.00    +0.000 HD
ENDBRANCH  14  20
ENDBRANCH   1  14
TORSDOF 2
ENDMDL
MODEL 5
REMARK VINA RESULT:    -6.699      3.256      7.380
REMARK INTER + INTRA:          -7.893
REMARK INTER:                  -7.483
REMARK INTRA:                  -0.409
REMARK UNBOUND:                -0.410
REMARK  Name = 
REMARK  3 active torsions:
REMARK  status: ('A' for Active; 'I' for Inactive)
REMARK    1  A    between atoms: C_1  and  C_2
REMARK    2  A    between atoms: N_6  and  C_7
REMARK    3  A    between atoms: C_7  and  C_8
REMARK                            x       y       z     vdW  Elec       q    Type
REMARK                         _______ _______ _______ _____ _____    ______ ____
ROOT
ATOM      1  C   UNL     1      47.905   6.505  14.185  0.00  0.00    +0.000 A 
ATOM      2  C   UNL     1      48.508   7.348  13.254  0.00  0.00    +0.000 A 
ATOM      3  C   UNL     1      48.030   7.338  11.954  0.00  0.00    +0.000 A 
ATOM      4  N   UNL     1      46.996   6.575  11.530  0.00  0.00    +0.000 NA
ATOM      5  C   UNL     1      46.402   5.761  12.426  0.00  0.00    +0.000 A 
ATOM      6  N   UNL     1      45.276   5.047  12.066  0.00  0.00    +0.000 N 
ATOM      7  C   UNL     1      44.498   5.492  10.909  0.00  0.00    +0.000 C 
ATOM      8  C   UNL     1      43.028   5.056  11.142  0.00  0.00    +0.000 C 
ATOM      9  N   UNL     1      42.862   3.600  11.380  0.00  0.00    +0.000 NA
ATOM     10  C   UNL     1      43.758   3.180  12.483  0.00  0.00    +0.000 C 
ATOM     11  C   UNL     1      45.235   3.600  12.287  0.00  0.00    +0.000 C 
ATOM     12  C   UNL     1      46.839   5.711  13.751  0.00  0.00    +0.000 A 
ATOM     13  H   UNL     1      43.161   3.114  10.534  0.00  0.00    +0.000 HD
ENDROOT
BRANCH   1  14
ATOM     14  C   UNL     1      48.355   6.468  15.623  0.00  0.00    +0.000 C 
BRANCH  14  20
ATOM     15  C   UNL     1      51.592   1.188  17.810  0.00  0.00    +0.000 C 
ATOM     16  C   UNL     1      50.700   2.297  17.350  0.00  0.00    +0.000 A 
ATOM     17  C   UNL     1      51.069   3.632  17.465  0.00  0.00    +0.000 A 
ATOM     18  C   UNL     1      50.175   4.631  17.076  0.00  0.00    +0.000 A 
ATOM     19  C   UNL     1      48.928   4.286  16.565  0.00  0.00    +0.000 A 
ATOM     20  N   UNL     1      47.953   5.219  16.242  0.00  0.00    +0.000 N 
ATOM     21  N   UNL     1      48.565   2.996  16.426  0.00  0.00    +0.000 NA
ATOM     22  C   UNL     1      49.442   2.039  16.823  0.00  0.00    +0.000 A 
ATOM     23  H   UNL     1      47.203   4.719  15.772  0.00  0.00    +0.000 HD
ENDBRANCH  14  20
ENDBRANCH   1  14
TORSDOF 2
ENDMDL
MODEL 6
REMARK VINA RESULT:    -6.689      1.715      6.799
REMARK INTER + INTRA:          -7.882
REMARK INTER:                  -7.723
REMARK INTRA:                  -0.158
REMARK UNBOUND:                -0.410
REMARK  Name = 
REMARK  3 active torsions:
REMARK  status: ('A' for Active; 'I' for Inactive)
REMARK    1  A    between atoms: C_1  and  C_2
REMARK    2  A    between atoms: N_6  and  C_7
REMARK    3  A    between atoms: C_7  and  C_8
REMARK                            x       y       z     vdW  Elec       q    Type
REMARK                         _______ _______ _______ _____ _____    ______ ____
ROOT
ATOM      1  C   UNL     1      44.574   5.205  11.069  0.00  0.00    +0.000 A 
ATOM      2  C   UNL     1      43.634   4.435  11.752  0.00  0.00    +0.000 A 
ATOM      3  C   UNL     1      43.356   3.165  11.274  0.00  0.00    +0.000 A 
ATOM      4  N   UNL     1      43.954   2.611  10.194  0.00  0.00    +0.000 NA
ATOM      5  C   UNL     1      44.871   3.346   9.532  0.00  0.00    +0.000 A 
ATOM      6  N   UNL     1      45.585   2.782   8.493  0.00  0.00    +0.000 N 
ATOM      7  C   UNL     1      45.668   1.324   8.403  0.00  0.00    +0.000 C 
ATOM      8  C   UNL     1      47.005   0.978   7.698  0.00  0.00    +0.000 C 
ATOM      9  N   UNL     1      47.166   1.613   6.366  0.00  0.00    +0.000 NA
ATOM     10  C   UNL     1      46.956   3.075   6.493  0.00  0.00    +0.000 C 
ATOM     11  C   UNL     1      45.632   3.459   7.195  0.00  0.00    +0.000 C 
ATOM     12  C   UNL     1      45.192   4.638   9.950  0.00  0.00    +0.000 A 
ATOM     13  H   UNL     1      46.434   1.245   5.760  0.00  0.00    +0.000 HD
ENDROOT
BRANCH   1  14
ATOM     14  C   UNL     1      44.945   6.590  11.533  0.00  0.00    +0.000 C 
BRANCH  14  20
ATOM     15  C   UNL     1      48.753   5.111  16.675  0.00  0.00    +0.000 C 
ATOM     16  C   UNL     1      48.039   5.515  15.425  0.00  0.00    +0.000 A 
ATOM     17  C   UNL     1      46.941   4.811  14.946  0.00  0.00    +0.000 A 
ATOM     18  C   UNL     1      46.347   5.194  13.742  0.00  0.00    +0.000 A 
ATOM     19  C   UNL     1      46.848   6.283  13.037  0.00  0.00    +0.000 A 
ATOM     20  N   UNL     1      46.370   6.668  11.792  0.00  0.00    +0.000 N 
ATOM     21  N   UNL     1      47.897   6.990  13.500  0.00  0.00    +0.000 NA
ATOM     22  C   UNL     1      48.470   6.594  14.665  0.00  0.00    +0.000 A 
ATOM     23  H   UNL     1      46.808   7.557  11.564  0.00  0.00    +0.000 HD
ENDBRANCH  14  20
ENDBRANCH   1  14
TORSDOF 2
ENDMDL
MODEL 7
REMARK VINA RESULT:    -6.342      3.456      8.287
REMARK INTER + INTRA:          -7.494
REMARK INTER:                  -7.196
REMARK INTRA:                  -0.297
REMARK UNBOUND:                -0.410
REMARK  Name = 
REMARK  3 active torsions:
REMARK  status: ('A' for Active; 'I' for Inactive)
REMARK    1  A    between atoms: C_1  and  C_2
REMARK    2  A    between atoms: N_6  and  C_7
REMARK    3  A    between atoms: C_7  and  C_8
REMARK                            x       y       z     vdW  Elec       q    Type
REMARK                         _______ _______ _______ _____ _____    ______ ____
ROOT
ATOM      1  C   UNL     1      48.025   6.576  13.868  0.00  0.00    +0.000 A 
ATOM      2  C   UNL     1      48.474   7.465  12.894  0.00  0.00    +0.000 A 
ATOM      3  C   UNL     1      47.851   7.450  11.657  0.00  0.00    +0.000 A 
ATOM      4  N   UNL     1      46.817   6.639  11.335  0.00  0.00    +0.000 NA
ATOM      5  C   UNL     1      46.372   5.780  12.275  0.00  0.00    +0.000 A 
ATOM      6  N   UNL     1      45.250   5.012  12.028  0.00  0.00    +0.000 N 
ATOM      7  C   UNL     1      44.323   5.433  10.977  0.00  0.00    +0.000 C 
ATOM      8  C   UNL     1      42.914   4.915  11.364  0.00  0.00    +0.000 C 
ATOM      9  N   UNL     1      42.852   3.448  11.587  0.00  0.00    +0.000 NA
ATOM     10  C   UNL     1      43.888   3.059  12.573  0.00  0.00    +0.000 C 
ATOM     11  C   UNL     1      45.309   3.562  12.220  0.00  0.00    +0.000 C 
ATOM     12  C   UNL     1      46.959   5.732  13.540  0.00  0.00    +0.000 A 
ATOM     13  H   UNL     1      43.077   2.994  10.703  0.00  0.00    +0.000 HD
ENDROOT
BRANCH   1  14
ATOM     14  C   UNL     1      48.637   6.539  15.245  0.00  0.00    +0.000 C 
BRANCH  14  20
ATOM     15  C   UNL     1      48.730   4.951  21.617  0.00  0.00    +0.000 C 
ATOM     16  C   UNL     1      48.615   5.156  20.140  0.00  0.00    +0.000 A 
ATOM     17  C   UNL     1      48.538   6.424  19.578  0.00  0.00    +0.000 A 
ATOM     18  C   UNL     1      48.371   6.559  18.198  0.00  0.00    +0.000 A 
ATOM     19  C   UNL     1      48.295   5.427  17.395  0.00  0.00    +0.000 A 
ATOM     20  N   UNL     1      48.040   5.477  16.032  0.00  0.00    +0.000 N 
ATOM     21  N   UNL     1      48.391   4.191  17.922  0.00  0.00    +0.000 NA
ATOM     22  C   UNL     1      48.539   4.079  19.266  0.00  0.00    +0.000 A 
ATOM     23  H   UNL     1      48.170   4.537  15.667  0.00  0.00    +0.000 HD
ENDBRANCH  14  20
ENDBRANCH   1  14
TORSDOF 2
ENDMDL
MODEL 8
REMARK VINA RESULT:    -6.326      3.847      7.106
REMARK INTER + INTRA:          -7.476
REMARK INTER:                  -7.023
REMARK INTRA:                  -0.453
REMARK UNBOUND:                -0.410
REMARK  Name = 
REMARK  3 active torsions:
REMARK  status: ('A' for Active; 'I' for Inactive)
REMARK    1  A    between atoms: C_1  and  C_2
REMARK    2  A    between atoms: N_6  and  C_7
REMARK    3  A    between atoms: C_7  and  C_8
REMARK                            x       y       z     vdW  Elec       q    Type
REMARK                         _______ _______ _______ _____ _____    ______ ____
ROOT
ATOM      1  C   UNL     1      46.415   8.356  12.732  0.00  0.00    +0.000 A 
ATOM      2  C   UNL     1      47.643   7.936  13.239  0.00  0.00    +0.000 A 
ATOM      3  C   UNL     1      47.830   6.583  13.465  0.00  0.00    +0.000 A 
ATOM      4  N   UNL     1      46.901   5.633  13.207  0.00  0.00    +0.000 NA
ATOM      5  C   UNL     1      45.712   6.031  12.710  0.00  0.00    +0.000 A 
ATOM      6  N   UNL     1      44.776   5.088  12.329  0.00  0.00    +0.000 N 
ATOM      7  C   UNL     1      45.221   3.722  12.056  0.00  0.00    +0.000 C 
ATOM      8  C   UNL     1      44.244   3.114  11.017  0.00  0.00    +0.000 C 
ATOM      9  N   UNL     1      42.820   3.147  11.437  0.00  0.00    +0.000 NA
ATOM     10  C   UNL     1      42.454   4.533  11.814  0.00  0.00    +0.000 C 
ATOM     11  C   UNL     1      43.410   5.174  12.849  0.00  0.00    +0.000 C 
ATOM     12  C   UNL     1      45.450   7.380  12.468  0.00  0.00    +0.000 A 
ATOM     13  H   UNL     1      42.732   2.564  12.269  0.00  0.00    +0.000 HD
ENDROOT
BRANCH   1  14
ATOM     14  C   UNL     1      46.137   9.809  12.443  0.00  0.00    +0.000 C 
BRANCH  14  20
ATOM     15  C   UNL     1      41.655  12.574   8.519  0.00  0.00    +0.000 C 
ATOM     16  C   UNL     1      42.543  11.938   9.541  0.00  0.00    +0.000 A 
ATOM     17  C   UNL     1      43.575  11.080   9.184  0.00  0.00    +0.000 A 
ATOM     18  C   UNL     1      44.337  10.465  10.179  0.00  0.00    +0.000 A 
ATOM     19  C   UNL     1      44.067  10.723  11.518  0.00  0.00    +0.000 A 
ATOM     20  N   UNL     1      44.718  10.082  12.563  0.00  0.00    +0.000 N 
ATOM     21  N   UNL     1      43.083  11.570  11.880  0.00  0.00    +0.000 NA
ATOM     22  C   UNL     1      42.345  12.148  10.899  0.00  0.00    +0.000 A 
ATOM     23  H   UNL     1      44.433  10.544  13.423  0.00  0.00    +0.000 HD
ENDBRANCH  14  20
ENDBRANCH   1  14
TORSDOF 2
ENDMDL
MODEL 9
REMARK VINA RESULT:    -6.159      5.258      7.891
REMARK INTER + INTRA:          -7.290
REMARK INTER:                  -6.997
REMARK INTRA:                  -0.292
REMARK UNBOUND:                -0.410
REMARK  Name = 
REMARK  3 active torsions:
REMARK  status: ('A' for Active; 'I' for Inactive)
REMARK    1  A    between atoms: C_1  and  C_2
REMARK    2  A    between atoms: N_6  and  C_7
REMARK    3  A    between atoms: C_7  and  C_8
REMARK                            x       y       z     vdW  Elec       q    Type
REMARK                         _______ _______ _______ _____ _____    ______ ____
ROOT
ATOM      1  C   UNL     1      44.346   9.052  11.468  0.00  0.00    +0.000 A 
ATOM      2  C   UNL     1      45.489   9.608  12.038  0.00  0.00    +0.000 A 
ATOM      3  C   UNL     1      46.318   8.783  12.780  0.00  0.00    +0.000 A 
ATOM      4  N   UNL     1      46.101   7.461  12.972  0.00  0.00    +0.000 NA
ATOM      5  C   UNL     1      45.001   6.914  12.418  0.00  0.00    +0.000 A 
ATOM      6  N   UNL     1      44.797   5.549  12.495  0.00  0.00    +0.000 N 
ATOM      7  C   UNL     1      45.940   4.680  12.772  0.00  0.00    +0.000 C 
ATOM      8  C   UNL     1      45.649   3.305  12.116  0.00  0.00    +0.000 C 
ATOM      9  N   UNL     1      44.375   2.684  12.558  0.00  0.00    +0.000 NA
ATOM     10  C   UNL     1      43.267   3.650  12.364  0.00  0.00    +0.000 C 
ATOM     11  C   UNL     1      43.524   5.035  13.005  0.00  0.00    +0.000 C 
ATOM     12  C   UNL     1      44.114   7.688  11.667  0.00  0.00    +0.000 A 
ATOM     13  H   UNL     1      44.455   2.498  13.558  0.00  0.00    +0.000 HD
ENDROOT
BRANCH   1  14
ATOM     14  C   UNL     1      43.400   9.878  10.633  0.00  0.00    +0.000 C 
BRANCH  14  20
ATOM     15  C   UNL     1      37.444  12.628  10.939  0.00  0.00    +0.000 C 
ATOM     16  C   UNL     1      38.715  11.840  10.898  0.00  0.00    +0.000 A 
ATOM     17  C   UNL     1      39.793  12.228  10.113  0.00  0.00    +0.000 A 
ATOM     18  C   UNL     1      40.935  11.425  10.064  0.00  0.00    +0.000 A 
ATOM     19  C   UNL     1      40.991  10.252  10.809  0.00  0.00    +0.000 A 
ATOM     20  N   UNL     1      42.050   9.359  10.742  0.00  0.00    +0.000 N 
ATOM     21  N   UNL     1      39.962   9.875  11.592  0.00  0.00    +0.000 NA
ATOM     22  C   UNL     1      38.855  10.661  11.616  0.00  0.00    +0.000 A 
ATOM     23  H   UNL     1      41.906   8.666  11.474  0.00  0.00    +0.000 HD
ENDBRANCH  14  20
ENDBRANCH   1  14
TORSDOF 2
ENDMDL
