MODEL 1
REMARK VINA RESULT:    -8.566      0.000      0.000
REMARK INTER + INTRA:         -12.261
REMARK INTER:                 -11.571
REMARK INTRA:                  -0.690
REMARK UNBOUND:                -0.690
REMARK  Name = 
REMARK  7 active torsions:
REMARK  status: ('A' for Active; 'I' for Inactive)
REMARK    1  A    between atoms: C_1  and  C_2
REMARK    2  A    between atoms: C_6  and  C_7
REMARK    3  A    between atoms: N_9  and  C_10
REMARK    4  A    between atoms: C_10  and  C_11
REMARK    5  A    between atoms: C_14  and  C_15
REMARK    6  A    between atoms: C_15  and  N_16
REMARK    7  A    between atoms: C_17  and  C_19
REMARK                            x       y       z     vdW  Elec       q    Type
REMARK                         _______ _______ _______ _____ _____    ______ ____
ROOT
ATOM      1  C   UNL     1      44.621   5.386  11.432  0.00  0.00    +0.000 A 
ATOM      2  C   UNL     1      45.716   4.871  12.140  0.00  0.00    +0.000 A 
ATOM      3  C   UNL     1      46.614   5.727  12.791  0.00  0.00    +0.000 A 
ATOM      4  C   UNL     1      46.423   7.114  12.764  0.00  0.00    +0.000 A 
ATOM      5  C   UNL     1      45.337   7.629  12.043  0.00  0.00    +0.000 A 
ATOM      6  C   UNL     1      44.439   6.775  11.394  0.00  0.00    +0.000 A 
ENDROOT
BRANCH   1   7
ATOM      7  C   UNL     1      43.658   4.461  10.736  0.00  0.00    +0.000 C 
BRANCH   7  10
ATOM      8  C   UNL     1      45.082   3.896   8.824  0.00  0.00    +0.000 C 
ATOM      9  O   UNL     1      45.192   5.072   8.492  0.00  0.00    +0.000 OA
ATOM     10  N   UNL     1      44.342   3.485   9.914  0.00  0.00    +0.000 N 
ATOM     11  H   UNL     1      44.431   2.542  10.268  0.00  0.00    +0.000 HD
BRANCH   8  17
ATOM     12  C   UNL     1      47.784   2.267   4.876  0.00  0.00    +0.000 C 
ATOM     13  C   UNL     1      47.088   2.037   6.181  0.00  0.00    +0.000 A 
ATOM     14  C   UNL     1      47.098   0.789   6.797  0.00  0.00    +0.000 A 
ATOM     15  N   UNL     1      46.509   0.531   7.986  0.00  0.00    +0.000 NA
ATOM     16  C   UNL     1      45.879   1.567   8.594  0.00  0.00    +0.000 A 
ATOM     17  C   UNL     1      45.790   2.846   8.056  0.00  0.00    +0.000 A 
ATOM     18  C   UNL     1      46.417   3.082   6.831  0.00  0.00    +0.000 A 
ENDBRANCH   8  17
ENDBRANCH   7  10
ENDBRANCH   1   7
BRANCH   4  19
ATOM     19  C   UNL     1      47.378   8.042  13.472  0.00  0.00    +0.000 C 
BRANCH  19  20
ATOM     20  N   UNL     1      47.689   7.575  14.800  0.00  0.00    +0.000 N 
ATOM     21  C   UNL     1      48.915   7.030  15.089  0.00  0.00    +0.000 C 
ATOM     22  O   UNL     1      49.808   6.956  14.247  0.00  0.00    +0.000 OA
ATOM     23  H   UNL     1      46.910   7.420  15.431  0.00  0.00    +0.000 HD
BRANCH  21  24
ATOM     24  C   UNL     1      49.131   6.589  16.473  0.00  0.00    +0.000 A 
ATOM     25  C   UNL     1      49.780   7.430  17.370  0.00  0.00    +0.000 A 
ATOM     26  S   UNL     1      49.902   6.789  18.946  0.00  0.00    +0.000 S 
ATOM     27  C   UNL     1      49.140   5.343  18.474  0.00  0.00    +0.000 A 
ATOM     28  N   UNL     1      48.948   4.331  19.365  0.00  0.00    +0.000 NA
ATOM     29  C   UNL     1      48.389   3.280  18.864  0.00  0.00    +0.000 A 
ATOM     30  N   UNL     1      47.999   3.150  17.557  0.00  0.00    +0.000 N 
ATOM     31  C   UNL     1      48.145   4.155  16.630  0.00  0.00    +0.000 A 
ATOM     32  O   UNL     1      47.747   4.023  15.478  0.00  0.00    +0.000 OA
ATOM     33  C   UNL     1      48.781   5.356  17.138  0.00  0.00    +0.000 A 
ATOM     34  H   UNL     1      47.559   2.303  17.230  0.00  0.00    +0.000 HD
ENDBRANCH  21  24
ENDBRANCH  19  20
ENDBRANCH   4  19
TORSDOF 6
ENDMDL
MODEL 2
REMARK VINA RESULT:    -8.308      1.776      2.281
REMARK INTER + INTRA:         -11.913
REMARK INTER:                 -10.936
REMARK INTRA:                  -0.976
REMARK UNBOUND:                -0.690
REMARK  Name = 
REMARK  7 active torsions:
REMARK  status: ('A' for Active; 'I' for Inactive)
REMARK    1  A    between atoms: C_1  and  C_2
REMARK    2  A    between atoms: C_6  and  C_7
REMARK    3  A    between atoms: N_9  and  C_10
REMARK    4  A    between atoms: C_10  and  C_11
REMARK    5  A    between atoms: C_14  and  C_15
REMARK    6  A    between atoms: C_15  and  N_16
REMARK    7  A    between atoms: C_17  and  C_19
REMARK                            x       y       z     vdW  Elec       q    Type
REMARK                         _______ _______ _______ _____ _____    ______ ____
ROOT
ATOM      1  C   UNL     1      45.245   5.513  11.607  0.00  0.00    +0.000 A 
ATOM      2  C   UNL     1      45.885   4.721  12.571  0.00  0.00    +0.000 A 
ATOM      3  C   UNL     1      46.869   5.264  13.405  0.00  0.00    +0.000 A 
ATOM      4  C   UNL     1      47.221   6.616  13.306  0.00  0.00    +0.000 A 
ATOM      5  C   UNL     1      46.593   7.404  12.332  0.00  0.00    +0.000 A 
ATOM      6  C   UNL     1      45.608   6.862  11.499  0.00  0.00    +0.000 A 
ENDROOT
BRANCH   1   7
ATOM      7  C   UNL     1      44.186   4.924  10.713  0.00  0.00    +0.000 C 
BRANCH   7  10
ATOM      8  C   UNL     1      45.467   4.138   8.778  0.00  0.00    +0.000 C 
ATOM      9  O   UNL     1      45.731   5.282   8.423  0.00  0.00    +0.000 OA
ATOM     10  N   UNL     1      44.705   3.851   9.892  0.00  0.00    +0.000 N 
ATOM     11  H   UNL     1      44.670   2.909  10.261  0.00  0.00    +0.000 HD
BRANCH   8  17
ATOM     12  C   UNL     1      47.721   2.081   4.751  0.00  0.00    +0.000 C 
ATOM     13  C   UNL     1      47.082   1.975   6.100  0.00  0.00    +0.000 A 
ATOM     14  C   UNL     1      46.982   0.753   6.760  0.00  0.00    +0.000 A 
ATOM     15  N   UNL     1      46.438   0.603   7.989  0.00  0.00    +0.000 NA
ATOM     16  C   UNL     1      45.970   1.725   8.591  0.00  0.00    +0.000 A 
ATOM     17  C   UNL     1      46.000   2.988   8.012  0.00  0.00    +0.000 A 
ATOM     18  C   UNL     1      46.577   3.111   6.746  0.00  0.00    +0.000 A 
ENDBRANCH   8  17
ENDBRANCH   7  10
ENDBRANCH   1   7
BRANCH   4  19
ATOM     19  C   UNL     1      48.272   7.212  14.209  0.00  0.00    +0.000 C 
BRANCH  19  20
ATOM     20  N   UNL     1      48.096   6.796  15.578  0.00  0.00    +0.000 N 
ATOM     21  C   UNL     1      49.152   6.317  16.313  0.00  0.00    +0.000 C 
ATOM     22  O   UNL     1      50.291   6.262  15.853  0.00  0.00    +0.000 OA
ATOM     23  H   UNL     1      47.147   6.622  15.892  0.00  0.00    +0.000 HD
BRANCH  21  24
ATOM     24  C   UNL     1      48.867   5.925  17.699  0.00  0.00    +0.000 A 
ATOM     25  C   UNL     1      49.115   4.621  18.110  0.00  0.00    +0.000 A 
ATOM     26  S   UNL     1      48.781   4.346  19.760  0.00  0.00    +0.000 S 
ATOM     27  C   UNL     1      48.242   5.945  19.972  0.00  0.00    +0.000 A 
ATOM     28  N   UNL     1      47.781   6.373  21.179  0.00  0.00    +0.000 NA
ATOM     29  C   UNL     1      47.373   7.599  21.190  0.00  0.00    +0.000 A 
ATOM     30  N   UNL     1      47.389   8.437  20.106  0.00  0.00    +0.000 N 
ATOM     31  C   UNL     1      47.873   8.058  18.876  0.00  0.00    +0.000 A 
ATOM     32  O   UNL     1      47.912   8.845  17.936  0.00  0.00    +0.000 OA
ATOM     33  C   UNL     1      48.333   6.684  18.805  0.00  0.00    +0.000 A 
ATOM     34  H   UNL     1      47.062   9.388  20.182  0.00  0.00    +0.000 HD
ENDBRANCH  21  24
ENDBRANCH  19  20
ENDBRANCH   4  19
TORSDOF 6
ENDMDL
MODEL 3
REMARK VINA RESULT:    -8.063      1.210      1.603
REMARK INTER + INTRA:         -11.581
REMARK INTER:                 -10.613
REMARK INTRA:                  -0.968
REMARK UNBOUND:                -0.690
REMARK  Name = 
REMARK  7 active torsions:
REMARK  status: ('A' for Active; 'I' for Inactive)
REMARK    1  A    between atoms: C_1  and  C_2
REMARK    2  A    between atoms: C_6  and  C_7
REMARK    3  A    between atoms: N_9  and  C_10
REMARK    4  A    between atoms: C_10  and  C_11
REMARK    5  A    between atoms: C_14  and  C_15
REMARK    6  A    between atoms: C_15  and  N_16
REMARK    7  A    between atoms: C_17  and  C_19
REMARK                            x       y       z     vdW  Elec       q    Type
REMARK                         _______ _______ _______ _____ _____    ______ ____
ROOT
ATOM      1  C   UNL     1      45.380   4.911  11.945  0.00  0.00    +0.000 A 
ATOM      2  C   UNL     1      45.749   6.175  11.464  0.00  0.00    +0.000 A 
ATOM      3  C   UNL     1      46.688   6.956  12.148  0.00  0.00    +0.000 A 
ATOM      4  C   UNL     1      47.292   6.481  13.319  0.00  0.00    +0.000 A 
ATOM      5  C   UNL     1      46.912   5.224  13.809  0.00  0.00    +0.000 A 
ATOM      6  C   UNL     1      45.975   4.442  13.124  0.00  0.00    +0.000 A 
ENDROOT
BRANCH   1   7
ATOM      7  C   UNL     1      44.371   4.074  11.203  0.00  0.00    +0.000 C 
BRANCH   7  10
ATOM      8  C   UNL     1      45.163   3.535   8.948  0.00  0.00    +0.000 C 
ATOM      9  O   UNL     1      44.782   4.611   8.501  0.00  0.00    +0.000 OA
ATOM     10  N   UNL     1      45.003   3.167  10.269  0.00  0.00    +0.000 N 
ATOM     11  H   UNL     1      45.495   2.366  10.641  0.00  0.00    +0.000 HD
BRANCH   8  17
ATOM     12  C   UNL     1      47.645   2.306   4.721  0.00  0.00    +0.000 C 
ATOM     13  C   UNL     1      47.052   1.955   6.050  0.00  0.00    +0.000 A 
ATOM     14  C   UNL     1      47.154   0.669   6.572  0.00  0.00    +0.000 A 
ATOM     15  N   UNL     1      46.660   0.302   7.776  0.00  0.00    +0.000 NA
ATOM     16  C   UNL     1      46.033   1.265   8.497  0.00  0.00    +0.000 A 
ATOM     17  C   UNL     1      45.856   2.573   8.061  0.00  0.00    +0.000 A 
ATOM     18  C   UNL     1      46.387   2.921   6.817  0.00  0.00    +0.000 A 
ENDBRANCH   8  17
ENDBRANCH   7  10
ENDBRANCH   1   7
BRANCH   4  19
ATOM     19  C   UNL     1      48.313   7.310  14.056  0.00  0.00    +0.000 C 
BRANCH  19  20
ATOM     20  N   UNL     1      48.195   7.154  15.485  0.00  0.00    +0.000 N 
ATOM     21  C   UNL     1      49.179   7.602  16.329  0.00  0.00    +0.000 C 
ATOM     22  O   UNL     1      50.175   8.190  15.912  0.00  0.00    +0.000 OA
ATOM     23  H   UNL     1      47.510   6.485  15.823  0.00  0.00    +0.000 HD
BRANCH  21  24
ATOM     24  C   UNL     1      48.959   7.398  17.767  0.00  0.00    +0.000 A 
ATOM     25  C   UNL     1      48.722   8.492  18.590  0.00  0.00    +0.000 A 
ATOM     26  S   UNL     1      48.434   8.077  20.219  0.00  0.00    +0.000 S 
ATOM     27  C   UNL     1      48.669   6.424  19.894  0.00  0.00    +0.000 A 
ATOM     28  N   UNL     1      48.587   5.498  20.888  0.00  0.00    +0.000 NA
ATOM     29  C   UNL     1      48.820   4.285  20.508  0.00  0.00    +0.000 A 
ATOM     30  N   UNL     1      49.122   3.914  19.224  0.00  0.00    +0.000 N 
ATOM     31  C   UNL     1      49.186   4.810  18.183  0.00  0.00    +0.000 A 
ATOM     32  O   UNL     1      49.418   4.440  17.037  0.00  0.00    +0.000 OA
ATOM     33  C   UNL     1      48.945   6.190  18.558  0.00  0.00    +0.000 A 
ATOM     34  H   UNL     1      49.287   2.947  18.991  0.00  0.00    +0.000 HD
ENDBRANCH  21  24
ENDBRANCH  19  20
ENDBRANCH   4  19
TORSDOF 6
ENDMDL
MODEL 4
REMARK VINA RESULT:    -7.824      1.869      2.307
REMARK INTER + INTRA:         -11.258
REMARK INTER:                 -10.228
REMARK INTRA:                  -1.030
REMARK UNBOUND:                -0.690
REMARK  Name = 
REMARK  7 active torsions:
REMARK  status: ('A' for Active; 'I' for Inactive)
REMARK    1  A    between atoms: C_1  and  C_2
REMARK    2  A    between atoms: C_6  and  C_7
REMARK    3  A    between atoms: N_9  and  C_10
REMARK    4  A    between atoms: C_10  and  C_11
REMARK    5  A    between atoms: C_14  and  C_15
REMARK    6  A    between atoms: C_15  and  N_16
REMARK    7  A    between atoms: C_17  and  C_19
REMARK                            x       y       z     vdW  Elec       q    Type
REMARK                         _______ _______ _______ _____ _____    ______ ____
ROOT
ATOM      1  C   UNL     1      44.889   5.422  11.858  0.00  0.00    +0.000 A 
ATOM      2  C   UNL     1      44.506   6.767  11.771  0.00  0.00    +0.000 A 
ATOM      3  C   UNL     1      45.321   7.778  12.295  0.00  0.00    +0.000 A 
ATOM      4  C   UNL     1      46.544   7.466  12.901  0.00  0.00    +0.000 A 
ATOM      5  C   UNL     1      46.919   6.119  13.003  0.00  0.00    +0.000 A 
ATOM      6  C   UNL     1      46.106   5.108  12.477  0.00  0.00    +0.000 A 
ENDROOT
BRANCH   1   7
ATOM      7  C   UNL     1      44.010   4.338  11.290  0.00  0.00    +0.000 C 
BRANCH   7  10
ATOM      8  C   UNL     1      44.778   3.686   9.057  0.00  0.00    +0.000 C 
ATOM      9  O   UNL     1      44.198   4.628   8.526  0.00  0.00    +0.000 OA
ATOM     10  N   UNL     1      44.744   3.448  10.416  0.00  0.00    +0.000 N 
ATOM     11  H   UNL     1      45.383   2.786  10.837  0.00  0.00    +0.000 HD
BRANCH   8  17
ATOM     12  C   UNL     1      47.658   2.583   5.054  0.00  0.00    +0.000 C 
ATOM     13  C   UNL     1      46.971   2.201   6.328  0.00  0.00    +0.000 A 
ATOM     14  C   UNL     1      47.085   0.918   6.856  0.00  0.00    +0.000 A 
ATOM     15  N   UNL     1      46.507   0.526   8.014  0.00  0.00    +0.000 NA
ATOM     16  C   UNL     1      45.780   1.458   8.680  0.00  0.00    +0.000 A 
ATOM     17  C   UNL     1      45.585   2.759   8.231  0.00  0.00    +0.000 A 
ATOM     18  C   UNL     1      46.203   3.135   7.036  0.00  0.00    +0.000 A 
ENDBRANCH   8  17
ENDBRANCH   7  10
ENDBRANCH   1   7
BRANCH   4  19
ATOM     19  C   UNL     1      47.433   8.549  13.458  0.00  0.00    +0.000 C 
BRANCH  19  20
ATOM     20  N   UNL     1      47.346   8.622  14.896  0.00  0.00    +0.000 N 
ATOM     21  C   UNL     1      48.275   9.319  15.626  0.00  0.00    +0.000 C 
ATOM     22  O   UNL     1      49.190   9.941  15.089  0.00  0.00    +0.000 OA
ATOM     23  H   UNL     1      46.750   7.944  15.360  0.00  0.00    +0.000 HD
BRANCH  21  24
ATOM     24  C   UNL     1      48.093   9.335  17.084  0.00  0.00    +0.000 A 
ATOM     25  C   UNL     1      47.869  10.541  17.736  0.00  0.00    +0.000 A 
ATOM     26  S   UNL     1      47.625  10.377  19.416  0.00  0.00    +0.000 S 
ATOM     27  C   UNL     1      47.865   8.695  19.341  0.00  0.00    +0.000 A 
ATOM     28  N   UNL     1      47.815   7.931  20.466  0.00  0.00    +0.000 NA
ATOM     29  C   UNL     1      48.048   6.675  20.269  0.00  0.00    +0.000 A 
ATOM     30  N   UNL     1      48.320   6.114  19.048  0.00  0.00    +0.000 N 
ATOM     31  C   UNL     1      48.351   6.841  17.882  0.00  0.00    +0.000 A 
ATOM     32  O   UNL     1      48.557   6.302  16.800  0.00  0.00    +0.000 OA
ATOM     33  C   UNL     1      48.109   8.261  18.049  0.00  0.00    +0.000 A 
ATOM     34  H   UNL     1      48.486   5.123  18.960  0.00  0.00    +0.000 HD
ENDBRANCH  21  24
ENDBRANCH  19  20
ENDBRANCH   4  19
TORSDOF 6
ENDMDL
MODEL 5
REMARK VINA RESULT:    -7.586      2.544      3.736
REMARK INTER + INTRA:         -10.936
REMARK INTER:                  -9.882
REMARK INTRA:                  -1.054
REMARK UNBOUND:                -0.690
REMARK  Name = 
REMARK  7 active torsions:
REMARK  status: ('A' for Active; 'I' for Inactive)
REMARK    1  A    between atoms: C_1  and  C_2
REMARK    2  A    between atoms: C_6  and  C_7
REMARK    3  A    between atoms: N_9  and  C_10
REMARK    4  A    between atoms: C_10  and  C_11
REMARK    5  A    between atoms: C_14  and  C_15
REMARK    6  A    between atoms: C_15  and  N_16
REMARK    7  A    between atoms: C_17  and  C_19
REMARK                            x       y       z     vdW  Elec       q    Type
REMARK                         _______ _______ _______ _____ _____    ______ ____
ROOT
ATOM      1  C   UNL     1      45.097   4.793  11.708  0.00  0.00    +0.000 A 
ATOM      2  C   UNL     1      45.560   3.772  12.548  0.00  0.00    +0.000 A 
ATOM      3  C   UNL     1      46.433   4.056  13.605  0.00  0.00    +0.000 A 
ATOM      4  C   UNL     1      46.847   5.370  13.855  0.00  0.00    +0.000 A 
ATOM      5  C   UNL     1      46.396   6.389  13.005  0.00  0.00    +0.000 A 
ATOM      6  C   UNL     1      45.521   6.107  11.950  0.00  0.00    +0.000 A 
ENDROOT
BRANCH   1   7
ATOM      7  C   UNL     1      44.155   4.483  10.573  0.00  0.00    +0.000 C 
BRANCH   7  10
ATOM      8  C   UNL     1      45.525   3.823   8.652  0.00  0.00    +0.000 C 
ATOM      9  O   UNL     1      45.847   4.983   8.417  0.00  0.00    +0.000 OA
ATOM     10  N   UNL     1      44.689   3.467   9.690  0.00  0.00    +0.000 N 
ATOM     11  H   UNL     1      44.601   2.499   9.970  0.00  0.00    +0.000 HD
BRANCH   8  17
ATOM     12  C   UNL     1      47.583   2.000   4.412  0.00  0.00    +0.000 C 
ATOM     13  C   UNL     1      47.057   1.824   5.802  0.00  0.00    +0.000 A 
ATOM     14  C   UNL     1      47.082   0.585   6.435  0.00  0.00    +0.000 A 
ATOM     15  N   UNL     1      46.644   0.374   7.697  0.00  0.00    +0.000 NA
ATOM     16  C   UNL     1      46.158   1.451   8.363  0.00  0.00    +0.000 A 
ATOM     17  C   UNL     1      46.066   2.726   7.817  0.00  0.00    +0.000 A 
ATOM     18  C   UNL     1      46.536   2.913   6.515  0.00  0.00    +0.000 A 
ENDBRANCH   8  17
ENDBRANCH   7  10
ENDBRANCH   1   7
BRANCH   4  19
ATOM     19  C   UNL     1      47.778   5.687  14.998  0.00  0.00    +0.000 C 
BRANCH  19  20
ATOM     20  N   UNL     1      48.079   7.095  15.066  0.00  0.00    +0.000 N 
ATOM     21  C   UNL     1      49.362   7.535  15.273  0.00  0.00    +0.000 C 
ATOM     22  O   UNL     1      50.309   6.757  15.366  0.00  0.00    +0.000 OA
ATOM     23  H   UNL     1      47.301   7.729  15.217  0.00  0.00    +0.000 HD
BRANCH  21  24
ATOM     24  C   UNL     1      49.561   8.990  15.321  0.00  0.00    +0.000 A 
ATOM     25  C   UNL     1      50.391   9.602  14.389  0.00  0.00    +0.000 A 
ATOM     26  S   UNL     1      50.471  11.298  14.551  0.00  0.00    +0.000 S 
ATOM     27  C   UNL     1      49.442  11.270  15.905  0.00  0.00    +0.000 A 
ATOM     28  N   UNL     1      49.115  12.419  16.557  0.00  0.00    +0.000 NA
ATOM     29  C   UNL     1      48.354  12.250  17.587  0.00  0.00    +0.000 A 
ATOM     30  N   UNL     1      47.886  11.036  18.020  0.00  0.00    +0.000 N 
ATOM     31  C   UNL     1      48.165   9.854  17.376  0.00  0.00    +0.000 A 
ATOM     32  O   UNL     1      47.696   8.790  17.765  0.00  0.00    +0.000 OA
ATOM     33  C   UNL     1      49.028   9.988  16.218  0.00  0.00    +0.000 A 
ATOM     34  H   UNL     1      47.288  10.972  18.830  0.00  0.00    +0.000 HD
ENDBRANCH  21  24
ENDBRANCH  19  20
ENDBRANCH   4  19
TORSDOF 6
ENDMDL
MODEL 6
REMARK VINA RESULT:    -7.363      4.356      7.255
REMARK INTER + INTRA:         -10.635
REMARK INTER:                  -9.646
REMARK INTRA:                  -0.990
REMARK UNBOUND:                -0.690
REMARK  Name = 
REMARK  7 active torsions:
REMARK  status: ('A' for Active; 'I' for Inactive)
REMARK    1  A    between atoms: C_1  and  C_2
REMARK    2  A    between atoms: C_6  and  C_7
REMARK    3  A    between atoms: N_9  and  C_10
REMARK    4  A    between atoms: C_10  and  C_11
REMARK    5  A    between atoms: C_14  and  C_15
REMARK    6  A    between atoms: C_15  and  N_16
REMARK    7  A    between atoms: C_17  and  C_19
REMARK                            x       y       z     vdW  Elec       q    Type
REMARK                         _______ _______ _______ _____ _____    ______ ____
ROOT
ATOM      1  C   UNL     1      44.453   8.469  11.429  0.00  0.00    +0.000 A 
ATOM      2  C   UNL     1      43.953   7.201  11.105  0.00  0.00    +0.000 A 
ATOM      3  C   UNL     1      44.509   6.046  11.668  0.00  0.00    +0.000 A 
ATOM      4  C   UNL     1      45.566   6.137  12.584  0.00  0.00    +0.000 A 
ATOM      5  C   UNL     1      46.076   7.405  12.896  0.00  0.00    +0.000 A 
ATOM      6  C   UNL     1      45.519   8.559  12.334  0.00  0.00    +0.000 A 
ENDROOT
BRANCH   1   7
ATOM      7  C   UNL     1      43.849   9.708  10.821  0.00  0.00    +0.000 C 
BRANCH   7  10
ATOM      8  C   UNL     1      41.992  11.037  11.708  0.00  0.00    +0.000 C 
ATOM      9  O   UNL     1      42.719  11.999  11.931  0.00  0.00    +0.000 OA
ATOM     10  N   UNL     1      42.451   9.854  11.167  0.00  0.00    +0.000 N 
ATOM     11  H   UNL     1      41.800   9.162  10.820  0.00  0.00    +0.000 HD
BRANCH   8  17
ATOM     12  C   UNL     1      37.251   9.301  11.494  0.00  0.00    +0.000 C 
ATOM     13  C   UNL     1      38.262  10.320  11.914  0.00  0.00    +0.000 A 
ATOM     14  C   UNL     1      37.898  11.437  12.663  0.00  0.00    +0.000 A 
ATOM     15  N   UNL     1      38.773  12.376  13.090  0.00  0.00    +0.000 NA
ATOM     16  C   UNL     1      40.075  12.194  12.756  0.00  0.00    +0.000 A 
ATOM     17  C   UNL     1      40.541  11.128  11.995  0.00  0.00    +0.000 A 
ATOM     18  C   UNL     1      39.614  10.172  11.577  0.00  0.00    +0.000 A 
ENDBRANCH   8  17
ENDBRANCH   7  10
ENDBRANCH   1   7
BRANCH   4  19
ATOM     19  C   UNL     1      46.164   4.900  13.205  0.00  0.00    +0.000 C 
BRANCH  19  20
ATOM     20  N   UNL     1      46.777   5.186  14.477  0.00  0.00    +0.000 N 
ATOM     21  C   UNL     1      47.431   4.208  15.183  0.00  0.00    +0.000 C 
ATOM     22  O   UNL     1      47.558   3.066  14.746  0.00  0.00    +0.000 OA
ATOM     23  H   UNL     1      46.493   6.039  14.948  0.00  0.00    +0.000 HD
BRANCH  21  24
ATOM     24  C   UNL     1      48.025   4.605  16.467  0.00  0.00    +0.000 A 
ATOM     25  C   UNL     1      47.651   3.947  17.631  0.00  0.00    +0.000 A 
ATOM     26  S   UNL     1      48.473   4.493  19.023  0.00  0.00    +0.000 S 
ATOM     27  C   UNL     1      49.319   5.665  18.128  0.00  0.00    +0.000 A 
ATOM     28  N   UNL     1      50.195   6.511  18.736  0.00  0.00    +0.000 NA
ATOM     29  C   UNL     1      50.742   7.372  17.944  0.00  0.00    +0.000 A 
ATOM     30  N   UNL     1      50.499   7.460  16.598  0.00  0.00    +0.000 N 
ATOM     31  C   UNL     1      49.647   6.608  15.936  0.00  0.00    +0.000 A 
ATOM     32  O   UNL     1      49.482   6.686  14.723  0.00  0.00    +0.000 OA
ATOM     33  C   UNL     1      48.994   5.628  16.783  0.00  0.00    +0.000 A 
ATOM     34  H   UNL     1      50.966   8.152  16.032  0.00  0.00    +0.000 HD
ENDBRANCH  21  24
ENDBRANCH  19  20
ENDBRANCH   4  19
TORSDOF 6
ENDMDL
MODEL 7
REMARK VINA RESULT:    -7.114      3.198      8.925
REMARK INTER + INTRA:         -10.300
REMARK INTER:                  -9.288
REMARK INTRA:                  -1.012
REMARK UNBOUND:                -0.690
REMARK  Name = 
REMARK  7 active torsions:
REMARK  status: ('A' for Active; 'I' for Inactive)
REMARK    1  A    between atoms: C_1  and  C_2
REMARK    2  A    between atoms: C_6  and  C_7
REMARK    3  A    between atoms: N_9  and  C_10
REMARK    4  A    between atoms: C_10  and  C_11
REMARK    5  A    between atoms: C_14  and  C_15
REMARK    6  A    between atoms: C_15  and  N_16
REMARK    7  A    between atoms: C_17  and  C_19
REMARK                            x       y       z     vdW  Elec       q    Type
REMARK                         _______ _______ _______ _____ _____    ______ ____
ROOT
ATOM      1  C   UNL     1      49.990   7.630  15.579  0.00  0.00    +0.000 A 
ATOM      2  C   UNL     1      48.626   7.934  15.688  0.00  0.00    +0.000 A 
ATOM      3  C   UNL     1      47.825   8.049  14.545  0.00  0.00    +0.000 A 
ATOM      4  C   UNL     1      48.368   7.842  13.270  0.00  0.00    +0.000 A 
ATOM      5  C   UNL     1      49.735   7.553  13.161  0.00  0.00    +0.000 A 
ATOM      6  C   UNL     1      50.535   7.437  14.303  0.00  0.00    +0.000 A 
ENDROOT
BRANCH   1   7
ATOM      7  C   UNL     1      50.847   7.505  16.812  0.00  0.00    +0.000 C 
BRANCH   7  10
ATOM      8  C   UNL     1      50.581   5.153  17.442  0.00  0.00    +0.000 C 
ATOM      9  O   UNL     1      49.409   5.317  17.763  0.00  0.00    +0.000 OA
ATOM     10  N   UNL     1      51.383   6.169  16.966  0.00  0.00    +0.000 N 
ATOM     11  H   UNL     1      52.273   5.961  16.533  0.00  0.00    +0.000 HD
BRANCH   8  17
ATOM     12  C   UNL     1      54.381   1.993  18.494  0.00  0.00    +0.000 C 
ATOM     13  C   UNL     1      52.985   2.265  18.032  0.00  0.00    +0.000 A 
ATOM     14  C   UNL     1      52.121   1.229  17.684  0.00  0.00    +0.000 A 
ATOM     15  N   UNL     1      50.843   1.415  17.284  0.00  0.00    +0.000 NA
ATOM     16  C   UNL     1      50.401   2.696  17.228  0.00  0.00    +0.000 A 
ATOM     17  C   UNL     1      51.185   3.803  17.531  0.00  0.00    +0.000 A 
ATOM     18  C   UNL     1      52.498   3.577  17.950  0.00  0.00    +0.000 A 
ENDBRANCH   8  17
ENDBRANCH   7  10
ENDBRANCH   1   7
BRANCH   4  19
ATOM     19  C   UNL     1      47.510   7.953  12.035  0.00  0.00    +0.000 C 
BRANCH  19  20
ATOM     20  N   UNL     1      46.841   6.711  11.738  0.00  0.00    +0.000 N 
ATOM     21  C   UNL     1      45.539   6.501  12.117  0.00  0.00    +0.000 C 
ATOM     22  O   UNL     1      44.879   7.370  12.683  0.00  0.00    +0.000 OA
ATOM     23  H   UNL     1      47.423   5.919  11.485  0.00  0.00    +0.000 HD
BRANCH  21  24
ATOM     24  C   UNL     1      44.949   5.203  11.763  0.00  0.00    +0.000 A 
ATOM     25  C   UNL     1      44.263   4.473  12.726  0.00  0.00    +0.000 A 
ATOM     26  S   UNL     1      43.596   3.018  12.137  0.00  0.00    +0.000 S 
ATOM     27  C   UNL     1      44.245   3.284  10.588  0.00  0.00    +0.000 A 
ATOM     28  N   UNL     1      44.061   2.379   9.588  0.00  0.00    +0.000 NA
ATOM     29  C   UNL     1      44.636   2.691   8.474  0.00  0.00    +0.000 A 
ATOM     30  N   UNL     1      45.373   3.828   8.268  0.00  0.00    +0.000 N 
ATOM     31  C   UNL     1      45.561   4.784   9.239  0.00  0.00    +0.000 A 
ATOM     32  O   UNL     1      46.191   5.811   9.010  0.00  0.00    +0.000 OA
ATOM     33  C   UNL     1      44.945   4.476  10.515  0.00  0.00    +0.000 A 
ATOM     34  H   UNL     1      45.791   4.017   7.370  0.00  0.00    +0.000 HD
ENDBRANCH  21  24
ENDBRANCH  19  20
ENDBRANCH   4  19
TORSDOF 6
ENDMDL
MODEL 8
REMARK VINA RESULT:    -7.091      3.000      4.593
REMARK INTER + INTRA:         -10.269
REMARK INTER:                  -9.237
REMARK INTRA:                  -1.032
REMARK UNBOUND:                -0.690
REMARK  Name = 
REMARK  7 active torsions:
REMARK  status: ('A' for Active; 'I' for Inactive)
REMARK    1  A    between atoms: C_1  and  C_2
REMARK    2  A    between atoms: C_6  and  C_7
REMARK    3  A    between atoms: N_9  and  C_10
REMARK    4  A    between atoms: C_10  and  C_11
REMARK    5  A    between atoms: C_14  and  C_15
REMARK    6  A    between atoms: C_15  and  N_16
REMARK    7  A    between atoms: C_17  and  C_19
REMARK                            x       y       z     vdW  Elec       q    Type
REMARK                         _______ _______ _______ _____ _____    ______ ____
ROOT
ATOM      1  C   UNL     1      48.246   7.972  13.324  0.00  0.00    +0.000 A 
ATOM      2  C   UNL     1      49.297   7.114  13.675  0.00  0.00    +0.000 A 
ATOM      3  C   UNL     1      49.905   7.205  14.933  0.00  0.00    +0.000 A 
ATOM      4  C   UNL     1      49.462   8.144  15.873  0.00  0.00    +0.000 A 
ATOM      5  C   UNL     1      48.422   9.013  15.515  0.00  0.00    +0.000 A 
ATOM      6  C   UNL     1      47.812   8.921  14.259  0.00  0.00    +0.000 A 
ENDROOT
BRANCH   1   7
ATOM      7  C   UNL     1      47.594   7.868  11.970  0.00  0.00    +0.000 C 
BRANCH   7  10
ATOM      8  C   UNL     1      45.568   6.505  12.172  0.00  0.00    +0.000 C 
ATOM      9  O   UNL     1      44.930   7.432  12.660  0.00  0.00    +0.000 OA
ATOM     10  N   UNL     1      46.893   6.612  11.802  0.00  0.00    +0.000 N 
ATOM     11  H   UNL     1      47.326   5.898  11.232  0.00  0.00    +0.000 HD
BRANCH   8  17
ATOM     12  C   UNL     1      44.429   2.507   9.299  0.00  0.00    +0.000 C 
ATOM     13  C   UNL     1      44.346   3.273  10.581  0.00  0.00    +0.000 A 
ATOM     14  C   UNL     1      43.651   2.775  11.680  0.00  0.00    +0.000 A 
ATOM     15  N   UNL     1      43.564   3.412  12.869  0.00  0.00    +0.000 NA
ATOM     16  C   UNL     1      44.202   4.605  12.971  0.00  0.00    +0.000 A 
ATOM     17  C   UNL     1      44.905   5.203  11.931  0.00  0.00    +0.000 A 
ATOM     18  C   UNL     1      44.983   4.515  10.718  0.00  0.00    +0.000 A 
ENDBRANCH   8  17
ENDBRANCH   7  10
ENDBRANCH   1   7
BRANCH   4  19
ATOM     19  C   UNL     1      50.104   8.242  17.234  0.00  0.00    +0.000 C 
BRANCH  19  20
ATOM     20  N   UNL     1      50.964   7.116  17.500  0.00  0.00    +0.000 N 
ATOM     21  C   UNL     1      50.567   6.105  18.338  0.00  0.00    +0.000 C 
ATOM     22  O   UNL     1      49.454   6.094  18.861  0.00  0.00    +0.000 OA
ATOM     23  H   UNL     1      51.947   7.218  17.267  0.00  0.00    +0.000 HD
BRANCH  21  24
ATOM     24  C   UNL     1      51.516   5.002  18.538  0.00  0.00    +0.000 A 
ATOM     25  C   UNL     1      52.685   5.221  19.256  0.00  0.00    +0.000 A 
ATOM     26  S   UNL     1      53.648   3.826  19.441  0.00  0.00    +0.000 S 
ATOM     27  C   UNL     1      52.565   2.891  18.522  0.00  0.00    +0.000 A 
ATOM     28  N   UNL     1      52.815   1.576  18.271  0.00  0.00    +0.000 NA
ATOM     29  C   UNL     1      51.928   0.996  17.533  0.00  0.00    +0.000 A 
ATOM     30  N   UNL     1      50.810   1.609  17.029  0.00  0.00    +0.000 N 
ATOM     31  C   UNL     1      50.501   2.925  17.281  0.00  0.00    +0.000 A 
ATOM     32  O   UNL     1      49.471   3.432  16.849  0.00  0.00    +0.000 OA
ATOM     33  C   UNL     1      51.474   3.628  18.095  0.00  0.00    +0.000 A 
ATOM     34  H   UNL     1      50.150   1.097  16.464  0.00  0.00    +0.000 HD
ENDBRANCH  21  24
ENDBRANCH  19  20
ENDBRANCH   4  19
TORSDOF 6
ENDMDL
MODEL 9
REMARK VINA RESULT:    -6.999      5.329     10.095
REMARK INTER + INTRA:         -10.145
REMARK INTER:                  -9.355
REMARK INTRA:                  -0.790
REMARK UNBOUND:                -0.690
REMARK  Name = 
REMARK  7 active torsions:
REMARK  status: ('A' for Active; 'I' for Inactive)
REMARK    1  A    between atoms: C_1  and  C_2
REMARK    2  A    between atoms: C_6  and  C_7
REMARK    3  A    between atoms: N_9  and  C_10
REMARK    4  A    between atoms: C_10  and  C_11
REMARK    5  A    between atoms: C_14  and  C_15
REMARK    6  A    between atoms: C_15  and  N_16
REMARK    7  A    between atoms: C_17  and  C_19
REMARK                            x       y       z     vdW  Elec       q    Type
REMARK                         _______ _______ _______ _____ _____    ______ ____
ROOT
ATOM      1  C   UNL     1      51.890   2.396  17.508  0.00  0.00    +0.000 A 
ATOM      2  C   UNL     1      50.938   1.487  17.026  0.00  0.00    +0.000 A 
ATOM      3  C   UNL     1      49.583   1.833  16.968  0.00  0.00    +0.000 A 
ATOM      4  C   UNL     1      49.154   3.104  17.371  0.00  0.00    +0.000 A 
ATOM      5  C   UNL     1      50.103   4.008  17.868  0.00  0.00    +0.000 A 
ATOM      6  C   UNL     1      51.458   3.662  17.925  0.00  0.00    +0.000 A 
ENDROOT
BRANCH   1   7
ATOM      7  C   UNL     1      53.347   2.018  17.567  0.00  0.00    +0.000 C 
BRANCH   7  10
ATOM      8  C   UNL     1      54.122  -0.080  18.566  0.00  0.00    +0.000 C 
ATOM      9  O   UNL     1      54.513   0.488  19.581  0.00  0.00    +0.000 OA
ATOM     10  N   UNL     1      53.537   0.584  17.508  0.00  0.00    +0.000 N 
ATOM     11  H   UNL     1      53.058   0.069  16.781  0.00  0.00    +0.000 HD
BRANCH   8  17
ATOM     12  C   UNL     1      52.982  -4.803  19.954  0.00  0.00    +0.000 C 
ATOM     13  C   UNL     1      53.714  -3.825  19.091  0.00  0.00    +0.000 A 
ATOM     14  C   UNL     1      54.554  -4.250  18.066  0.00  0.00    +0.000 A 
ATOM     15  N   UNL     1      55.221  -3.411  17.241  0.00  0.00    +0.000 NA
ATOM     16  C   UNL     1      55.042  -2.083  17.445  0.00  0.00    +0.000 A 
ATOM     17  C   UNL     1      54.245  -1.552  18.453  0.00  0.00    +0.000 A 
ATOM     18  C   UNL     1      53.563  -2.445  19.283  0.00  0.00    +0.000 A 
ENDBRANCH   8  17
ENDBRANCH   7  10
ENDBRANCH   1   7
BRANCH   4  19
ATOM     19  C   UNL     1      47.698   3.490  17.301  0.00  0.00    +0.000 C 
BRANCH  19  20
ATOM     20  N   UNL     1      47.474   4.552  16.352  0.00  0.00    +0.000 N 
ATOM     21  C   UNL     1      47.344   4.288  15.012  0.00  0.00    +0.000 C 
ATOM     22  O   UNL     1      47.370   3.140  14.571  0.00  0.00    +0.000 OA
ATOM     23  H   UNL     1      47.674   5.499  16.659  0.00  0.00    +0.000 HD
BRANCH  21  24
ATOM     24  C   UNL     1      47.114   5.440  14.130  0.00  0.00    +0.000 A 
ATOM     25  C   UNL     1      48.039   6.477  14.097  0.00  0.00    +0.000 A 
ATOM     26  S   UNL     1      47.649   7.709  12.984  0.00  0.00    +0.000 S 
ATOM     27  C   UNL     1      46.203   6.927  12.545  0.00  0.00    +0.000 A 
ATOM     28  N   UNL     1      45.361   7.479  11.628  0.00  0.00    +0.000 NA
ATOM     29  C   UNL     1      44.285   6.797  11.414  0.00  0.00    +0.000 A 
ATOM     30  N   UNL     1      43.978   5.611  12.028  0.00  0.00    +0.000 N 
ATOM     31  C   UNL     1      44.811   5.002  12.937  0.00  0.00    +0.000 A 
ATOM     32  O   UNL     1      44.525   3.920  13.438  0.00  0.00    +0.000 OA
ATOM     33  C   UNL     1      46.029   5.734  13.224  0.00  0.00    +0.000 A 
ATOM     34  H   UNL     1      43.122   5.123  11.811  0.00  0.00    +0.000 HD
ENDBRANCH  21  24
ENDBRANCH  19  20
ENDBRANCH   4  19
TORSDOF 6
ENDMDL
