MODEL 1
REMARK VINA RESULT:    -7.215      0.000      0.000
REMARK INTER + INTRA:         -11.415
REMARK INTER:                 -10.167
REMARK INTRA:                  -1.247
REMARK UNBOUND:                -1.247
REMARK  Name = 
REMARK  8 active torsions:
REMARK  status: ('A' for Active; 'I' for Inactive)
REMARK    1  A    between atoms: C_1  and  O_2
REMARK    2  A    between atoms: O_2  and  C_3
REMARK    3  A    between atoms: C_5  and  O_6
REMARK    4  A    between atoms: O_6  and  C_7
REMARK    5  A    between atoms: C_7  and  C_8
REMARK    6  A    between atoms: C_8  and  C_9
REMARK    7  A    between atoms: C_13  and  C_14
REMARK    8  A    between atoms: C_24  and  C_25
REMARK                            x       y       z     vdW  Elec       q    Type
REMARK                         _______ _______ _______ _____ _____    ______ ____
ROOT
ATOM      1  C   UNL     1      43.175   4.362  10.849  0.00  0.00    +0.000 C 
ENDROOT
BRANCH   1   2
ATOM      2  O   UNL     1      43.581   3.012  10.570  0.00  0.00    +0.000 OA
BRANCH   2   5
ATOM      3  C   UNL     1      46.154   1.756   8.307  0.00  0.00    +0.000 A 
ATOM      4  C   UNL     1      45.231   1.814   9.360  0.00  0.00    +0.000 A 
ATOM      5  C   UNL     1      44.464   2.960   9.507  0.00  0.00    +0.000 A 
ATOM      6  N   UNL     1      44.551   4.022   8.684  0.00  0.00    +0.000 NA
ATOM      7  C   UNL     1      45.447   3.949   7.676  0.00  0.00    +0.000 A 
ATOM      8  C   UNL     1      46.274   2.858   7.444  0.00  0.00    +0.000 A 
BRANCH   8   9
ATOM      9  C   UNL     1      47.199   2.979   6.286  0.00  0.00    +0.000 C 
ATOM     10  N   UNL     1      48.502   2.639   6.460  0.00  0.00    +0.000 N 
ATOM     11  O   UNL     1      46.808   3.366   5.191  0.00  0.00    +0.000 OA
ATOM     12  H   UNL     1      48.864   2.367   7.368  0.00  0.00    +0.000 HD
ATOM     13  H   UNL     1      49.137   2.759   5.679  0.00  0.00    +0.000 HD
ENDBRANCH   8   9
BRANCH   3  15
ATOM     14  C   UNL     1      46.435  -0.479   7.512  0.00  0.00    +0.000 C 
ATOM     15  O   UNL     1      46.997   0.690   8.101  0.00  0.00    +0.000 OA
ENDBRANCH   3  15
ENDBRANCH   2   5
ENDBRANCH   1   2
BRANCH   1  16
ATOM     16  C   UNL     1      43.435   4.689  12.314  0.00  0.00    +0.000 C 
BRANCH  16  17
ATOM     17  C   UNL     1      44.891   5.017  12.579  0.00  0.00    +0.000 A 
ATOM     18  C   UNL     1      45.653   4.091  13.304  0.00  0.00    +0.000 A 
ATOM     19  C   UNL     1      46.978   4.360  13.616  0.00  0.00    +0.000 A 
ATOM     20  C   UNL     1      47.545   5.583  13.251  0.00  0.00    +0.000 A 
ATOM     21  C   UNL     1      46.835   6.552  12.507  0.00  0.00    +0.000 A 
ATOM     22  C   UNL     1      45.510   6.207  12.120  0.00  0.00    +0.000 A 
ATOM     23 CL   UNL     1      44.624   7.186  10.979  0.00  0.00    +0.000 Cl
BRANCH  21  24
ATOM     24  C   UNL     1      47.494   7.864  12.219  0.00  0.00    +0.000 A 
ATOM     25  C   UNL     1      48.794   7.939  11.679  0.00  0.00    +0.000 A 
ATOM     26  C   UNL     1      49.432   9.168  11.459  0.00  0.00    +0.000 A 
ATOM     27  C   UNL     1      48.774  10.360  11.742  0.00  0.00    +0.000 A 
ATOM     28  C   UNL     1      47.494  10.320  12.277  0.00  0.00    +0.000 A 
ATOM     29  C   UNL     1      46.881   9.090  12.541  0.00  0.00    +0.000 A 
ENDBRANCH  21  24
ENDBRANCH  16  17
ENDBRANCH   1  16
TORSDOF 7
ENDMDL
MODEL 2
REMARK VINA RESULT:    -7.209      4.368      8.103
REMARK INTER + INTRA:         -11.407
REMARK INTER:                 -10.798
REMARK INTRA:                  -0.610
REMARK UNBOUND:                -1.247
REMARK  Name = 
REMARK  8 active torsions:
REMARK  status: ('A' for Active; 'I' for Inactive)
REMARK    1  A    between atoms: C_1  and  O_2
REMARK    2  A    between atoms: O_2  and  C_3
REMARK    3  A    between atoms: C_5  and  O_6
REMARK    4  A    between atoms: O_6  and  C_7
REMARK    5  A    between atoms: C_7  and  C_8
REMARK    6  A    between atoms: C_8  and  C_9
REMARK    7  A    between atoms: C_13  and  C_14
REMARK    8  A    between atoms: C_24  and  C_25
REMARK                            x       y       z     vdW  Elec       q    Type
REMARK                         _______ _______ _______ _____ _____    ______ ____
ROOT
ATOM      1  C   UNL     1      46.309   5.863  13.228  0.00  0.00    +0.000 C 
ENDROOT
BRANCH   1   2
ATOM      2  O   UNL     1      46.552   4.486  13.560  0.00  0.00    +0.000 OA
BRANCH   2   5
ATOM      3  C   UNL     1      48.386   5.427  16.572  0.00  0.00    +0.000 A 
ATOM      4  C   UNL     1      47.681   5.530  15.365  0.00  0.00    +0.000 A 
ATOM      5  C   UNL     1      47.219   4.367  14.766  0.00  0.00    +0.000 A 
ATOM      6  N   UNL     1      47.404   3.140  15.286  0.00  0.00    +0.000 NA
ATOM      7  C   UNL     1      48.087   3.060  16.449  0.00  0.00    +0.000 A 
ATOM      8  C   UNL     1      48.605   4.156  17.126  0.00  0.00    +0.000 A 
BRANCH   8   9
ATOM      9  C   UNL     1      49.335   3.853  18.387  0.00  0.00    +0.000 C 
ATOM     10  N   UNL     1      48.612   3.576  19.503  0.00  0.00    +0.000 N 
ATOM     11  O   UNL     1      50.559   3.842  18.432  0.00  0.00    +0.000 OA
ATOM     12  H   UNL     1      47.599   3.630  19.507  0.00  0.00    +0.000 HD
ATOM     13  H   UNL     1      49.112   3.408  20.369  0.00  0.00    +0.000 HD
ENDBRANCH   8   9
BRANCH   3  15
ATOM     14  C   UNL     1      48.840   7.772  16.571  0.00  0.00    +0.000 C 
ATOM     15  O   UNL     1      48.929   6.509  17.222  0.00  0.00    +0.000 OA
ENDBRANCH   3  15
ENDBRANCH   2   5
ENDBRANCH   1   2
BRANCH   1  16
ATOM     16  C   UNL     1      44.955   5.999  12.543  0.00  0.00    +0.000 C 
BRANCH  16  17
ATOM     17  C   UNL     1      44.605   4.777  11.716  0.00  0.00    +0.000 A 
ATOM     18  C   UNL     1      43.657   3.883  12.233  0.00  0.00    +0.000 A 
ATOM     19  C   UNL     1      43.333   2.724  11.541  0.00  0.00    +0.000 A 
ATOM     20  C   UNL     1      43.989   2.418  10.347  0.00  0.00    +0.000 A 
ATOM     21  C   UNL     1      44.942   3.286   9.767  0.00  0.00    +0.000 A 
ATOM     22  C   UNL     1      45.184   4.510  10.450  0.00  0.00    +0.000 A 
ATOM     23 CL   UNL     1      46.124   5.781   9.711  0.00  0.00    +0.000 Cl
BRANCH  21  24
ATOM     24  C   UNL     1      45.650   2.848   8.523  0.00  0.00    +0.000 A 
ATOM     25  C   UNL     1      46.193   1.553   8.395  0.00  0.00    +0.000 A 
ATOM     26  C   UNL     1      46.902   1.160   7.250  0.00  0.00    +0.000 A 
ATOM     27  C   UNL     1      47.060   2.042   6.187  0.00  0.00    +0.000 A 
ATOM     28  C   UNL     1      46.539   3.325   6.283  0.00  0.00    +0.000 A 
ATOM     29  C   UNL     1      45.876   3.728   7.447  0.00  0.00    +0.000 A 
ENDBRANCH  21  24
ENDBRANCH  16  17
ENDBRANCH   1  16
TORSDOF 7
ENDMDL
MODEL 3
REMARK VINA RESULT:    -7.134      3.435      7.104
REMARK INTER + INTRA:         -11.301
REMARK INTER:                 -10.450
REMARK INTRA:                  -0.851
REMARK UNBOUND:                -1.247
REMARK  Name = 
REMARK  8 active torsions:
REMARK  status: ('A' for Active; 'I' for Inactive)
REMARK    1  A    between atoms: C_1  and  O_2
REMARK    2  A    between atoms: O_2  and  C_3
REMARK    3  A    between atoms: C_5  and  O_6
REMARK    4  A    between atoms: O_6  and  C_7
REMARK    5  A    between atoms: C_7  and  C_8
REMARK    6  A    between atoms: C_8  and  C_9
REMARK    7  A    between atoms: C_13  and  C_14
REMARK    8  A    between atoms: C_24  and  C_25
REMARK                            x       y       z     vdW  Elec       q    Type
REMARK                         _______ _______ _______ _____ _____    ______ ____
ROOT
ATOM      1  C   UNL     1      43.717   2.902  12.279  0.00  0.00    +0.000 C 
ENDROOT
BRANCH   1   2
ATOM      2  O   UNL     1      43.680   3.899  13.314  0.00  0.00    +0.000 OA
BRANCH   2   5
ATOM      3  C   UNL     1      46.004   6.713  13.205  0.00  0.00    +0.000 A 
ATOM      4  C   UNL     1      44.808   5.981  13.180  0.00  0.00    +0.000 A 
ATOM      5  C   UNL     1      44.867   4.609  13.372  0.00  0.00    +0.000 A 
ATOM      6  N   UNL     1      46.013   3.938  13.592  0.00  0.00    +0.000 NA
ATOM      7  C   UNL     1      47.155   4.659  13.611  0.00  0.00    +0.000 A 
ATOM      8  C   UNL     1      47.214   6.032  13.417  0.00  0.00    +0.000 A 
BRANCH   8   9
ATOM      9  C   UNL     1      48.572   6.637  13.467  0.00  0.00    +0.000 C 
ATOM     10  N   UNL     1      49.013   7.328  12.384  0.00  0.00    +0.000 N 
ATOM     11  O   UNL     1      49.285   6.531  14.457  0.00  0.00    +0.000 OA
ATOM     12  H   UNL     1      48.466   7.386  11.532  0.00  0.00    +0.000 HD
ATOM     13  H   UNL     1      49.954   7.706  12.407  0.00  0.00    +0.000 HD
ENDBRANCH   8   9
BRANCH   3  15
ATOM     14  C   UNL     1      45.318   8.575  11.877  0.00  0.00    +0.000 C 
ATOM     15  O   UNL     1      46.064   8.066  12.978  0.00  0.00    +0.000 OA
ENDBRANCH   3  15
ENDBRANCH   2   5
ENDBRANCH   1   2
BRANCH   1  16
ATOM     16  C   UNL     1      43.232   3.502  10.965  0.00  0.00    +0.000 C 
BRANCH  16  17
ATOM     17  C   UNL     1      44.379   3.874  10.047  0.00  0.00    +0.000 A 
ATOM     18  C   UNL     1      44.913   5.166  10.151  0.00  0.00    +0.000 A 
ATOM     19  C   UNL     1      45.932   5.577   9.303  0.00  0.00    +0.000 A 
ATOM     20  C   UNL     1      46.398   4.718   8.306  0.00  0.00    +0.000 A 
ATOM     21  C   UNL     1      45.912   3.399   8.159  0.00  0.00    +0.000 A 
ATOM     22  C   UNL     1      44.936   2.975   9.102  0.00  0.00    +0.000 A 
ATOM     23 CL   UNL     1      44.453   1.301   9.205  0.00  0.00    +0.000 Cl
BRANCH  21  24
ATOM     24  C   UNL     1      46.414   2.570   7.019  0.00  0.00    +0.000 A 
ATOM     25  C   UNL     1      46.845   1.239   7.202  0.00  0.00    +0.000 A 
ATOM     26  C   UNL     1      47.365   0.480   6.144  0.00  0.00    +0.000 A 
ATOM     27  C   UNL     1      47.437   1.019   4.864  0.00  0.00    +0.000 A 
ATOM     28  C   UNL     1      47.023   2.327   4.651  0.00  0.00    +0.000 A 
ATOM     29  C   UNL     1      46.552   3.096   5.721  0.00  0.00    +0.000 A 
ENDBRANCH  21  24
ENDBRANCH  16  17
ENDBRANCH   1  16
TORSDOF 7
ENDMDL
MODEL 4
REMARK VINA RESULT:    -6.750      5.512      7.605
REMARK INTER + INTRA:         -10.760
REMARK INTER:                  -9.715
REMARK INTRA:                  -1.046
REMARK UNBOUND:                -1.247
REMARK  Name = 
REMARK  8 active torsions:
REMARK  status: ('A' for Active; 'I' for Inactive)
REMARK    1  A    between atoms: C_1  and  O_2
REMARK    2  A    between atoms: O_2  and  C_3
REMARK    3  A    between atoms: C_5  and  O_6
REMARK    4  A    between atoms: O_6  and  C_7
REMARK    5  A    between atoms: C_7  and  C_8
REMARK    6  A    between atoms: C_8  and  C_9
REMARK    7  A    between atoms: C_13  and  C_14
REMARK    8  A    between atoms: C_24  and  C_25
REMARK                            x       y       z     vdW  Elec       q    Type
REMARK                         _______ _______ _______ _____ _____    ______ ____
ROOT
ATOM      1  C   UNL     1      47.266   4.311  15.890  0.00  0.00    +0.000 C 
ENDROOT
BRANCH   1   2
ATOM      2  O   UNL     1      47.453   3.483  14.731  0.00  0.00    +0.000 OA
BRANCH   2   5
ATOM      3  C   UNL     1      45.906   5.666  12.249  0.00  0.00    +0.000 A 
ATOM      4  C   UNL     1      46.733   5.223  13.290  0.00  0.00    +0.000 A 
ATOM      5  C   UNL     1      46.652   3.895  13.681  0.00  0.00    +0.000 A 
ATOM      6  N   UNL     1      45.825   3.000  13.108  0.00  0.00    +0.000 NA
ATOM      7  C   UNL     1      45.034   3.446  12.108  0.00  0.00    +0.000 A 
ATOM      8  C   UNL     1      45.024   4.755  11.645  0.00  0.00    +0.000 A 
BRANCH   8   9
ATOM      9  C   UNL     1      44.071   5.045  10.540  0.00  0.00    +0.000 C 
ATOM     10  N   UNL     1      43.187   6.062  10.698  0.00  0.00    +0.000 N 
ATOM     11  O   UNL     1      44.078   4.395   9.501  0.00  0.00    +0.000 OA
ATOM     12  H   UNL     1      43.123   6.581  11.567  0.00  0.00    +0.000 HD
ATOM     13  H   UNL     1      42.514   6.233   9.958  0.00  0.00    +0.000 HD
ENDBRANCH   8   9
BRANCH   3  15
ATOM     14  C   UNL     1      45.515   7.963  12.773  0.00  0.00    +0.000 C 
ATOM     15  O   UNL     1      45.871   6.969  11.816  0.00  0.00    +0.000 OA
ENDBRANCH   3  15
ENDBRANCH   2   5
ENDBRANCH   1   2
BRANCH   1  16
ATOM     16  C   UNL     1      47.407   3.473  17.154  0.00  0.00    +0.000 C 
BRANCH  16  17
ATOM     17  C   UNL     1      48.629   3.858  17.965  0.00  0.00    +0.000 A 
ATOM     18  C   UNL     1      48.467   4.792  18.997  0.00  0.00    +0.000 A 
ATOM     19  C   UNL     1      49.560   5.215  19.740  0.00  0.00    +0.000 A 
ATOM     20  C   UNL     1      50.839   4.749  19.428  0.00  0.00    +0.000 A 
ATOM     21  C   UNL     1      51.066   3.796  18.409  0.00  0.00    +0.000 A 
ATOM     22  C   UNL     1      49.916   3.309  17.729  0.00  0.00    +0.000 A 
ATOM     23 CL   UNL     1      50.022   1.945  16.646  0.00  0.00    +0.000 Cl
BRANCH  21  24
ATOM     24  C   UNL     1      52.475   3.404  18.092  0.00  0.00    +0.000 A 
ATOM     25  C   UNL     1      53.430   4.349  17.664  0.00  0.00    +0.000 A 
ATOM     26  C   UNL     1      54.735   3.974  17.316  0.00  0.00    +0.000 A 
ATOM     27  C   UNL     1      55.133   2.646  17.418  0.00  0.00    +0.000 A 
ATOM     28  C   UNL     1      54.216   1.690  17.834  0.00  0.00    +0.000 A 
ATOM     29  C   UNL     1      52.901   2.063  18.132  0.00  0.00    +0.000 A 
ENDBRANCH  21  24
ENDBRANCH  16  17
ENDBRANCH   1  16
TORSDOF 7
ENDMDL
MODEL 5
REMARK VINA RESULT:    -6.613      5.585      7.575
REMARK INTER + INTRA:         -10.567
REMARK INTER:                  -9.518
REMARK INTRA:                  -1.049
REMARK UNBOUND:                -1.247
REMARK  Name = 
REMARK  8 active torsions:
REMARK  status: ('A' for Active; 'I' for Inactive)
REMARK    1  A    between atoms: C_1  and  O_2
REMARK    2  A    between atoms: O_2  and  C_3
REMARK    3  A    between atoms: C_5  and  O_6
REMARK    4  A    between atoms: O_6  and  C_7
REMARK    5  A    between atoms: C_7  and  C_8
REMARK    6  A    between atoms: C_8  and  C_9
REMARK    7  A    between atoms: C_13  and  C_14
REMARK    8  A    between atoms: C_24  and  C_25
REMARK                            x       y       z     vdW  Elec       q    Type
REMARK                         _______ _______ _______ _____ _____    ______ ____
ROOT
ATOM      1  C   UNL     1      47.395   4.278  15.784  0.00  0.00    +0.000 C 
ENDROOT
BRANCH   1   2
ATOM      2  O   UNL     1      47.366   3.489  14.584  0.00  0.00    +0.000 OA
BRANCH   2   5
ATOM      3  C   UNL     1      45.276   5.850  12.745  0.00  0.00    +0.000 A 
ATOM      4  C   UNL     1      46.241   5.345  13.627  0.00  0.00    +0.000 A 
ATOM      5  C   UNL     1      46.431   3.972  13.685  0.00  0.00    +0.000 A 
ATOM      6  N   UNL     1      45.743   3.094  12.932  0.00  0.00    +0.000 NA
ATOM      7  C   UNL     1      44.816   3.600  12.089  0.00  0.00    +0.000 A 
ATOM      8  C   UNL     1      44.535   4.953  11.960  0.00  0.00    +0.000 A 
BRANCH   8   9
ATOM      9  C   UNL     1      43.470   5.303  10.981  0.00  0.00    +0.000 C 
ATOM     10  N   UNL     1      42.533   6.216  11.344  0.00  0.00    +0.000 N 
ATOM     11  O   UNL     1      43.432   4.796   9.867  0.00  0.00    +0.000 OA
ATOM     12  H   UNL     1      42.510   6.613  12.278  0.00  0.00    +0.000 HD
ATOM     13  H   UNL     1      41.788   6.425  10.689  0.00  0.00    +0.000 HD
ENDBRANCH   8   9
BRANCH   3  15
ATOM     14  C   UNL     1      46.032   8.112  12.873  0.00  0.00    +0.000 C 
ATOM     15  O   UNL     1      44.974   7.187  12.644  0.00  0.00    +0.000 OA
ENDBRANCH   3  15
ENDBRANCH   2   5
ENDBRANCH   1   2
BRANCH   1  16
ATOM     16  C   UNL     1      47.647   3.380  16.989  0.00  0.00    +0.000 C 
BRANCH  16  17
ATOM     17  C   UNL     1      49.125   3.206  17.276  0.00  0.00    +0.000 A 
ATOM     18  C   UNL     1      49.742   2.020  16.857  0.00  0.00    +0.000 A 
ATOM     19  C   UNL     1      51.082   1.787  17.135  0.00  0.00    +0.000 A 
ATOM     20  C   UNL     1      51.811   2.716  17.881  0.00  0.00    +0.000 A 
ATOM     21  C   UNL     1      51.251   3.937  18.319  0.00  0.00    +0.000 A 
ATOM     22  C   UNL     1      49.904   4.189  17.938  0.00  0.00    +0.000 A 
ATOM     23 CL   UNL     1      49.182   5.760  18.177  0.00  0.00    +0.000 Cl
BRANCH  21  24
ATOM     24  C   UNL     1      52.080   4.843  19.175  0.00  0.00    +0.000 A 
ATOM     25  C   UNL     1      52.805   5.921  18.628  0.00  0.00    +0.000 A 
ATOM     26  C   UNL     1      53.624   6.738  19.421  0.00  0.00    +0.000 A 
ATOM     27  C   UNL     1      53.714   6.519  20.792  0.00  0.00    +0.000 A 
ATOM     28  C   UNL     1      53.013   5.464  21.361  0.00  0.00    +0.000 A 
ATOM     29  C   UNL     1      52.237   4.622  20.556  0.00  0.00    +0.000 A 
ENDBRANCH  21  24
ENDBRANCH  16  17
ENDBRANCH   1  16
TORSDOF 7
ENDMDL
MODEL 6
REMARK VINA RESULT:    -6.375      4.731      6.682
REMARK INTER + INTRA:         -10.231
REMARK INTER:                  -9.448
REMARK INTRA:                  -0.783
REMARK UNBOUND:                -1.247
REMARK  Name = 
REMARK  8 active torsions:
REMARK  status: ('A' for Active; 'I' for Inactive)
REMARK    1  A    between atoms: C_1  and  O_2
REMARK    2  A    between atoms: O_2  and  C_3
REMARK    3  A    between atoms: C_5  and  O_6
REMARK    4  A    between atoms: O_6  and  C_7
REMARK    5  A    between atoms: C_7  and  C_8
REMARK    6  A    between atoms: C_8  and  C_9
REMARK    7  A    between atoms: C_13  and  C_14
REMARK    8  A    between atoms: C_24  and  C_25
REMARK                            x       y       z     vdW  Elec       q    Type
REMARK                         _______ _______ _______ _____ _____    ______ ____
ROOT
ATOM      1  C   UNL     1      47.347   3.630  15.867  0.00  0.00    +0.000 C 
ENDROOT
BRANCH   1   2
ATOM      2  O   UNL     1      47.640   3.468  14.469  0.00  0.00    +0.000 OA
BRANCH   2   5
ATOM      3  C   UNL     1      45.313   5.805  12.906  0.00  0.00    +0.000 A 
ATOM      4  C   UNL     1      46.374   5.309  13.677  0.00  0.00    +0.000 A 
ATOM      5  C   UNL     1      46.609   3.942  13.679  0.00  0.00    +0.000 A 
ATOM      6  N   UNL     1      45.876   3.061  12.972  0.00  0.00    +0.000 NA
ATOM      7  C   UNL     1      44.858   3.557  12.236  0.00  0.00    +0.000 A 
ATOM      8  C   UNL     1      44.526   4.904  12.171  0.00  0.00    +0.000 A 
BRANCH   8   9
ATOM      9  C   UNL     1      43.361   5.244  11.310  0.00  0.00    +0.000 C 
ATOM     10  N   UNL     1      42.351   5.974  11.847  0.00  0.00    +0.000 N 
ATOM     11  O   UNL     1      43.305   4.889  10.139  0.00  0.00    +0.000 OA
ATOM     12  H   UNL     1      42.347   6.236  12.827  0.00  0.00    +0.000 HD
ATOM     13  H   UNL     1      41.542   6.172  11.269  0.00  0.00    +0.000 HD
ENDBRANCH   8   9
BRANCH   3  15
ATOM     14  C   UNL     1      45.967   8.060  12.468  0.00  0.00    +0.000 C 
ATOM     15  O   UNL     1      44.963   7.133  12.871  0.00  0.00    +0.000 OA
ENDBRANCH   3  15
ENDBRANCH   2   5
ENDBRANCH   1   2
BRANCH   1  16
ATOM     16  C   UNL     1      48.643   3.658  16.668  0.00  0.00    +0.000 C 
BRANCH  16  17
ATOM     17  C   UNL     1      48.572   4.618  17.840  0.00  0.00    +0.000 A 
ATOM     18  C   UNL     1      48.591   4.079  19.133  0.00  0.00    +0.000 A 
ATOM     19  C   UNL     1      48.482   4.907  20.242  0.00  0.00    +0.000 A 
ATOM     20  C   UNL     1      48.301   6.281  20.071  0.00  0.00    +0.000 A 
ATOM     21  C   UNL     1      48.288   6.886  18.794  0.00  0.00    +0.000 A 
ATOM     22  C   UNL     1      48.498   6.025  17.682  0.00  0.00    +0.000 A 
ATOM     23 CL   UNL     1      48.774   6.671  16.085  0.00  0.00    +0.000 Cl
BRANCH  21  24
ATOM     24  C   UNL     1      48.017   8.355  18.697  0.00  0.00    +0.000 A 
ATOM     25  C   UNL     1      47.256   9.035  19.671  0.00  0.00    +0.000 A 
ATOM     26  C   UNL     1      46.958  10.400  19.553  0.00  0.00    +0.000 A 
ATOM     27  C   UNL     1      47.441  11.132  18.474  0.00  0.00    +0.000 A 
ATOM     28  C   UNL     1      48.192  10.492  17.498  0.00  0.00    +0.000 A 
ATOM     29  C   UNL     1      48.444   9.119  17.595  0.00  0.00    +0.000 A 
ENDBRANCH  21  24
ENDBRANCH  16  17
ENDBRANCH   1  16
TORSDOF 7
ENDMDL
MODEL 7
REMARK VINA RESULT:    -6.274      5.369      7.335
REMARK INTER + INTRA:         -10.089
REMARK INTER:                  -8.934
REMARK INTRA:                  -1.156
REMARK UNBOUND:                -1.247
REMARK  Name = 
REMARK  8 active torsions:
REMARK  status: ('A' for Active; 'I' for Inactive)
REMARK    1  A    between atoms: C_1  and  O_2
REMARK    2  A    between atoms: O_2  and  C_3
REMARK    3  A    between atoms: C_5  and  O_6
REMARK    4  A    between atoms: O_6  and  C_7
REMARK    5  A    between atoms: C_7  and  C_8
REMARK    6  A    between atoms: C_8  and  C_9
REMARK    7  A    between atoms: C_13  and  C_14
REMARK    8  A    between atoms: C_24  and  C_25
REMARK                            x       y       z     vdW  Elec       q    Type
REMARK                         _______ _______ _______ _____ _____    ______ ____
ROOT
ATOM      1  C   UNL     1      47.459   3.909  15.873  0.00  0.00    +0.000 C 
ENDROOT
BRANCH   1   2
ATOM      2  O   UNL     1      47.817   4.922  14.919  0.00  0.00    +0.000 OA
BRANCH   2   5
ATOM      3  C   UNL     1      45.752   6.522  12.370  0.00  0.00    +0.000 A 
ATOM      4  C   UNL     1      46.770   6.315  13.311  0.00  0.00    +0.000 A 
ATOM      5  C   UNL     1      46.824   5.097  13.972  0.00  0.00    +0.000 A 
ATOM      6  N   UNL     1      45.954   4.094  13.753  0.00  0.00    +0.000 NA
ATOM      7  C   UNL     1      44.978   4.312  12.844  0.00  0.00    +0.000 A 
ATOM      8  C   UNL     1      44.822   5.495  12.135  0.00  0.00    +0.000 A 
BRANCH   8   9
ATOM      9  C   UNL     1      43.677   5.537  11.187  0.00  0.00    +0.000 C 
ATOM     10  N   UNL     1      42.802   6.571  11.275  0.00  0.00    +0.000 N 
ATOM     11  O   UNL     1      43.518   4.672  10.335  0.00  0.00    +0.000 OA
ATOM     12  H   UNL     1      42.879   7.273  12.004  0.00  0.00    +0.000 HD
ATOM     13  H   UNL     1      42.002   6.577  10.652  0.00  0.00    +0.000 HD
ENDBRANCH   8   9
BRANCH   3  15
ATOM     14  C   UNL     1      45.379   8.878  12.480  0.00  0.00    +0.000 C 
ATOM     15  O   UNL     1      45.577   7.706  11.696  0.00  0.00    +0.000 OA
ENDBRANCH   3  15
ENDBRANCH   2   5
ENDBRANCH   1   2
BRANCH   1  16
ATOM     16  C   UNL     1      48.476   3.883  17.007  0.00  0.00    +0.000 C 
BRANCH  16  17
ATOM     17  C   UNL     1      48.889   5.276  17.440  0.00  0.00    +0.000 A 
ATOM     18  C   UNL     1      50.096   5.789  16.945  0.00  0.00    +0.000 A 
ATOM     19  C   UNL     1      50.545   7.040  17.345  0.00  0.00    +0.000 A 
ATOM     20  C   UNL     1      49.819   7.774  18.285  0.00  0.00    +0.000 A 
ATOM     21  C   UNL     1      48.588   7.319  18.809  0.00  0.00    +0.000 A 
ATOM     22  C   UNL     1      48.106   6.078  18.310  0.00  0.00    +0.000 A 
ATOM     23 CL   UNL     1      46.486   5.535  18.664  0.00  0.00    +0.000 Cl
BRANCH  21  24
ATOM     24  C   UNL     1      47.911   8.135  19.866  0.00  0.00    +0.000 A 
ATOM     25  C   UNL     1      47.881   7.725  21.214  0.00  0.00    +0.000 A 
ATOM     26  C   UNL     1      47.202   8.463  22.195  0.00  0.00    +0.000 A 
ATOM     27  C   UNL     1      46.561   9.650  21.860  0.00  0.00    +0.000 A 
ATOM     28  C   UNL     1      46.571  10.080  20.540  0.00  0.00    +0.000 A 
ATOM     29  C   UNL     1      47.208   9.315  19.557  0.00  0.00    +0.000 A 
ENDBRANCH  21  24
ENDBRANCH  16  17
ENDBRANCH   1  16
TORSDOF 7
ENDMDL
MODEL 8
REMARK VINA RESULT:    -6.158      4.842      8.531
REMARK INTER + INTRA:          -9.925
REMARK INTER:                  -8.654
REMARK INTRA:                  -1.271
REMARK UNBOUND:                -1.247
REMARK  Name = 
REMARK  8 active torsions:
REMARK  status: ('A' for Active; 'I' for Inactive)
REMARK    1  A    between atoms: C_1  and  O_2
REMARK    2  A    between atoms: O_2  and  C_3
REMARK    3  A    between atoms: C_5  and  O_6
REMARK    4  A    between atoms: O_6  and  C_7
REMARK    5  A    between atoms: C_7  and  C_8
REMARK    6  A    between atoms: C_8  and  C_9
REMARK    7  A    between atoms: C_13  and  C_14
REMARK    8  A    between atoms: C_24  and  C_25
REMARK                            x       y       z     vdW  Elec       q    Type
REMARK                         _______ _______ _______ _____ _____    ______ ____
ROOT
ATOM      1  C   UNL     1      48.303   9.061  14.754  0.00  0.00    +0.000 C 
ENDROOT
BRANCH   1   2
ATOM      2  O   UNL     1      49.377   8.315  15.349  0.00  0.00    +0.000 OA
BRANCH   2   5
ATOM      3  C   UNL     1      48.217   6.171  18.066  0.00  0.00    +0.000 A 
ATOM      4  C   UNL     1      48.663   7.304  17.373  0.00  0.00    +0.000 A 
ATOM      5  C   UNL     1      48.908   7.194  16.012  0.00  0.00    +0.000 A 
ATOM      6  N   UNL     1      48.731   6.056  15.315  0.00  0.00    +0.000 NA
ATOM      7  C   UNL     1      48.302   4.974  16.000  0.00  0.00    +0.000 A 
ATOM      8  C   UNL     1      48.040   4.968  17.363  0.00  0.00    +0.000 A 
BRANCH   8   9
ATOM      9  C   UNL     1      47.585   3.670  17.930  0.00  0.00    +0.000 C 
ATOM     10  N   UNL     1      48.236   3.173  19.013  0.00  0.00    +0.000 N 
ATOM     11  O   UNL     1      46.640   3.056  17.449  0.00  0.00    +0.000 OA
ATOM     12  H   UNL     1      49.053   3.633  19.400  0.00  0.00    +0.000 HD
ATOM     13  H   UNL     1      47.947   2.270  19.374  0.00  0.00    +0.000 HD
ENDBRANCH   8   9
BRANCH   3  15
ATOM     14  C   UNL     1      49.109   6.403  20.269  0.00  0.00    +0.000 C 
ATOM     15  O   UNL     1      47.992   6.157  19.422  0.00  0.00    +0.000 OA
ENDBRANCH   3  15
ENDBRANCH   2   5
ENDBRANCH   1   2
BRANCH   1  16
ATOM     16  C   UNL     1      48.414   9.008  13.236  0.00  0.00    +0.000 C 
BRANCH  16  17
ATOM     17  C   UNL     1      47.078   8.739  12.571  0.00  0.00    +0.000 A 
ATOM     18  C   UNL     1      46.294   9.840  12.200  0.00  0.00    +0.000 A 
ATOM     19  C   UNL     1      45.043   9.651  11.631  0.00  0.00    +0.000 A 
ATOM     20  C   UNL     1      44.536   8.360  11.471  0.00  0.00    +0.000 A 
ATOM     21  C   UNL     1      45.283   7.210  11.811  0.00  0.00    +0.000 A 
ATOM     22  C   UNL     1      46.599   7.431  12.304  0.00  0.00    +0.000 A 
ATOM     23 CL   UNL     1      47.718   6.107  12.504  0.00  0.00    +0.000 Cl
BRANCH  21  24
ATOM     24  C   UNL     1      44.638   5.866  11.675  0.00  0.00    +0.000 A 
ATOM     25  C   UNL     1      43.982   5.245  12.758  0.00  0.00    +0.000 A 
ATOM     26  C   UNL     1      43.423   3.964  12.645  0.00  0.00    +0.000 A 
ATOM     27  C   UNL     1      43.475   3.281  11.435  0.00  0.00    +0.000 A 
ATOM     28  C   UNL     1      44.116   3.864  10.351  0.00  0.00    +0.000 A 
ATOM     29  C   UNL     1      44.715   5.122  10.483  0.00  0.00    +0.000 A 
ENDBRANCH  21  24
ENDBRANCH  16  17
ENDBRANCH   1  16
TORSDOF 7
ENDMDL
MODEL 9
REMARK VINA RESULT:    -6.063      5.164      7.763
REMARK INTER + INTRA:          -9.791
REMARK INTER:                  -8.832
REMARK INTRA:                  -0.958
REMARK UNBOUND:                -1.247
REMARK  Name = 
REMARK  8 active torsions:
REMARK  status: ('A' for Active; 'I' for Inactive)
REMARK    1  A    between atoms: C_1  and  O_2
REMARK    2  A    between atoms: O_2  and  C_3
REMARK    3  A    between atoms: C_5  and  O_6
REMARK    4  A    between atoms: O_6  and  C_7
REMARK    5  A    between atoms: C_7  and  C_8
REMARK    6  A    between atoms: C_8  and  C_9
REMARK    7  A    between atoms: C_13  and  C_14
REMARK    8  A    between atoms: C_24  and  C_25
REMARK                            x       y       z     vdW  Elec       q    Type
REMARK                         _______ _______ _______ _____ _____    ______ ____
ROOT
ATOM      1  C   UNL     1      48.479   7.314  15.365  0.00  0.00    +0.000 C 
ENDROOT
BRANCH   1   2
ATOM      2  O   UNL     1      48.794   6.184  14.535  0.00  0.00    +0.000 OA
BRANCH   2   5
ATOM      3  C   UNL     1      46.071   6.430  12.118  0.00  0.00    +0.000 A 
ATOM      4  C   UNL     1      47.183   6.773  12.898  0.00  0.00    +0.000 A 
ATOM      5  C   UNL     1      47.715   5.817  13.750  0.00  0.00    +0.000 A 
ATOM      6  N   UNL     1      47.225   4.569  13.865  0.00  0.00    +0.000 NA
ATOM      7  C   UNL     1      46.152   4.256  13.106  0.00  0.00    +0.000 A 
ATOM      8  C   UNL     1      45.532   5.137  12.231  0.00  0.00    +0.000 A 
BRANCH   8   9
ATOM      9  C   UNL     1      44.357   4.600  11.494  0.00  0.00    +0.000 C 
ATOM     10  N   UNL     1      44.128   5.042  10.230  0.00  0.00    +0.000 N 
ATOM     11  O   UNL     1      43.608   3.773  11.998  0.00  0.00    +0.000 OA
ATOM     12  H   UNL     1      44.701   5.765   9.808  0.00  0.00    +0.000 HD
ATOM     13  H   UNL     1      43.305   4.702   9.745  0.00  0.00    +0.000 HD
ENDBRANCH   8   9
BRANCH   3  15
ATOM     14  C   UNL     1      45.039   8.565  11.830  0.00  0.00    +0.000 C 
ATOM     15  O   UNL     1      45.436   7.313  11.278  0.00  0.00    +0.000 OA
ENDBRANCH   3  15
ENDBRANCH   2   5
ENDBRANCH   1   2
BRANCH   1  16
ATOM     16  C   UNL     1      48.847   7.012  16.812  0.00  0.00    +0.000 C 
BRANCH  16  17
ATOM     17  C   UNL     1      48.959   5.523  17.078  0.00  0.00    +0.000 A 
ATOM     18  C   UNL     1      47.774   4.794  17.244  0.00  0.00    +0.000 A 
ATOM     19  C   UNL     1      47.818   3.437  17.536  0.00  0.00    +0.000 A 
ATOM     20  C   UNL     1      49.049   2.802  17.715  0.00  0.00    +0.000 A 
ATOM     21  C   UNL     1      50.278   3.479  17.545  0.00  0.00    +0.000 A 
ATOM     22  C   UNL     1      50.201   4.844  17.154  0.00  0.00    +0.000 A 
ATOM     23 CL   UNL     1      51.627   5.716  16.650  0.00  0.00    +0.000 Cl
BRANCH  21  24
ATOM     24  C   UNL     1      51.550   2.742  17.826  0.00  0.00    +0.000 A 
ATOM     25  C   UNL     1      51.732   1.400  17.433  0.00  0.00    +0.000 A 
ATOM     26  C   UNL     1      52.903   0.692  17.743  0.00  0.00    +0.000 A 
ATOM     27  C   UNL     1      53.939   1.318  18.426  0.00  0.00    +0.000 A 
ATOM     28  C   UNL     1      53.791   2.639  18.828  0.00  0.00    +0.000 A 
ATOM     29  C   UNL     1      52.600   3.324  18.560  0.00  0.00    +0.000 A 
ENDBRANCH  21  24
ENDBRANCH  16  17
ENDBRANCH   1  16
TORSDOF 7
ENDMDL
