MODEL 1
REMARK VINA RESULT:    -7.994      0.000      0.000
REMARK INTER + INTRA:         -11.796
REMARK INTER:                 -10.798
REMARK INTRA:                  -0.998
REMARK UNBOUND:                -0.998
REMARK  Name = 
REMARK  6 active torsions:
REMARK  status: ('A' for Active; 'I' for Inactive)
REMARK    1  A    between atoms: C_2  and  C_4
REMARK    2  A    between atoms: C_7  and  O_8
REMARK    3  A    between atoms: O_8  and  C_9
REMARK    4  A    between atoms: C_9  and  C_10
REMARK    5  A    between atoms: C_10  and  C_11
REMARK    6  A    between atoms: C_15  and  C_16
REMARK                            x       y       z     vdW  Elec       q    Type
REMARK                         _______ _______ _______ _____ _____    ______ ____
ROOT
ATOM      1  C   UNL     1      43.571   4.858  10.713  0.00  0.00    +0.000 C 
ENDROOT
BRANCH   1   2
ATOM      2  O   UNL     1      43.585   3.513  10.227  0.00  0.00    +0.000 OA
BRANCH   2   6
ATOM      3  C   UNL     1      46.488   2.307   7.579  0.00  0.00    +0.000 A 
ATOM      4  C   UNL     1      46.138   3.654   7.545  0.00  0.00    +0.000 A 
ATOM      5  C   UNL     1      45.155   4.108   8.424  0.00  0.00    +0.000 A 
ATOM      6  C   UNL     1      44.552   3.215   9.307  0.00  0.00    +0.000 A 
ATOM      7  C   UNL     1      44.965   1.885   9.255  0.00  0.00    +0.000 A 
ATOM      8  N   UNL     1      45.914   1.400   8.414  0.00  0.00    +0.000 NA
BRANCH   3  10
ATOM      9  N   UNL     1      48.590   2.652   6.424  0.00  0.00    +0.000 N 
ATOM     10  C   UNL     1      47.544   1.801   6.647  0.00  0.00    +0.000 C 
ATOM     11  O   UNL     1      47.483   0.700   6.115  0.00  0.00    +0.000 OA
ATOM     12  H   UNL     1      49.339   2.373   5.809  0.00  0.00    +0.000 HD
ATOM     13  H   UNL     1      48.608   3.556   6.884  0.00  0.00    +0.000 HD
ENDBRANCH   3  10
ENDBRANCH   2   6
ENDBRANCH   1   2
BRANCH   1  14
ATOM     14  C   UNL     1      43.798   4.849  12.226  0.00  0.00    +0.000 C 
BRANCH  14  15
ATOM     15  C   UNL     1      45.218   5.240  12.552  0.00  0.00    +0.000 A 
ATOM     16  C   UNL     1      45.915   6.142  11.744  0.00  0.00    +0.000 A 
ATOM     17  C   UNL     1      47.196   6.550  12.103  0.00  0.00    +0.000 A 
ATOM     18  C   UNL     1      47.780   6.081  13.283  0.00  0.00    +0.000 A 
ATOM     19  C   UNL     1      47.096   5.203  14.142  0.00  0.00    +0.000 A 
ATOM     20  C   UNL     1      45.818   4.776  13.734  0.00  0.00    +0.000 A 
BRANCH  19  21
ATOM     21  C   UNL     1      47.646   4.812  15.463  0.00  0.00    +0.000 A 
ATOM     22  C   UNL     1      48.439   5.704  16.210  0.00  0.00    +0.000 A 
ATOM     23  C   UNL     1      48.882   5.389  17.498  0.00  0.00    +0.000 A 
ATOM     24  C   UNL     1      48.536   4.172  18.074  0.00  0.00    +0.000 A 
ATOM     25  C   UNL     1      47.770   3.262  17.353  0.00  0.00    +0.000 A 
ATOM     26  C   UNL     1      47.341   3.574  16.059  0.00  0.00    +0.000 A 
ENDBRANCH  19  21
ENDBRANCH  14  15
ENDBRANCH   1  14
TORSDOF 6
ENDMDL
MODEL 2
REMARK VINA RESULT:    -7.954      1.931      3.770
REMARK INTER + INTRA:         -11.743
REMARK INTER:                 -10.581
REMARK INTRA:                  -1.162
REMARK UNBOUND:                -0.998
REMARK  Name = 
REMARK  6 active torsions:
REMARK  status: ('A' for Active; 'I' for Inactive)
REMARK    1  A    between atoms: C_2  and  C_4
REMARK    2  A    between atoms: C_7  and  O_8
REMARK    3  A    between atoms: O_8  and  C_9
REMARK    4  A    between atoms: C_9  and  C_10
REMARK    5  A    between atoms: C_10  and  C_11
REMARK    6  A    between atoms: C_15  and  C_16
REMARK                            x       y       z     vdW  Elec       q    Type
REMARK                         _______ _______ _______ _____ _____    ______ ____
ROOT
ATOM      1  C   UNL     1      43.191   4.757  10.892  0.00  0.00    +0.000 C 
ENDROOT
BRANCH   1   2
ATOM      2  O   UNL     1      43.577   3.428  10.530  0.00  0.00    +0.000 OA
BRANCH   2   6
ATOM      3  C   UNL     1      46.444   2.779   7.658  0.00  0.00    +0.000 A 
ATOM      4  C   UNL     1      46.124   4.107   7.926  0.00  0.00    +0.000 A 
ATOM      5  C   UNL     1      45.153   4.375   8.891  0.00  0.00    +0.000 A 
ATOM      6  C   UNL     1      44.534   3.321   9.559  0.00  0.00    +0.000 A 
ATOM      7  C   UNL     1      44.918   2.027   9.211  0.00  0.00    +0.000 A 
ATOM      8  N   UNL     1      45.853   1.721   8.276  0.00  0.00    +0.000 NA
BRANCH   3  10
ATOM      9  N   UNL     1      47.326   3.094   5.422  0.00  0.00    +0.000 N 
ATOM     10  C   UNL     1      47.486   2.471   6.628  0.00  0.00    +0.000 C 
ATOM     11  O   UNL     1      48.423   1.712   6.843  0.00  0.00    +0.000 OA
ATOM     12  H   UNL     1      47.994   2.934   4.684  0.00  0.00    +0.000 HD
ATOM     13  H   UNL     1      46.538   3.718   5.281  0.00  0.00    +0.000 HD
ENDBRANCH   3  10
ENDBRANCH   2   6
ENDBRANCH   1   2
BRANCH   1  14
ATOM     14  C   UNL     1      43.323   4.925  12.406  0.00  0.00    +0.000 C 
BRANCH  14  15
ATOM     15  C   UNL     1      44.753   5.226  12.784  0.00  0.00    +0.000 A 
ATOM     16  C   UNL     1      45.562   4.245  13.360  0.00  0.00    +0.000 A 
ATOM     17  C   UNL     1      46.899   4.517  13.631  0.00  0.00    +0.000 A 
ATOM     18  C   UNL     1      47.445   5.762  13.305  0.00  0.00    +0.000 A 
ATOM     19  C   UNL     1      46.672   6.763  12.689  0.00  0.00    +0.000 A 
ATOM     20  C   UNL     1      45.313   6.474  12.464  0.00  0.00    +0.000 A 
BRANCH  19  21
ATOM     21  C   UNL     1      47.272   8.032  12.211  0.00  0.00    +0.000 A 
ATOM     22  C   UNL     1      46.532   9.229  12.214  0.00  0.00    +0.000 A 
ATOM     23  C   UNL     1      47.111  10.452  11.861  0.00  0.00    +0.000 A 
ATOM     24  C   UNL     1      48.453  10.507  11.501  0.00  0.00    +0.000 A 
ATOM     25  C   UNL     1      49.206   9.338  11.469  0.00  0.00    +0.000 A 
ATOM     26  C   UNL     1      48.619   8.114  11.809  0.00  0.00    +0.000 A 
ENDBRANCH  19  21
ENDBRANCH  14  15
ENDBRANCH   1  14
TORSDOF 6
ENDMDL
MODEL 3
REMARK VINA RESULT:    -7.880      3.128      7.595
REMARK INTER + INTRA:         -11.642
REMARK INTER:                 -10.764
REMARK INTRA:                  -0.878
REMARK UNBOUND:                -0.998
REMARK  Name = 
REMARK  6 active torsions:
REMARK  status: ('A' for Active; 'I' for Inactive)
REMARK    1  A    between atoms: C_2  and  C_4
REMARK    2  A    between atoms: C_7  and  O_8
REMARK    3  A    between atoms: O_8  and  C_9
REMARK    4  A    between atoms: C_9  and  C_10
REMARK    5  A    between atoms: C_10  and  C_11
REMARK    6  A    between atoms: C_15  and  C_16
REMARK                            x       y       z     vdW  Elec       q    Type
REMARK                         _______ _______ _______ _____ _____    ______ ____
ROOT
ATOM      1  C   UNL     1      45.527   6.942  12.584  0.00  0.00    +0.000 C 
ENDROOT
BRANCH   1   2
ATOM      2  O   UNL     1      46.698   6.136  12.423  0.00  0.00    +0.000 OA
BRANCH   2   6
ATOM      3  C   UNL     1      47.775   3.708  15.559  0.00  0.00    +0.000 A 
ATOM      4  C   UNL     1      47.963   5.076  15.740  0.00  0.00    +0.000 A 
ATOM      5  C   UNL     1      47.615   5.938  14.701  0.00  0.00    +0.000 A 
ATOM      6  C   UNL     1      47.091   5.419  13.519  0.00  0.00    +0.000 A 
ATOM      7  C   UNL     1      46.952   4.035  13.433  0.00  0.00    +0.000 A 
ATOM      8  N   UNL     1      47.282   3.159  14.416  0.00  0.00    +0.000 NA
BRANCH   3  10
ATOM      9  N   UNL     1      49.081   1.826  16.351  0.00  0.00    +0.000 N 
ATOM     10  C   UNL     1      48.140   2.766  16.664  0.00  0.00    +0.000 C 
ATOM     11  O   UNL     1      47.634   2.827  17.777  0.00  0.00    +0.000 OA
ATOM     12  H   UNL     1      49.376   1.161  17.050  0.00  0.00    +0.000 HD
ATOM     13  H   UNL     1      49.481   1.808  15.418  0.00  0.00    +0.000 HD
ENDBRANCH   3  10
ENDBRANCH   2   6
ENDBRANCH   1   2
BRANCH   1  14
ATOM     14  C   UNL     1      44.613   6.749  11.373  0.00  0.00    +0.000 C 
BRANCH  14  15
ATOM     15  C   UNL     1      44.456   5.283  11.054  0.00  0.00    +0.000 A 
ATOM     16  C   UNL     1      43.504   4.505  11.717  0.00  0.00    +0.000 A 
ATOM     17  C   UNL     1      43.320   3.174  11.356  0.00  0.00    +0.000 A 
ATOM     18  C   UNL     1      44.068   2.617  10.314  0.00  0.00    +0.000 A 
ATOM     19  C   UNL     1      45.008   3.379   9.597  0.00  0.00    +0.000 A 
ATOM     20  C   UNL     1      45.201   4.710  10.010  0.00  0.00    +0.000 A 
BRANCH  19  21
ATOM     21  C   UNL     1      45.702   2.842   8.401  0.00  0.00    +0.000 A 
ATOM     22  C   UNL     1      45.997   3.672   7.303  0.00  0.00    +0.000 A 
ATOM     23  C   UNL     1      46.738   3.208   6.211  0.00  0.00    +0.000 A 
ATOM     24  C   UNL     1      47.207   1.900   6.195  0.00  0.00    +0.000 A 
ATOM     25  C   UNL     1      46.915   1.050   7.257  0.00  0.00    +0.000 A 
ATOM     26  C   UNL     1      46.162   1.513   8.341  0.00  0.00    +0.000 A 
ENDBRANCH  19  21
ENDBRANCH  14  15
ENDBRANCH   1  14
TORSDOF 6
ENDMDL
MODEL 4
REMARK VINA RESULT:    -6.920      4.338      7.845
REMARK INTER + INTRA:         -10.346
REMARK INTER:                  -9.155
REMARK INTRA:                  -1.191
REMARK UNBOUND:                -0.998
REMARK  Name = 
REMARK  6 active torsions:
REMARK  status: ('A' for Active; 'I' for Inactive)
REMARK    1  A    between atoms: C_2  and  C_4
REMARK    2  A    between atoms: C_7  and  O_8
REMARK    3  A    between atoms: O_8  and  C_9
REMARK    4  A    between atoms: C_9  and  C_10
REMARK    5  A    between atoms: C_10  and  C_11
REMARK    6  A    between atoms: C_15  and  C_16
REMARK                            x       y       z     vdW  Elec       q    Type
REMARK                         _______ _______ _______ _____ _____    ______ ____
ROOT
ATOM      1  C   UNL     1      49.555   7.381  13.019  0.00  0.00    +0.000 C 
ENDROOT
BRANCH   1   2
ATOM      2  O   UNL     1      49.085   7.672  14.338  0.00  0.00    +0.000 OA
BRANCH   2   6
ATOM      3  C   UNL     1      47.857   4.576  16.745  0.00  0.00    +0.000 A 
ATOM      4  C   UNL     1      47.316   4.617  15.462  0.00  0.00    +0.000 A 
ATOM      5  C   UNL     1      47.701   5.652  14.611  0.00  0.00    +0.000 A 
ATOM      6  C   UNL     1      48.609   6.611  15.057  0.00  0.00    +0.000 A 
ATOM      7  C   UNL     1      49.085   6.487  16.361  0.00  0.00    +0.000 A 
ATOM      8  N   UNL     1      48.733   5.499  17.224  0.00  0.00    +0.000 NA
BRANCH   3  10
ATOM      9  N   UNL     1      48.225   3.339  18.796  0.00  0.00    +0.000 N 
ATOM     10  C   UNL     1      47.459   3.470  17.672  0.00  0.00    +0.000 C 
ATOM     11  O   UNL     1      46.511   2.729  17.447  0.00  0.00    +0.000 OA
ATOM     12  H   UNL     1      48.011   2.617  19.466  0.00  0.00    +0.000 HD
ATOM     13  H   UNL     1      49.001   3.974  18.950  0.00  0.00    +0.000 HD
ENDBRANCH   3  10
ENDBRANCH   2   6
ENDBRANCH   1   2
BRANCH   1  14
ATOM     14  C   UNL     1      48.858   8.305  12.020  0.00  0.00    +0.000 C 
BRANCH  14  15
ATOM     15  C   UNL     1      47.401   7.938  11.885  0.00  0.00    +0.000 A 
ATOM     16  C   UNL     1      46.400   8.862  12.193  0.00  0.00    +0.000 A 
ATOM     17  C   UNL     1      45.063   8.533  11.990  0.00  0.00    +0.000 A 
ATOM     18  C   UNL     1      44.718   7.289  11.453  0.00  0.00    +0.000 A 
ATOM     19  C   UNL     1      45.698   6.347  11.094  0.00  0.00    +0.000 A 
ATOM     20  C   UNL     1      47.039   6.691  11.348  0.00  0.00    +0.000 A 
BRANCH  19  21
ATOM     21  C   UNL     1      45.353   5.085  10.395  0.00  0.00    +0.000 A 
ATOM     22  C   UNL     1      44.706   4.035  11.074  0.00  0.00    +0.000 A 
ATOM     23  C   UNL     1      44.285   2.881  10.407  0.00  0.00    +0.000 A 
ATOM     24  C   UNL     1      44.497   2.751   9.039  0.00  0.00    +0.000 A 
ATOM     25  C   UNL     1      45.151   3.763   8.345  0.00  0.00    +0.000 A 
ATOM     26  C   UNL     1      45.584   4.911   9.017  0.00  0.00    +0.000 A 
ENDBRANCH  19  21
ENDBRANCH  14  15
ENDBRANCH   1  14
TORSDOF 6
ENDMDL
MODEL 5
REMARK VINA RESULT:    -6.840      4.345      7.705
REMARK INTER + INTRA:         -10.237
REMARK INTER:                  -9.252
REMARK INTRA:                  -0.985
REMARK UNBOUND:                -0.998
REMARK  Name = 
REMARK  6 active torsions:
REMARK  status: ('A' for Active; 'I' for Inactive)
REMARK    1  A    between atoms: C_2  and  C_4
REMARK    2  A    between atoms: C_7  and  O_8
REMARK    3  A    between atoms: O_8  and  C_9
REMARK    4  A    between atoms: C_9  and  C_10
REMARK    5  A    between atoms: C_10  and  C_11
REMARK    6  A    between atoms: C_15  and  C_16
REMARK                            x       y       z     vdW  Elec       q    Type
REMARK                         _______ _______ _______ _____ _____    ______ ____
ROOT
ATOM      1  C   UNL     1      44.696   7.369  11.432  0.00  0.00    +0.000 C 
ENDROOT
BRANCH   1   2
ATOM      2  O   UNL     1      45.208   7.065  12.733  0.00  0.00    +0.000 OA
BRANCH   2   6
ATOM      3  C   UNL     1      49.188   7.859  13.379  0.00  0.00    +0.000 A 
ATOM      4  C   UNL     1      48.890   6.653  12.750  0.00  0.00    +0.000 A 
ATOM      5  C   UNL     1      47.552   6.340  12.514  0.00  0.00    +0.000 A 
ATOM      6  C   UNL     1      46.554   7.230  12.905  0.00  0.00    +0.000 A 
ATOM      7  C   UNL     1      46.956   8.406  13.536  0.00  0.00    +0.000 A 
ATOM      8  N   UNL     1      48.244   8.749  13.790  0.00  0.00    +0.000 NA
BRANCH   3  10
ATOM      9  N   UNL     1      51.216   7.544  14.668  0.00  0.00    +0.000 N 
ATOM     10  C   UNL     1      50.618   8.216  13.638  0.00  0.00    +0.000 C 
ATOM     11  O   UNL     1      51.221   9.052  12.977  0.00  0.00    +0.000 OA
ATOM     12  H   UNL     1      52.180   7.733  14.895  0.00  0.00    +0.000 HD
ATOM     13  H   UNL     1      50.686   6.856  15.192  0.00  0.00    +0.000 HD
ENDBRANCH   3  10
ENDBRANCH   2   6
ENDBRANCH   1   2
BRANCH   1  14
ATOM     14  C   UNL     1      43.420   6.562  11.192  0.00  0.00    +0.000 C 
BRANCH  14  15
ATOM     15  C   UNL     1      43.743   5.101  11.001  0.00  0.00    +0.000 A 
ATOM     16  C   UNL     1      43.092   4.120  11.752  0.00  0.00    +0.000 A 
ATOM     17  C   UNL     1      43.347   2.774  11.509  0.00  0.00    +0.000 A 
ATOM     18  C   UNL     1      44.235   2.397  10.497  0.00  0.00    +0.000 A 
ATOM     19  C   UNL     1      44.881   3.353   9.694  0.00  0.00    +0.000 A 
ATOM     20  C   UNL     1      44.635   4.708   9.989  0.00  0.00    +0.000 A 
BRANCH  19  21
ATOM     21  C   UNL     1      45.712   2.965   8.529  0.00  0.00    +0.000 A 
ATOM     22  C   UNL     1      46.163   1.640   8.371  0.00  0.00    +0.000 A 
ATOM     23  C   UNL     1      46.862   1.235   7.230  0.00  0.00    +0.000 A 
ATOM     24  C   UNL     1      47.123   2.146   6.213  0.00  0.00    +0.000 A 
ATOM     25  C   UNL     1      46.707   3.467   6.349  0.00  0.00    +0.000 A 
ATOM     26  C   UNL     1      46.021   3.873   7.498  0.00  0.00    +0.000 A 
ENDBRANCH  19  21
ENDBRANCH  14  15
ENDBRANCH   1  14
TORSDOF 6
ENDMDL
MODEL 6
REMARK VINA RESULT:    -6.825      4.396      8.157
REMARK INTER + INTRA:         -10.217
REMARK INTER:                  -9.463
REMARK INTRA:                  -0.754
REMARK UNBOUND:                -0.998
REMARK  Name = 
REMARK  6 active torsions:
REMARK  status: ('A' for Active; 'I' for Inactive)
REMARK    1  A    between atoms: C_2  and  C_4
REMARK    2  A    between atoms: C_7  and  O_8
REMARK    3  A    between atoms: O_8  and  C_9
REMARK    4  A    between atoms: C_9  and  C_10
REMARK    5  A    between atoms: C_10  and  C_11
REMARK    6  A    between atoms: C_15  and  C_16
REMARK                            x       y       z     vdW  Elec       q    Type
REMARK                         _______ _______ _______ _____ _____    ______ ____
ROOT
ATOM      1  C   UNL     1      46.858   4.072  14.960  0.00  0.00    +0.000 C 
ENDROOT
BRANCH   1   2
ATOM      2  O   UNL     1      47.065   3.948  16.370  0.00  0.00    +0.000 OA
BRANCH   2   6
ATOM      3  C   UNL     1      50.703   2.337  17.398  0.00  0.00    +0.000 A 
ATOM      4  C   UNL     1      50.432   3.615  17.880  0.00  0.00    +0.000 A 
ATOM      5  C   UNL     1      49.210   4.203  17.553  0.00  0.00    +0.000 A 
ATOM      6  C   UNL     1      48.298   3.508  16.762  0.00  0.00    +0.000 A 
ATOM      7  C   UNL     1      48.669   2.238  16.322  0.00  0.00    +0.000 A 
ATOM      8  N   UNL     1      49.847   1.630  16.611  0.00  0.00    +0.000 NA
BRANCH   3  10
ATOM      9  N   UNL     1      51.956   0.336  17.947  0.00  0.00    +0.000 N 
ATOM     10  C   UNL     1      52.007   1.687  17.740  0.00  0.00    +0.000 C 
ATOM     11  O   UNL     1      53.054   2.314  17.831  0.00  0.00    +0.000 OA
ATOM     12  H   UNL     1      52.799  -0.166  18.178  0.00  0.00    +0.000 HD
ATOM     13  H   UNL     1      51.070  -0.151  17.861  0.00  0.00    +0.000 HD
ENDBRANCH   3  10
ENDBRANCH   2   6
ENDBRANCH   1   2
BRANCH   1  14
ATOM     14  C   UNL     1      47.314   5.459  14.504  0.00  0.00    +0.000 C 
BRANCH  14  15
ATOM     15  C   UNL     1      46.514   5.915  13.310  0.00  0.00    +0.000 A 
ATOM     16  C   UNL     1      46.238   7.270  13.108  0.00  0.00    +0.000 A 
ATOM     17  C   UNL     1      45.565   7.680  11.962  0.00  0.00    +0.000 A 
ATOM     18  C   UNL     1      45.185   6.744  10.996  0.00  0.00    +0.000 A 
ATOM     19  C   UNL     1      45.478   5.377  11.143  0.00  0.00    +0.000 A 
ATOM     20  C   UNL     1      46.124   4.985  12.331  0.00  0.00    +0.000 A 
BRANCH  19  21
ATOM     21  C   UNL     1      45.208   4.396  10.063  0.00  0.00    +0.000 A 
ATOM     22  C   UNL     1      45.617   4.646   8.740  0.00  0.00    +0.000 A 
ATOM     23  C   UNL     1      45.459   3.691   7.731  0.00  0.00    +0.000 A 
ATOM     24  C   UNL     1      44.891   2.457   8.024  0.00  0.00    +0.000 A 
ATOM     25  C   UNL     1      44.459   2.188   9.318  0.00  0.00    +0.000 A 
ATOM     26  C   UNL     1      44.606   3.150  10.323  0.00  0.00    +0.000 A 
ENDBRANCH  19  21
ENDBRANCH  14  15
ENDBRANCH   1  14
TORSDOF 6
ENDMDL
MODEL 7
REMARK VINA RESULT:    -6.640      3.774      8.087
REMARK INTER + INTRA:          -9.967
REMARK INTER:                  -9.277
REMARK INTRA:                  -0.690
REMARK UNBOUND:                -0.998
REMARK  Name = 
REMARK  6 active torsions:
REMARK  status: ('A' for Active; 'I' for Inactive)
REMARK    1  A    between atoms: C_2  and  C_4
REMARK    2  A    between atoms: C_7  and  O_8
REMARK    3  A    between atoms: O_8  and  C_9
REMARK    4  A    between atoms: C_9  and  C_10
REMARK    5  A    between atoms: C_10  and  C_11
REMARK    6  A    between atoms: C_15  and  C_16
REMARK                            x       y       z     vdW  Elec       q    Type
REMARK                         _______ _______ _______ _____ _____    ______ ____
ROOT
ATOM      1  C   UNL     1      46.367   7.009  11.393  0.00  0.00    +0.000 C 
ENDROOT
BRANCH   1   2
ATOM      2  O   UNL     1      46.671   8.054  12.321  0.00  0.00    +0.000 OA
BRANCH   2   6
ATOM      3  C   UNL     1      48.825   6.653  15.528  0.00  0.00    +0.000 A 
ATOM      4  C   UNL     1      48.677   8.034  15.436  0.00  0.00    +0.000 A 
ATOM      5  C   UNL     1      47.957   8.555  14.362  0.00  0.00    +0.000 A 
ATOM      6  C   UNL     1      47.406   7.693  13.416  0.00  0.00    +0.000 A 
ATOM      7  C   UNL     1      47.619   6.327  13.594  0.00  0.00    +0.000 A 
ATOM      8  N   UNL     1      48.317   5.777  14.620  0.00  0.00    +0.000 NA
BRANCH   3  10
ATOM      9  N   UNL     1      50.941   6.295  16.656  0.00  0.00    +0.000 N 
ATOM     10  C   UNL     1      49.592   6.074  16.676  0.00  0.00    +0.000 C 
ATOM     11  O   UNL     1      49.055   5.443  17.578  0.00  0.00    +0.000 OA
ATOM     12  H   UNL     1      51.518   5.935  17.401  0.00  0.00    +0.000 HD
ATOM     13  H   UNL     1      51.350   6.824  15.893  0.00  0.00    +0.000 HD
ENDBRANCH   3  10
ENDBRANCH   2   6
ENDBRANCH   1   2
BRANCH   1  14
ATOM     14  C   UNL     1      44.874   6.688  11.467  0.00  0.00    +0.000 C 
BRANCH  14  15
ATOM     15  C   UNL     1      44.623   5.244  11.108  0.00  0.00    +0.000 A 
ATOM     16  C   UNL     1      43.617   4.513  11.744  0.00  0.00    +0.000 A 
ATOM     17  C   UNL     1      43.348   3.208  11.346  0.00  0.00    +0.000 A 
ATOM     18  C   UNL     1      44.065   2.631  10.293  0.00  0.00    +0.000 A 
ATOM     19  C   UNL     1      45.058   3.347   9.603  0.00  0.00    +0.000 A 
ATOM     20  C   UNL     1      45.336   4.651  10.053  0.00  0.00    +0.000 A 
BRANCH  19  21
ATOM     21  C   UNL     1      45.724   2.798   8.396  0.00  0.00    +0.000 A 
ATOM     22  C   UNL     1      46.006   3.619   7.288  0.00  0.00    +0.000 A 
ATOM     23  C   UNL     1      46.721   3.142   6.185  0.00  0.00    +0.000 A 
ATOM     24  C   UNL     1      47.178   1.829   6.166  0.00  0.00    +0.000 A 
ATOM     25  C   UNL     1      46.897   0.988   7.238  0.00  0.00    +0.000 A 
ATOM     26  C   UNL     1      46.169   1.464   8.334  0.00  0.00    +0.000 A 
ENDBRANCH  19  21
ENDBRANCH  14  15
ENDBRANCH   1  14
TORSDOF 6
ENDMDL
MODEL 8
REMARK VINA RESULT:    -6.549      4.504      8.799
REMARK INTER + INTRA:          -9.844
REMARK INTER:                  -9.348
REMARK INTRA:                  -0.496
REMARK UNBOUND:                -0.998
REMARK  Name = 
REMARK  6 active torsions:
REMARK  status: ('A' for Active; 'I' for Inactive)
REMARK    1  A    between atoms: C_2  and  C_4
REMARK    2  A    between atoms: C_7  and  O_8
REMARK    3  A    between atoms: O_8  and  C_9
REMARK    4  A    between atoms: C_9  and  C_10
REMARK    5  A    between atoms: C_10  and  C_11
REMARK    6  A    between atoms: C_15  and  C_16
REMARK                            x       y       z     vdW  Elec       q    Type
REMARK                         _______ _______ _______ _____ _____    ______ ____
ROOT
ATOM      1  C   UNL     1      47.242   4.858  13.655  0.00  0.00    +0.000 C 
ENDROOT
BRANCH   1   2
ATOM      2  O   UNL     1      47.967   5.789  14.463  0.00  0.00    +0.000 OA
BRANCH   2   6
ATOM      3  C   UNL     1      48.815   4.947  18.395  0.00  0.00    +0.000 A 
ATOM      4  C   UNL     1      48.199   3.936  17.663  0.00  0.00    +0.000 A 
ATOM      5  C   UNL     1      47.889   4.178  16.325  0.00  0.00    +0.000 A 
ATOM      6  C   UNL     1      48.200   5.411  15.756  0.00  0.00    +0.000 A 
ATOM      7  C   UNL     1      48.808   6.361  16.576  0.00  0.00    +0.000 A 
ATOM      8  N   UNL     1      49.123   6.170  17.882  0.00  0.00    +0.000 NA
BRANCH   3  10
ATOM      9  N   UNL     1      48.483   3.684  20.436  0.00  0.00    +0.000 N 
ATOM     10  C   UNL     1      49.160   4.706  19.831  0.00  0.00    +0.000 C 
ATOM     11  O   UNL     1      49.992   5.374  20.433  0.00  0.00    +0.000 OA
ATOM     12  H   UNL     1      48.669   3.464  21.403  0.00  0.00    +0.000 HD
ATOM     13  H   UNL     1      47.803   3.150  19.905  0.00  0.00    +0.000 HD
ENDBRANCH   3  10
ENDBRANCH   2   6
ENDBRANCH   1   2
BRANCH   1  14
ATOM     14  C   UNL     1      45.755   4.940  14.003  0.00  0.00    +0.000 C 
BRANCH  14  15
ATOM     15  C   UNL     1      44.910   4.794  12.762  0.00  0.00    +0.000 A 
ATOM     16  C   UNL     1      43.662   5.414  12.670  0.00  0.00    +0.000 A 
ATOM     17  C   UNL     1      42.930   5.333  11.489  0.00  0.00    +0.000 A 
ATOM     18  C   UNL     1      43.451   4.654  10.383  0.00  0.00    +0.000 A 
ATOM     19  C   UNL     1      44.720   4.051  10.424  0.00  0.00    +0.000 A 
ATOM     20  C   UNL     1      45.420   4.114  11.643  0.00  0.00    +0.000 A 
BRANCH  19  21
ATOM     21  C   UNL     1      45.342   3.452   9.217  0.00  0.00    +0.000 A 
ATOM     22  C   UNL     1      45.843   4.265   8.183  0.00  0.00    +0.000 A 
ATOM     23  C   UNL     1      46.520   3.723   7.086  0.00  0.00    +0.000 A 
ATOM     24  C   UNL     1      46.719   2.350   7.001  0.00  0.00    +0.000 A 
ATOM     25  C   UNL     1      46.218   1.519   7.998  0.00  0.00    +0.000 A 
ATOM     26  C   UNL     1      45.528   2.063   9.086  0.00  0.00    +0.000 A 
ENDBRANCH  19  21
ENDBRANCH  14  15
ENDBRANCH   1  14
TORSDOF 6
ENDMDL
MODEL 9
REMARK VINA RESULT:    -6.478      3.531      5.950
REMARK INTER + INTRA:          -9.749
REMARK INTER:                  -8.621
REMARK INTRA:                  -1.127
REMARK UNBOUND:                -0.998
REMARK  Name = 
REMARK  6 active torsions:
REMARK  status: ('A' for Active; 'I' for Inactive)
REMARK    1  A    between atoms: C_2  and  C_4
REMARK    2  A    between atoms: C_7  and  O_8
REMARK    3  A    between atoms: O_8  and  C_9
REMARK    4  A    between atoms: C_9  and  C_10
REMARK    5  A    between atoms: C_10  and  C_11
REMARK    6  A    between atoms: C_15  and  C_16
REMARK                            x       y       z     vdW  Elec       q    Type
REMARK                         _______ _______ _______ _____ _____    ______ ____
ROOT
ATOM      1  C   UNL     1      48.807   6.690  14.582  0.00  0.00    +0.000 C 
ENDROOT
BRANCH   1   2
ATOM      2  O   UNL     1      47.674   7.155  13.843  0.00  0.00    +0.000 OA
BRANCH   2   6
ATOM      3  C   UNL     1      44.817   4.517  12.513  0.00  0.00    +0.000 A 
ATOM      4  C   UNL     1      46.008   3.962  12.973  0.00  0.00    +0.000 A 
ATOM      5  C   UNL     1      47.008   4.819  13.431  0.00  0.00    +0.000 A 
ATOM      6  C   UNL     1      46.796   6.196  13.420  0.00  0.00    +0.000 A 
ATOM      7  C   UNL     1      45.573   6.652  12.930  0.00  0.00    +0.000 A 
ATOM      8  N   UNL     1      44.575   5.855  12.471  0.00  0.00    +0.000 NA
BRANCH   3  10
ATOM      9  N   UNL     1      43.764   2.334  12.501  0.00  0.00    +0.000 N 
ATOM     10  C   UNL     1      43.730   3.613  12.020  0.00  0.00    +0.000 C 
ATOM     11  O   UNL     1      42.864   3.986  11.240  0.00  0.00    +0.000 OA
ATOM     12  H   UNL     1      43.059   1.672  12.213  0.00  0.00    +0.000 HD
ATOM     13  H   UNL     1      44.496   2.061  13.148  0.00  0.00    +0.000 HD
ENDBRANCH   3  10
ENDBRANCH   2   6
ENDBRANCH   1   2
BRANCH   1  14
ATOM     14  C   UNL     1      48.515   6.806  16.078  0.00  0.00    +0.000 C 
BRANCH  14  15
ATOM     15  C   UNL     1      48.546   5.447  16.733  0.00  0.00    +0.000 A 
ATOM     16  C   UNL     1      47.365   4.740  16.969  0.00  0.00    +0.000 A 
ATOM     17  C   UNL     1      47.418   3.456  17.502  0.00  0.00    +0.000 A 
ATOM     18  C   UNL     1      48.651   2.859  17.780  0.00  0.00    +0.000 A 
ATOM     19  C   UNL     1      49.863   3.524  17.521  0.00  0.00    +0.000 A 
ATOM     20  C   UNL     1      49.778   4.836  17.019  0.00  0.00    +0.000 A 
BRANCH  19  21
ATOM     21  C   UNL     1      51.175   2.850  17.678  0.00  0.00    +0.000 A 
ATOM     22  C   UNL     1      51.327   1.483  17.380  0.00  0.00    +0.000 A 
ATOM     23  C   UNL     1      52.576   0.856  17.426  0.00  0.00    +0.000 A 
ATOM     24  C   UNL     1      53.708   1.587  17.768  0.00  0.00    +0.000 A 
ATOM     25  C   UNL     1      53.587   2.935  18.087  0.00  0.00    +0.000 A 
ATOM     26  C   UNL     1      52.334   3.556  18.053  0.00  0.00    +0.000 A 
ENDBRANCH  19  21
ENDBRANCH  14  15
ENDBRANCH   1  14
TORSDOF 6
ENDMDL
