MODEL 1
REMARK VINA RESULT:    -8.017      0.000      0.000
REMARK INTER + INTRA:         -13.644
REMARK INTER:                 -12.235
REMARK INTRA:                  -1.410
REMARK UNBOUND:                -1.410
REMARK  Name = 
REMARK  12 active torsions:
REMARK  status: ('A' for Active; 'I' for Inactive)
REMARK    1  A    between atoms: C_1  and  C_2
REMARK    2  A    between atoms: C_2  and  C_3
REMARK    3  A    between atoms: C_3  and  O_4
REMARK    4  A    between atoms: O_4  and  C_5
REMARK    5  A    between atoms: C_7  and  C_8
REMARK    6  A    between atoms: C_12  and  O_13
REMARK    7  A    between atoms: O_13  and  C_14
REMARK    8  A    between atoms: C_17  and  C_18
REMARK    9  A    between atoms: C_18  and  C_19
REMARK   10  A    between atoms: C_18  and  C_20
REMARK   11  A    between atoms: C_20  and  N_21
REMARK   12  A    between atoms: C_25  and  C_26
REMARK                            x       y       z     vdW  Elec       q    Type
REMARK                         _______ _______ _______ _____ _____    ______ ____
ROOT
ATOM      1  C   UNL     1      46.860   4.883  14.050  0.00  0.00    +0.000 A 
ATOM      2  C   UNL     1      47.146   6.207  13.737  0.00  0.00    +0.000 A 
ATOM      3  C   UNL     1      46.230   6.933  12.986  0.00  0.00    +0.000 A 
ATOM      4  N   UNL     1      45.047   6.398  12.602  0.00  0.00    +0.000 NA
ATOM      5  C   UNL     1      44.775   5.105  12.882  0.00  0.00    +0.000 A 
ATOM      6  C   UNL     1      45.668   4.322  13.604  0.00  0.00    +0.000 A 
ENDROOT
BRANCH   3   7
ATOM      7  C   UNL     1      46.481   8.308  12.517  0.00  0.00    +0.000 A 
ATOM      8  C   UNL     1      47.780   8.734  12.205  0.00  0.00    +0.000 A 
ATOM      9  C   UNL     1      47.987  10.039  11.793  0.00  0.00    +0.000 A 
ATOM     10  N   UNL     1      47.004  10.953  11.672  0.00  0.00    +0.000 NA
ATOM     11  C   UNL     1      45.761  10.542  11.990  0.00  0.00    +0.000 A 
ATOM     12  C   UNL     1      45.454   9.256  12.407  0.00  0.00    +0.000 A 
BRANCH  11  13
ATOM     13  O   UNL     1      44.702  11.426  11.913  0.00  0.00    +0.000 OA
ATOM     14  C   UNL     1      43.645  10.945  11.089  0.00  0.00    +0.000 C 
ENDBRANCH  11  13
ENDBRANCH   3   7
BRANCH   5  15
ATOM     15  C   UNL     1      43.476   4.514  12.354  0.00  0.00    +0.000 C 
ATOM     16  C   UNL     1      42.388   5.598  12.274  0.00  0.00    +0.000 C 
BRANCH  15  17
ATOM     17  C   UNL     1      43.593   3.848  10.960  0.00  0.00    +0.000 C 
BRANCH  17  18
ATOM     18  N   UNL     1      44.357   4.651   9.994  0.00  0.00    +0.000 N 
ATOM     19  C   UNL     1      45.117   3.889   9.095  0.00  0.00    +0.000 A 
ATOM     20  C   UNL     1      45.822   4.514   8.058  0.00  0.00    +0.000 A 
ATOM     21  N   UNL     1      46.605   3.857   7.156  0.00  0.00    +0.000 NA
ATOM     22  C   UNL     1      46.635   2.508   7.326  0.00  0.00    +0.000 A 
ATOM     23  C   UNL     1      45.920   1.868   8.323  0.00  0.00    +0.000 A 
ATOM     24  N   UNL     1      45.155   2.544   9.216  0.00  0.00    +0.000 NA
ATOM     25  H   UNL     1      44.917   5.381  10.420  0.00  0.00    +0.000 HD
BRANCH  22  26
ATOM     26  C   UNL     1      47.496   1.700   6.421  0.00  0.00    +0.000 C 
ATOM     27  N   UNL     1      48.518   2.371   5.809  0.00  0.00    +0.000 N 
ATOM     28  O   UNL     1      47.312   0.503   6.240  0.00  0.00    +0.000 OA
ATOM     29  H   UNL     1      48.656   3.359   5.983  0.00  0.00    +0.000 HD
ATOM     30  H   UNL     1      49.148   1.864   5.202  0.00  0.00    +0.000 HD
ENDBRANCH  22  26
ENDBRANCH  17  18
ENDBRANCH  15  17
ENDBRANCH   5  15
BRANCH   1  31
ATOM     31  O   UNL     1      47.667   4.042  14.766  0.00  0.00    +0.000 OA
BRANCH  31  32
ATOM     32  C   UNL     1      47.734   4.271  16.175  0.00  0.00    +0.000 C 
BRANCH  32  34
ATOM     33  C   UNL     1      49.257   2.973  17.692  0.00  0.00    +0.000 C 
ATOM     34  C   UNL     1      47.985   2.937  16.867  0.00  0.00    +0.000 C 
ENDBRANCH  32  34
ENDBRANCH  31  32
ENDBRANCH   1  31
TORSDOF 9
ENDMDL
MODEL 2
REMARK VINA RESULT:    -7.602      1.519      2.242
REMARK INTER + INTRA:         -13.012
REMARK INTER:                 -11.848
REMARK INTRA:                  -1.164
REMARK UNBOUND:                -1.410
REMARK  Name = 
REMARK  12 active torsions:
REMARK  status: ('A' for Active; 'I' for Inactive)
REMARK    1  A    between atoms: C_1  and  C_2
REMARK    2  A    between atoms: C_2  and  C_3
REMARK    3  A    between atoms: C_3  and  O_4
REMARK    4  A    between atoms: O_4  and  C_5
REMARK    5  A    between atoms: C_7  and  C_8
REMARK    6  A    between atoms: C_12  and  O_13
REMARK    7  A    between atoms: O_13  and  C_14
REMARK    8  A    between atoms: C_17  and  C_18
REMARK    9  A    between atoms: C_18  and  C_19
REMARK   10  A    between atoms: C_18  and  C_20
REMARK   11  A    between atoms: C_20  and  N_21
REMARK   12  A    between atoms: C_25  and  C_26
REMARK                            x       y       z     vdW  Elec       q    Type
REMARK                         _______ _______ _______ _____ _____    ______ ____
ROOT
ATOM      1  C   UNL     1      46.697   4.656  14.053  0.00  0.00    +0.000 A 
ATOM      2  C   UNL     1      47.228   5.905  13.752  0.00  0.00    +0.000 A 
ATOM      3  C   UNL     1      46.536   6.737  12.881  0.00  0.00    +0.000 A 
ATOM      4  N   UNL     1      45.336   6.381  12.366  0.00  0.00    +0.000 NA
ATOM      5  C   UNL     1      44.828   5.160  12.634  0.00  0.00    +0.000 A 
ATOM      6  C   UNL     1      45.490   4.273  13.475  0.00  0.00    +0.000 A 
ENDROOT
BRANCH   3   7
ATOM      7  C   UNL     1      47.059   8.036  12.421  0.00  0.00    +0.000 A 
ATOM      8  C   UNL     1      46.213   9.147  12.300  0.00  0.00    +0.000 A 
ATOM      9  C   UNL     1      46.727  10.347  11.840  0.00  0.00    +0.000 A 
ATOM     10  N   UNL     1      48.015  10.525  11.484  0.00  0.00    +0.000 NA
ATOM     11  C   UNL     1      48.819   9.448  11.586  0.00  0.00    +0.000 A 
ATOM     12  C   UNL     1      48.397   8.208  12.040  0.00  0.00    +0.000 A 
BRANCH  11  13
ATOM     13  O   UNL     1      50.148   9.544  11.221  0.00  0.00    +0.000 OA
ATOM     14  C   UNL     1      50.850   8.316  11.381  0.00  0.00    +0.000 C 
ENDBRANCH  11  13
ENDBRANCH   3   7
BRANCH   5  15
ATOM     15  C   UNL     1      43.522   4.761  11.962  0.00  0.00    +0.000 C 
ATOM     16  C   UNL     1      42.475   5.876  12.123  0.00  0.00    +0.000 C 
BRANCH  15  17
ATOM     17  C   UNL     1      43.649   4.437  10.453  0.00  0.00    +0.000 C 
BRANCH  17  18
ATOM     18  N   UNL     1      44.023   3.041  10.186  0.00  0.00    +0.000 N 
ATOM     19  C   UNL     1      44.942   2.887   9.139  0.00  0.00    +0.000 A 
ATOM     20  C   UNL     1      45.463   1.623   8.834  0.00  0.00    +0.000 A 
ATOM     21  N   UNL     1      46.338   1.376   7.818  0.00  0.00    +0.000 NA
ATOM     22  C   UNL     1      46.701   2.484   7.117  0.00  0.00    +0.000 A 
ATOM     23  C   UNL     1      46.224   3.746   7.423  0.00  0.00    +0.000 A 
ATOM     24  N   UNL     1      45.344   3.966   8.432  0.00  0.00    +0.000 NA
ATOM     25  H   UNL     1      43.230   2.419  10.072  0.00  0.00    +0.000 HD
BRANCH  22  26
ATOM     26  C   UNL     1      47.620   2.318   5.959  0.00  0.00    +0.000 C 
ATOM     27  N   UNL     1      48.952   2.475   6.224  0.00  0.00    +0.000 N 
ATOM     28  O   UNL     1      47.215   2.043   4.837  0.00  0.00    +0.000 OA
ATOM     29  H   UNL     1      49.264   2.692   7.163  0.00  0.00    +0.000 HD
ATOM     30  H   UNL     1      49.622   2.349   5.477  0.00  0.00    +0.000 HD
ENDBRANCH  22  26
ENDBRANCH  17  18
ENDBRANCH  15  17
ENDBRANCH   5  15
BRANCH   1  31
ATOM     31  O   UNL     1      47.267   3.725  14.879  0.00  0.00    +0.000 OA
BRANCH  31  32
ATOM     32  C   UNL     1      47.126   3.950  16.283  0.00  0.00    +0.000 C 
BRANCH  32  34
ATOM     33  C   UNL     1      48.997   2.316  16.652  0.00  0.00    +0.000 C 
ATOM     34  C   UNL     1      48.477   3.710  16.944  0.00  0.00    +0.000 C 
ENDBRANCH  32  34
ENDBRANCH  31  32
ENDBRANCH   1  31
TORSDOF 9
ENDMDL
MODEL 3
REMARK VINA RESULT:    -7.464      2.241      5.038
REMARK INTER + INTRA:         -12.801
REMARK INTER:                 -12.019
REMARK INTRA:                  -0.782
REMARK UNBOUND:                -1.410
REMARK  Name = 
REMARK  12 active torsions:
REMARK  status: ('A' for Active; 'I' for Inactive)
REMARK    1  A    between atoms: C_1  and  C_2
REMARK    2  A    between atoms: C_2  and  C_3
REMARK    3  A    between atoms: C_3  and  O_4
REMARK    4  A    between atoms: O_4  and  C_5
REMARK    5  A    between atoms: C_7  and  C_8
REMARK    6  A    between atoms: C_12  and  O_13
REMARK    7  A    between atoms: O_13  and  C_14
REMARK    8  A    between atoms: C_17  and  C_18
REMARK    9  A    between atoms: C_18  and  C_19
REMARK   10  A    between atoms: C_18  and  C_20
REMARK   11  A    between atoms: C_20  and  N_21
REMARK   12  A    between atoms: C_25  and  C_26
REMARK                            x       y       z     vdW  Elec       q    Type
REMARK                         _______ _______ _______ _____ _____    ______ ____
ROOT
ATOM      1  C   UNL     1      46.970   6.268  12.544  0.00  0.00    +0.000 A 
ATOM      2  C   UNL     1      47.623   5.837  13.693  0.00  0.00    +0.000 A 
ATOM      3  C   UNL     1      47.032   4.851  14.472  0.00  0.00    +0.000 A 
ATOM      4  N   UNL     1      45.867   4.266  14.109  0.00  0.00    +0.000 NA
ATOM      5  C   UNL     1      45.216   4.697  13.008  0.00  0.00    +0.000 A 
ATOM      6  C   UNL     1      45.745   5.702  12.205  0.00  0.00    +0.000 A 
ENDROOT
BRANCH   3   7
ATOM      7  C   UNL     1      47.591   4.396  15.758  0.00  0.00    +0.000 A 
ATOM      8  C   UNL     1      47.807   3.032  16.003  0.00  0.00    +0.000 A 
ATOM      9  C   UNL     1      48.308   2.633  17.230  0.00  0.00    +0.000 A 
ATOM     10  N   UNL     1      48.605   3.483  18.233  0.00  0.00    +0.000 NA
ATOM     11  C   UNL     1      48.379   4.790  17.997  0.00  0.00    +0.000 A 
ATOM     12  C   UNL     1      47.884   5.286  16.801  0.00  0.00    +0.000 A 
BRANCH  11  13
ATOM     13  O   UNL     1      48.637   5.723  18.983  0.00  0.00    +0.000 OA
ATOM     14  C   UNL     1      47.450   6.299  19.517  0.00  0.00    +0.000 C 
ENDBRANCH  11  13
ENDBRANCH   3   7
BRANCH   5  15
ATOM     15  C   UNL     1      43.864   4.078  12.683  0.00  0.00    +0.000 C 
ATOM     16  C   UNL     1      42.765   5.154  12.692  0.00  0.00    +0.000 C 
BRANCH  15  17
ATOM     17  C   UNL     1      43.804   3.345  11.320  0.00  0.00    +0.000 C 
BRANCH  17  18
ATOM     18  N   UNL     1      44.172   4.200  10.182  0.00  0.00    +0.000 N 
ATOM     19  C   UNL     1      44.959   3.557   9.217  0.00  0.00    +0.000 A 
ATOM     20  C   UNL     1      45.307   4.218   8.031  0.00  0.00    +0.000 A 
ATOM     21  N   UNL     1      46.089   3.682   7.052  0.00  0.00    +0.000 NA
ATOM     22  C   UNL     1      46.500   2.409   7.305  0.00  0.00    +0.000 A 
ATOM     23  C   UNL     1      46.141   1.727   8.453  0.00  0.00    +0.000 A 
ATOM     24  N   UNL     1      45.370   2.286   9.420  0.00  0.00    +0.000 NA
ATOM     25  H   UNL     1      44.577   5.089  10.452  0.00  0.00    +0.000 HD
BRANCH  22  26
ATOM     26  C   UNL     1      47.394   1.747   6.319  0.00  0.00    +0.000 C 
ATOM     27  N   UNL     1      48.547   2.414   6.011  0.00  0.00    +0.000 N 
ATOM     28  O   UNL     1      47.126   0.662   5.818  0.00  0.00    +0.000 OA
ATOM     29  H   UNL     1      48.752   3.306   6.447  0.00  0.00    +0.000 HD
ATOM     30  H   UNL     1      49.202   1.997   5.365  0.00  0.00    +0.000 HD
ENDBRANCH  22  26
ENDBRANCH  17  18
ENDBRANCH  15  17
ENDBRANCH   5  15
BRANCH   1  31
ATOM     31  O   UNL     1      47.419   7.236  11.687  0.00  0.00    +0.000 OA
BRANCH  31  32
ATOM     32  C   UNL     1      47.798   8.481  12.279  0.00  0.00    +0.000 C 
BRANCH  32  34
ATOM     33  C   UNL     1      50.021   7.692  11.415  0.00  0.00    +0.000 C 
ATOM     34  C   UNL     1      49.144   8.897  11.699  0.00  0.00    +0.000 C 
ENDBRANCH  32  34
ENDBRANCH  31  32
ENDBRANCH   1  31
TORSDOF 9
ENDMDL
MODEL 4
REMARK VINA RESULT:    -6.913      1.872      5.285
REMARK INTER + INTRA:         -11.960
REMARK INTER:                 -10.923
REMARK INTRA:                  -1.038
REMARK UNBOUND:                -1.410
REMARK  Name = 
REMARK  12 active torsions:
REMARK  status: ('A' for Active; 'I' for Inactive)
REMARK    1  A    between atoms: C_1  and  C_2
REMARK    2  A    between atoms: C_2  and  C_3
REMARK    3  A    between atoms: C_3  and  O_4
REMARK    4  A    between atoms: O_4  and  C_5
REMARK    5  A    between atoms: C_7  and  C_8
REMARK    6  A    between atoms: C_12  and  O_13
REMARK    7  A    between atoms: O_13  and  C_14
REMARK    8  A    between atoms: C_17  and  C_18
REMARK    9  A    between atoms: C_18  and  C_19
REMARK   10  A    between atoms: C_18  and  C_20
REMARK   11  A    between atoms: C_20  and  N_21
REMARK   12  A    between atoms: C_25  and  C_26
REMARK                            x       y       z     vdW  Elec       q    Type
REMARK                         _______ _______ _______ _____ _____    ______ ____
ROOT
ATOM      1  C   UNL     1      46.050   7.772  12.313  0.00  0.00    +0.000 A 
ATOM      2  C   UNL     1      46.867   7.172  13.264  0.00  0.00    +0.000 A 
ATOM      3  C   UNL     1      46.589   5.872  13.665  0.00  0.00    +0.000 A 
ATOM      4  N   UNL     1      45.579   5.161  13.111  0.00  0.00    +0.000 NA
ATOM      5  C   UNL     1      44.767   5.747  12.205  0.00  0.00    +0.000 A 
ATOM      6  C   UNL     1      44.979   7.056  11.788  0.00  0.00    +0.000 A 
ENDROOT
BRANCH   3   7
ATOM      7  C   UNL     1      47.330   5.182  14.735  0.00  0.00    +0.000 A 
ATOM      8  C   UNL     1      47.190   3.800  14.928  0.00  0.00    +0.000 A 
ATOM      9  C   UNL     1      47.879   3.184  15.959  0.00  0.00    +0.000 A 
ATOM     10  N   UNL     1      48.690   3.836  16.815  0.00  0.00    +0.000 NA
ATOM     11  C   UNL     1      48.807   5.166  16.635  0.00  0.00    +0.000 A 
ATOM     12  C   UNL     1      48.162   5.870  15.630  0.00  0.00    +0.000 A 
BRANCH  11  13
ATOM     13  O   UNL     1      49.604   5.910  17.485  0.00  0.00    +0.000 OA
ATOM     14  C   UNL     1      48.989   7.131  17.883  0.00  0.00    +0.000 C 
ENDBRANCH  11  13
ENDBRANCH   3   7
BRANCH   5  15
ATOM     15  C   UNL     1      43.587   4.946  11.673  0.00  0.00    +0.000 C 
ATOM     16  C   UNL     1      42.284   5.748  11.825  0.00  0.00    +0.000 C 
BRANCH  15  17
ATOM     17  C   UNL     1      43.717   4.518  10.190  0.00  0.00    +0.000 C 
BRANCH  17  18
ATOM     18  N   UNL     1      44.019   3.090  10.021  0.00  0.00    +0.000 N 
ATOM     19  C   UNL     1      44.991   2.825   9.046  0.00  0.00    +0.000 A 
ATOM     20  C   UNL     1      45.450   1.517   8.841  0.00  0.00    +0.000 A 
ATOM     21  N   UNL     1      46.371   1.163   7.900  0.00  0.00    +0.000 NA
ATOM     22  C   UNL     1      46.845   2.207   7.169  0.00  0.00    +0.000 A 
ATOM     23  C   UNL     1      46.431   3.511   7.378  0.00  0.00    +0.000 A 
ATOM     24  N   UNL     1      45.504   3.837   8.313  0.00  0.00    +0.000 NA
ATOM     25  H   UNL     1      43.198   2.511   9.887  0.00  0.00    +0.000 HD
BRANCH  22  26
ATOM     26  C   UNL     1      47.824   1.924   6.085  0.00  0.00    +0.000 C 
ATOM     27  N   UNL     1      48.931   2.725   6.051  0.00  0.00    +0.000 N 
ATOM     28  O   UNL     1      47.659   1.019   5.276  0.00  0.00    +0.000 OA
ATOM     29  H   UNL     1      49.050   3.460   6.738  0.00  0.00    +0.000 HD
ATOM     30  H   UNL     1      49.639   2.559   5.350  0.00  0.00    +0.000 HD
ENDBRANCH  22  26
ENDBRANCH  17  18
ENDBRANCH  15  17
ENDBRANCH   5  15
BRANCH   1  31
ATOM     31  O   UNL     1      46.190   9.046  11.832  0.00  0.00    +0.000 OA
BRANCH  31  32
ATOM     32  C   UNL     1      45.127   9.955  12.124  0.00  0.00    +0.000 C 
BRANCH  32  34
ATOM     33  C   UNL     1      43.766  11.791  11.080  0.00  0.00    +0.000 C 
ATOM     34  C   UNL     1      44.691  10.617  10.822  0.00  0.00    +0.000 C 
ENDBRANCH  32  34
ENDBRANCH  31  32
ENDBRANCH   1  31
TORSDOF 9
ENDMDL
MODEL 5
REMARK VINA RESULT:    -6.853      2.605      8.176
REMARK INTER + INTRA:         -11.869
REMARK INTER:                 -10.373
REMARK INTRA:                  -1.496
REMARK UNBOUND:                -1.410
REMARK  Name = 
REMARK  12 active torsions:
REMARK  status: ('A' for Active; 'I' for Inactive)
REMARK    1  A    between atoms: C_1  and  C_2
REMARK    2  A    between atoms: C_2  and  C_3
REMARK    3  A    between atoms: C_3  and  O_4
REMARK    4  A    between atoms: O_4  and  C_5
REMARK    5  A    between atoms: C_7  and  C_8
REMARK    6  A    between atoms: C_12  and  O_13
REMARK    7  A    between atoms: O_13  and  C_14
REMARK    8  A    between atoms: C_17  and  C_18
REMARK    9  A    between atoms: C_18  and  C_19
REMARK   10  A    between atoms: C_18  and  C_20
REMARK   11  A    between atoms: C_20  and  N_21
REMARK   12  A    between atoms: C_25  and  C_26
REMARK                            x       y       z     vdW  Elec       q    Type
REMARK                         _______ _______ _______ _____ _____    ______ ____
ROOT
ATOM      1  C   UNL     1      44.887   9.347  11.978  0.00  0.00    +0.000 A 
ATOM      2  C   UNL     1      44.286   8.107  11.790  0.00  0.00    +0.000 A 
ATOM      3  C   UNL     1      45.091   6.988  11.626  0.00  0.00    +0.000 A 
ATOM      4  N   UNL     1      46.441   7.070  11.701  0.00  0.00    +0.000 NA
ATOM      5  C   UNL     1      47.030   8.274  11.857  0.00  0.00    +0.000 A 
ATOM      6  C   UNL     1      46.275   9.433  11.997  0.00  0.00    +0.000 A 
ENDROOT
BRANCH   3   7
ATOM      7  C   UNL     1      44.558   5.648  11.323  0.00  0.00    +0.000 A 
ATOM      8  C   UNL     1      43.780   4.956  12.262  0.00  0.00    +0.000 A 
ATOM      9  C   UNL     1      43.316   3.688  11.959  0.00  0.00    +0.000 A 
ATOM     10  N   UNL     1      43.570   3.053  10.798  0.00  0.00    +0.000 NA
ATOM     11  C   UNL     1      44.333   3.716   9.907  0.00  0.00    +0.000 A 
ATOM     12  C   UNL     1      44.839   4.989  10.118  0.00  0.00    +0.000 A 
BRANCH  11  13
ATOM     13  O   UNL     1      44.656   3.123   8.701  0.00  0.00    +0.000 OA
ATOM     14  C   UNL     1      45.423   1.935   8.864  0.00  0.00    +0.000 C 
ENDBRANCH  11  13
ENDBRANCH   3   7
BRANCH   5  15
ATOM     15  C   UNL     1      48.551   8.337  11.843  0.00  0.00    +0.000 C 
ATOM     16  C   UNL     1      49.042   9.594  12.582  0.00  0.00    +0.000 C 
BRANCH  15  17
ATOM     17  C   UNL     1      49.251   7.107  12.474  0.00  0.00    +0.000 C 
BRANCH  17  18
ATOM     18  N   UNL     1      49.691   7.335  13.858  0.00  0.00    +0.000 N 
ATOM     19  C   UNL     1      49.099   6.472  14.792  0.00  0.00    +0.000 A 
ATOM     20  C   UNL     1      49.493   6.508  16.136  0.00  0.00    +0.000 A 
ATOM     21  N   UNL     1      48.956   5.728  17.116  0.00  0.00    +0.000 NA
ATOM     22  C   UNL     1      47.997   4.867  16.677  0.00  0.00    +0.000 A 
ATOM     23  C   UNL     1      47.617   4.793  15.349  0.00  0.00    +0.000 A 
ATOM     24  N   UNL     1      48.159   5.588  14.393  0.00  0.00    +0.000 NA
ATOM     25  H   UNL     1      49.622   8.301  14.156  0.00  0.00    +0.000 HD
BRANCH  22  26
ATOM     26  C   UNL     1      47.316   4.000  17.675  0.00  0.00    +0.000 C 
ATOM     27  N   UNL     1      47.652   4.212  18.983  0.00  0.00    +0.000 N 
ATOM     28  O   UNL     1      46.492   3.154  17.352  0.00  0.00    +0.000 OA
ATOM     29  H   UNL     1      48.329   4.926  19.227  0.00  0.00    +0.000 HD
ATOM     30  H   UNL     1      47.199   3.667  19.704  0.00  0.00    +0.000 HD
ENDBRANCH  22  26
ENDBRANCH  17  18
ENDBRANCH  15  17
ENDBRANCH   5  15
BRANCH   1  31
ATOM     31  O   UNL     1      44.228  10.536  12.138  0.00  0.00    +0.000 OA
BRANCH  31  32
ATOM     32  C   UNL     1      44.503  11.551  11.171  0.00  0.00    +0.000 C 
BRANCH  32  34
ATOM     33  C   UNL     1      43.010  10.962   9.239  0.00  0.00    +0.000 C 
ATOM     34  C   UNL     1      43.210  11.874  10.434  0.00  0.00    +0.000 C 
ENDBRANCH  32  34
ENDBRANCH  31  32
ENDBRANCH   1  31
TORSDOF 9
ENDMDL
MODEL 6
REMARK VINA RESULT:    -6.818      2.010      5.299
REMARK INTER + INTRA:         -11.814
REMARK INTER:                 -10.808
REMARK INTRA:                  -1.006
REMARK UNBOUND:                -1.410
REMARK  Name = 
REMARK  12 active torsions:
REMARK  status: ('A' for Active; 'I' for Inactive)
REMARK    1  A    between atoms: C_1  and  C_2
REMARK    2  A    between atoms: C_2  and  C_3
REMARK    3  A    between atoms: C_3  and  O_4
REMARK    4  A    between atoms: O_4  and  C_5
REMARK    5  A    between atoms: C_7  and  C_8
REMARK    6  A    between atoms: C_12  and  O_13
REMARK    7  A    between atoms: O_13  and  C_14
REMARK    8  A    between atoms: C_17  and  C_18
REMARK    9  A    between atoms: C_18  and  C_19
REMARK   10  A    between atoms: C_18  and  C_20
REMARK   11  A    between atoms: C_20  and  N_21
REMARK   12  A    between atoms: C_25  and  C_26
REMARK                            x       y       z     vdW  Elec       q    Type
REMARK                         _______ _______ _______ _____ _____    ______ ____
ROOT
ATOM      1  C   UNL     1      45.055   8.764  11.964  0.00  0.00    +0.000 A 
ATOM      2  C   UNL     1      46.308   8.731  12.564  0.00  0.00    +0.000 A 
ATOM      3  C   UNL     1      46.813   7.513  13.000  0.00  0.00    +0.000 A 
ATOM      4  N   UNL     1      46.138   6.356  12.804  0.00  0.00    +0.000 NA
ATOM      5  C   UNL     1      44.910   6.385  12.244  0.00  0.00    +0.000 A 
ATOM      6  C   UNL     1      44.341   7.579  11.816  0.00  0.00    +0.000 A 
ENDROOT
BRANCH   3   7
ATOM      7  C   UNL     1      48.084   7.383  13.735  0.00  0.00    +0.000 A 
ATOM      8  C   UNL     1      49.220   8.102  13.337  0.00  0.00    +0.000 A 
ATOM      9  C   UNL     1      50.407   7.939  14.031  0.00  0.00    +0.000 A 
ATOM     10  N   UNL     1      50.552   7.113  15.086  0.00  0.00    +0.000 NA
ATOM     11  C   UNL     1      49.460   6.412  15.454  0.00  0.00    +0.000 A 
ATOM     12  C   UNL     1      48.230   6.511  14.824  0.00  0.00    +0.000 A 
BRANCH  11  13
ATOM     13  O   UNL     1      49.534   5.528  16.512  0.00  0.00    +0.000 OA
ATOM     14  C   UNL     1      50.735   5.671  17.263  0.00  0.00    +0.000 C 
ENDBRANCH  11  13
ENDBRANCH   3   7
BRANCH   5  15
ATOM     15  C   UNL     1      44.144   5.075  12.125  0.00  0.00    +0.000 C 
ATOM     16  C   UNL     1      42.867   5.121  12.981  0.00  0.00    +0.000 C 
BRANCH  15  17
ATOM     17  C   UNL     1      43.738   4.698  10.678  0.00  0.00    +0.000 C 
BRANCH  17  18
ATOM     18  N   UNL     1      43.992   3.288  10.351  0.00  0.00    +0.000 N 
ATOM     19  C   UNL     1      44.889   3.102   9.290  0.00  0.00    +0.000 A 
ATOM     20  C   UNL     1      45.300   1.812   8.929  0.00  0.00    +0.000 A 
ATOM     21  N   UNL     1      46.146   1.535   7.897  0.00  0.00    +0.000 NA
ATOM     22  C   UNL     1      46.597   2.638   7.238  0.00  0.00    +0.000 A 
ATOM     23  C   UNL     1      46.230   3.921   7.600  0.00  0.00    +0.000 A 
ATOM     24  N   UNL     1      45.377   4.172   8.625  0.00  0.00    +0.000 NA
ATOM     25  H   UNL     1      43.149   2.740  10.219  0.00  0.00    +0.000 HD
BRANCH  22  26
ATOM     26  C   UNL     1      47.493   2.443   6.067  0.00  0.00    +0.000 C 
ATOM     27  N   UNL     1      48.834   2.436   6.332  0.00  0.00    +0.000 N 
ATOM     28  O   UNL     1      47.060   2.286   4.932  0.00  0.00    +0.000 OA
ATOM     29  H   UNL     1      49.167   2.558   7.281  0.00  0.00    +0.000 HD
ATOM     30  H   UNL     1      49.486   2.284   5.575  0.00  0.00    +0.000 HD
ENDBRANCH  22  26
ENDBRANCH  17  18
ENDBRANCH  15  17
ENDBRANCH   5  15
BRANCH   1  31
ATOM     31  O   UNL     1      44.423   9.885  11.499  0.00  0.00    +0.000 OA
BRANCH  31  32
ATOM     32  C   UNL     1      43.380   9.678  10.545  0.00  0.00    +0.000 C 
BRANCH  32  34
ATOM     33  C   UNL     1      42.294  11.423   9.101  0.00  0.00    +0.000 C 
ATOM     34  C   UNL     1      43.573  10.664   9.400  0.00  0.00    +0.000 C 
ENDBRANCH  32  34
ENDBRANCH  31  32
ENDBRANCH   1  31
TORSDOF 9
ENDMDL
MODEL 7
REMARK VINA RESULT:    -6.468      2.662      7.020
REMARK INTER + INTRA:         -11.281
REMARK INTER:                  -9.865
REMARK INTRA:                  -1.416
REMARK UNBOUND:                -1.410
REMARK  Name = 
REMARK  12 active torsions:
REMARK  status: ('A' for Active; 'I' for Inactive)
REMARK    1  A    between atoms: C_1  and  C_2
REMARK    2  A    between atoms: C_2  and  C_3
REMARK    3  A    between atoms: C_3  and  O_4
REMARK    4  A    between atoms: O_4  and  C_5
REMARK    5  A    between atoms: C_7  and  C_8
REMARK    6  A    between atoms: C_12  and  O_13
REMARK    7  A    between atoms: O_13  and  C_14
REMARK    8  A    between atoms: C_17  and  C_18
REMARK    9  A    between atoms: C_18  and  C_19
REMARK   10  A    between atoms: C_18  and  C_20
REMARK   11  A    between atoms: C_20  and  N_21
REMARK   12  A    between atoms: C_25  and  C_26
REMARK                            x       y       z     vdW  Elec       q    Type
REMARK                         _______ _______ _______ _____ _____    ______ ____
ROOT
ATOM      1  C   UNL     1      47.860   5.268  15.111  0.00  0.00    +0.000 A 
ATOM      2  C   UNL     1      46.776   4.769  14.396  0.00  0.00    +0.000 A 
ATOM      3  C   UNL     1      46.299   5.491  13.310  0.00  0.00    +0.000 A 
ATOM      4  N   UNL     1      46.897   6.634  12.902  0.00  0.00    +0.000 NA
ATOM      5  C   UNL     1      47.933   7.136  13.607  0.00  0.00    +0.000 A 
ATOM      6  C   UNL     1      48.435   6.473  14.721  0.00  0.00    +0.000 A 
ENDROOT
BRANCH   3   7
ATOM      7  C   UNL     1      45.098   5.103  12.549  0.00  0.00    +0.000 A 
ATOM      8  C   UNL     1      43.932   5.880  12.602  0.00  0.00    +0.000 A 
ATOM      9  C   UNL     1      42.812   5.476  11.897  0.00  0.00    +0.000 A 
ATOM     10  N   UNL     1      42.759   4.356  11.148  0.00  0.00    +0.000 NA
ATOM     11  C   UNL     1      43.877   3.604  11.115  0.00  0.00    +0.000 A 
ATOM     12  C   UNL     1      45.048   3.929  11.783  0.00  0.00    +0.000 A 
BRANCH  11  13
ATOM     13  O   UNL     1      43.896   2.430  10.388  0.00  0.00    +0.000 OA
ATOM     14  C   UNL     1      44.866   2.447   9.345  0.00  0.00    +0.000 C 
ENDBRANCH  11  13
ENDBRANCH   3   7
BRANCH   5  15
ATOM     15  C   UNL     1      48.520   8.471  13.171  0.00  0.00    +0.000 C 
ATOM     16  C   UNL     1      50.056   8.407  13.172  0.00  0.00    +0.000 C 
BRANCH  15  17
ATOM     17  C   UNL     1      48.060   8.948  11.771  0.00  0.00    +0.000 C 
BRANCH  17  18
ATOM     18  N   UNL     1      47.570  10.334  11.760  0.00  0.00    +0.000 N 
ATOM     19  C   UNL     1      46.174  10.443  11.693  0.00  0.00    +0.000 A 
ATOM     20  C   UNL     1      45.558  11.700  11.771  0.00  0.00    +0.000 A 
ATOM     21  N   UNL     1      44.212  11.903  11.687  0.00  0.00    +0.000 NA
ATOM     22  C   UNL     1      43.487  10.761  11.544  0.00  0.00    +0.000 A 
ATOM     23  C   UNL     1      44.072   9.509  11.499  0.00  0.00    +0.000 A 
ATOM     24  N   UNL     1      45.415   9.332  11.573  0.00  0.00    +0.000 NA
ATOM     25  H   UNL     1      48.017  10.922  11.066  0.00  0.00    +0.000 HD
BRANCH  22  26
ATOM     26  C   UNL     1      42.011  10.875  11.400  0.00  0.00    +0.000 C 
ATOM     27  N   UNL     1      41.339  11.378  12.480  0.00  0.00    +0.000 N 
ATOM     28  O   UNL     1      41.427  10.552  10.374  0.00  0.00    +0.000 OA
ATOM     29  H   UNL     1      41.846  11.649  13.315  0.00  0.00    +0.000 HD
ATOM     30  H   UNL     1      40.338  11.500  12.426  0.00  0.00    +0.000 HD
ENDBRANCH  22  26
ENDBRANCH  17  18
ENDBRANCH  15  17
ENDBRANCH   5  15
BRANCH   1  31
ATOM     31  O   UNL     1      48.430   4.679  16.207  0.00  0.00    +0.000 OA
BRANCH  31  32
ATOM     32  C   UNL     1      47.554   3.936  17.057  0.00  0.00    +0.000 C 
BRANCH  32  34
ATOM     33  C   UNL     1      49.581   2.453  17.103  0.00  0.00    +0.000 C 
ATOM     34  C   UNL     1      48.065   2.503  17.137  0.00  0.00    +0.000 C 
ENDBRANCH  32  34
ENDBRANCH  31  32
ENDBRANCH   1  31
TORSDOF 9
ENDMDL
MODEL 8
REMARK VINA RESULT:    -6.316      4.345      6.006
REMARK INTER + INTRA:         -11.049
REMARK INTER:                  -9.462
REMARK INTRA:                  -1.587
REMARK UNBOUND:                -1.410
REMARK  Name = 
REMARK  12 active torsions:
REMARK  status: ('A' for Active; 'I' for Inactive)
REMARK    1  A    between atoms: C_1  and  C_2
REMARK    2  A    between atoms: C_2  and  C_3
REMARK    3  A    between atoms: C_3  and  O_4
REMARK    4  A    between atoms: O_4  and  C_5
REMARK    5  A    between atoms: C_7  and  C_8
REMARK    6  A    between atoms: C_12  and  O_13
REMARK    7  A    between atoms: O_13  and  C_14
REMARK    8  A    between atoms: C_17  and  C_18
REMARK    9  A    between atoms: C_18  and  C_19
REMARK   10  A    between atoms: C_18  and  C_20
REMARK   11  A    between atoms: C_20  and  N_21
REMARK   12  A    between atoms: C_25  and  C_26
REMARK                            x       y       z     vdW  Elec       q    Type
REMARK                         _______ _______ _______ _____ _____    ______ ____
ROOT
ATOM      1  C   UNL     1      49.478   6.497  16.509  0.00  0.00    +0.000 A 
ATOM      2  C   UNL     1      48.922   7.301  17.498  0.00  0.00    +0.000 A 
ATOM      3  C   UNL     1      48.352   8.514  17.135  0.00  0.00    +0.000 A 
ATOM      4  N   UNL     1      48.276   8.902  15.840  0.00  0.00    +0.000 NA
ATOM      5  C   UNL     1      48.836   8.137  14.879  0.00  0.00    +0.000 A 
ATOM      6  C   UNL     1      49.448   6.927  15.186  0.00  0.00    +0.000 A 
ENDROOT
BRANCH   3   7
ATOM      7  C   UNL     1      47.826   9.483  18.113  0.00  0.00    +0.000 A 
ATOM      8  C   UNL     1      47.816  10.856  17.828  0.00  0.00    +0.000 A 
ATOM      9  C   UNL     1      47.341  11.745  18.778  0.00  0.00    +0.000 A 
ATOM     10  N   UNL     1      46.880  11.374  19.989  0.00  0.00    +0.000 NA
ATOM     11  C   UNL     1      46.908  10.055  20.263  0.00  0.00    +0.000 A 
ATOM     12  C   UNL     1      47.361   9.090  19.376  0.00  0.00    +0.000 A 
BRANCH  11  13
ATOM     13  O   UNL     1      46.474   9.597  21.492  0.00  0.00    +0.000 OA
ATOM     14  C   UNL     1      45.484  10.440  22.071  0.00  0.00    +0.000 C 
ENDBRANCH  11  13
ENDBRANCH   3   7
BRANCH   5  15
ATOM     15  C   UNL     1      48.812   8.650  13.447  0.00  0.00    +0.000 C 
ATOM     16  C   UNL     1      49.771   7.831  12.567  0.00  0.00    +0.000 C 
BRANCH  15  17
ATOM     17  C   UNL     1      47.414   8.629  12.779  0.00  0.00    +0.000 C 
BRANCH  17  18
ATOM     18  N   UNL     1      46.466   7.724  13.445  0.00  0.00    +0.000 N 
ATOM     19  C   UNL     1      45.901   6.763  12.594  0.00  0.00    +0.000 A 
ATOM     20  C   UNL     1      45.053   5.773  13.108  0.00  0.00    +0.000 A 
ATOM     21  N   UNL     1      44.440   4.818  12.352  0.00  0.00    +0.000 NA
ATOM     22  C   UNL     1      44.741   4.882  11.027  0.00  0.00    +0.000 A 
ATOM     23  C   UNL     1      45.602   5.830  10.504  0.00  0.00    +0.000 A 
ATOM     24  N   UNL     1      46.192   6.778  11.275  0.00  0.00    +0.000 NA
ATOM     25  H   UNL     1      45.752   8.202  13.982  0.00  0.00    +0.000 HD
BRANCH  22  26
ATOM     26  C   UNL     1      44.089   3.910  10.108  0.00  0.00    +0.000 C 
ATOM     27  N   UNL     1      44.068   4.257   8.785  0.00  0.00    +0.000 N 
ATOM     28  O   UNL     1      43.610   2.855  10.504  0.00  0.00    +0.000 OA
ATOM     29  H   UNL     1      44.481   5.131   8.480  0.00  0.00    +0.000 HD
ATOM     30  H   UNL     1      43.659   3.621   8.115  0.00  0.00    +0.000 HD
ENDBRANCH  22  26
ENDBRANCH  17  18
ENDBRANCH  15  17
ENDBRANCH   5  15
BRANCH   1  31
ATOM     31  O   UNL     1      50.085   5.288  16.714  0.00  0.00    +0.000 OA
BRANCH  31  32
ATOM     32  C   UNL     1      49.545   4.474  17.757  0.00  0.00    +0.000 C 
BRANCH  32  34
ATOM     33  C   UNL     1      47.290   3.443  17.355  0.00  0.00    +0.000 C 
ATOM     34  C   UNL     1      48.783   3.320  17.118  0.00  0.00    +0.000 C 
ENDBRANCH  32  34
ENDBRANCH  31  32
ENDBRANCH   1  31
TORSDOF 9
ENDMDL
MODEL 9
REMARK VINA RESULT:    -6.140      3.417      8.667
REMARK INTER + INTRA:         -10.781
REMARK INTER:                  -8.999
REMARK INTRA:                  -1.782
REMARK UNBOUND:                -1.410
REMARK  Name = 
REMARK  12 active torsions:
REMARK  status: ('A' for Active; 'I' for Inactive)
REMARK    1  A    between atoms: C_1  and  C_2
REMARK    2  A    between atoms: C_2  and  C_3
REMARK    3  A    between atoms: C_3  and  O_4
REMARK    4  A    between atoms: O_4  and  C_5
REMARK    5  A    between atoms: C_7  and  C_8
REMARK    6  A    between atoms: C_12  and  O_13
REMARK    7  A    between atoms: O_13  and  C_14
REMARK    8  A    between atoms: C_17  and  C_18
REMARK    9  A    between atoms: C_18  and  C_19
REMARK   10  A    between atoms: C_18  and  C_20
REMARK   11  A    between atoms: C_20  and  N_21
REMARK   12  A    between atoms: C_25  and  C_26
REMARK                            x       y       z     vdW  Elec       q    Type
REMARK                         _______ _______ _______ _____ _____    ______ ____
ROOT
ATOM      1  C   UNL     1      45.207   9.581  12.150  0.00  0.00    +0.000 A 
ATOM      2  C   UNL     1      45.035   8.218  12.367  0.00  0.00    +0.000 A 
ATOM      3  C   UNL     1      46.158   7.417  12.531  0.00  0.00    +0.000 A 
ATOM      4  N   UNL     1      47.406   7.941  12.539  0.00  0.00    +0.000 NA
ATOM      5  C   UNL     1      47.580   9.259  12.304  0.00  0.00    +0.000 A 
ATOM      6  C   UNL     1      46.495  10.104  12.103  0.00  0.00    +0.000 A 
ENDROOT
BRANCH   3   7
ATOM      7  C   UNL     1      46.090   5.951  12.667  0.00  0.00    +0.000 A 
ATOM      8  C   UNL     1      45.206   5.198  11.881  0.00  0.00    +0.000 A 
ATOM      9  C   UNL     1      45.145   3.825  12.050  0.00  0.00    +0.000 A 
ATOM     10  N   UNL     1      45.891   3.145  12.944  0.00  0.00    +0.000 NA
ATOM     11  C   UNL     1      46.726   3.877  13.708  0.00  0.00    +0.000 A 
ATOM     12  C   UNL     1      46.859   5.253  13.609  0.00  0.00    +0.000 A 
BRANCH  11  13
ATOM     13  O   UNL     1      47.509   3.256  14.662  0.00  0.00    +0.000 OA
ATOM     14  C   UNL     1      47.485   3.932  15.915  0.00  0.00    +0.000 C 
ENDBRANCH  11  13
ENDBRANCH   3   7
BRANCH   5  15
ATOM     15  C   UNL     1      49.003   9.793  12.229  0.00  0.00    +0.000 C 
ATOM     16  C   UNL     1      49.008  11.229  11.676  0.00  0.00    +0.000 C 
BRANCH  15  17
ATOM     17  C   UNL     1      49.760   9.798  13.580  0.00  0.00    +0.000 C 
BRANCH  17  18
ATOM     18  N   UNL     1      48.905   9.460  14.727  0.00  0.00    +0.000 N 
ATOM     19  C   UNL     1      49.373   8.380  15.488  0.00  0.00    +0.000 A 
ATOM     20  C   UNL     1      48.713   8.004  16.666  0.00  0.00    +0.000 A 
ATOM     21  N   UNL     1      49.081   6.954  17.453  0.00  0.00    +0.000 NA
ATOM     22  C   UNL     1      50.185   6.291  17.012  0.00  0.00    +0.000 A 
ATOM     23  C   UNL     1      50.871   6.666  15.871  0.00  0.00    +0.000 A 
ATOM     24  N   UNL     1      50.479   7.709  15.097  0.00  0.00    +0.000 NA
ATOM     25  H   UNL     1      47.927   9.342  14.488  0.00  0.00    +0.000 HD
BRANCH  22  26
ATOM     26  C   UNL     1      50.646   5.100  17.776  0.00  0.00    +0.000 C 
ATOM     27  N   UNL     1      50.734   5.255  19.132  0.00  0.00    +0.000 N 
ATOM     28  O   UNL     1      50.918   4.039  17.230  0.00  0.00    +0.000 OA
ATOM     29  H   UNL     1      50.493   6.140  19.561  0.00  0.00    +0.000 HD
ATOM     30  H   UNL     1      51.019   4.469  19.700  0.00  0.00    +0.000 HD
ENDBRANCH  22  26
ENDBRANCH  17  18
ENDBRANCH  15  17
ENDBRANCH   5  15
BRANCH   1  31
ATOM     31  O   UNL     1      44.202  10.490  11.958  0.00  0.00    +0.000 OA
BRANCH  31  32
ATOM     32  C   UNL     1      43.394  10.307  10.795  0.00  0.00    +0.000 C 
BRANCH  32  34
ATOM     33  C   UNL     1      43.262  10.923   8.363  0.00  0.00    +0.000 C 
ATOM     34  C   UNL     1      43.918  11.224   9.697  0.00  0.00    +0.000 C 
ENDBRANCH  32  34
ENDBRANCH  31  32
ENDBRANCH   1  31
TORSDOF 9
ENDMDL
