MODEL 1
REMARK VINA RESULT:    -8.082      0.000      0.000
REMARK INTER + INTRA:         -12.856
REMARK INTER:                 -11.389
REMARK INTRA:                  -1.467
REMARK UNBOUND:                -1.467
REMARK  Name = 
REMARK  8 active torsions:
REMARK  status: ('A' for Active; 'I' for Inactive)
REMARK    1  A    between atoms: C_1  and  N_2
REMARK    2  A    between atoms: C_4  and  C_5
REMARK    3  A    between atoms: N_7  and  C_8
REMARK    4  A    between atoms: C_8  and  C_9
REMARK    5  A    between atoms: C_12  and  C_13
REMARK    6  A    between atoms: C_13  and  C_14
REMARK    7  A    between atoms: C_14  and  O_15
REMARK    8  A    between atoms: O_15  and  C_16
REMARK                            x       y       z     vdW  Elec       q    Type
REMARK                         _______ _______ _______ _____ _____    ______ ____
ROOT
ATOM      1  C   UNL     1      47.135   8.109  13.146  0.00  0.00    +0.000 C 
ENDROOT
BRANCH   1   2
ATOM      2  C   UNL     1      46.270   7.127  12.409  0.00  0.00    +0.000 A 
ATOM      3  C   UNL     1      45.034   6.749  12.940  0.00  0.00    +0.000 A 
ATOM      4  C   UNL     1      44.215   5.848  12.258  0.00  0.00    +0.000 A 
ATOM      5  C   UNL     1      44.612   5.293  11.032  0.00  0.00    +0.000 A 
ATOM      6  C   UNL     1      45.861   5.662  10.512  0.00  0.00    +0.000 A 
ATOM      7  C   UNL     1      46.683   6.565  11.195  0.00  0.00    +0.000 A 
BRANCH   5   8
ATOM      8  C   UNL     1      43.754   4.321  10.245  0.00  0.00    +0.000 C 
BRANCH   8   9
ATOM      9  C   UNL     1      44.315   2.902  10.154  0.00  0.00    +0.000 C 
BRANCH   9  10
ATOM     10  O   UNL     1      44.211   2.406   8.817  0.00  0.00    +0.000 OA
BRANCH  10  11
ATOM     11  C   UNL     1      45.407   2.350   8.146  0.00  0.00    +0.000 A 
ATOM     12  C   UNL     1      46.238   1.226   8.081  0.00  0.00    +0.000 A 
ATOM     13  C   UNL     1      47.434   1.274   7.360  0.00  0.00    +0.000 A 
ATOM     14  C   UNL     1      47.802   2.441   6.695  0.00  0.00    +0.000 A 
ATOM     15  C   UNL     1      46.971   3.558   6.746  0.00  0.00    +0.000 A 
ATOM     16  C   UNL     1      45.773   3.510   7.463  0.00  0.00    +0.000 A 
ENDBRANCH  10  11
ENDBRANCH   9  10
ENDBRANCH   8   9
ENDBRANCH   5   8
ENDBRANCH   1   2
BRANCH   1  19
ATOM     17  C   UNL     1      48.714   7.005  14.638  0.00  0.00    +0.000 C 
ATOM     18  O   UNL     1      49.547   6.934  13.746  0.00  0.00    +0.000 OA
ATOM     19  N   UNL     1      47.496   7.624  14.455  0.00  0.00    +0.000 N 
ATOM     20  H   UNL     1      46.790   7.575  15.175  0.00  0.00    +0.000 HD
BRANCH  17  24
ATOM     21  C   UNL     1      50.533   6.420  19.241  0.00  0.00    +0.000 C 
ATOM     22  N   UNL     1      49.775   6.201  18.031  0.00  0.00    +0.000 N 
ATOM     23  C   UNL     1      49.756   7.025  16.939  0.00  0.00    +0.000 A 
ATOM     24  C   UNL     1      48.937   6.452  15.970  0.00  0.00    +0.000 A 
ATOM     25  C   UNL     1      48.427   5.227  16.533  0.00  0.00    +0.000 A 
ATOM     26  C   UNL     1      47.575   4.177  16.197  0.00  0.00    +0.000 A 
ATOM     27 CL   UNL     1      46.723   4.162  14.732  0.00  0.00    +0.000 Cl
ATOM     28  N   UNL     1      47.320   3.158  17.037  0.00  0.00    +0.000 NA
ATOM     29  C   UNL     1      47.933   3.187  18.227  0.00  0.00    +0.000 A 
ATOM     30  N   UNL     1      48.769   4.124  18.695  0.00  0.00    +0.000 NA
ATOM     31  C   UNL     1      48.974   5.115  17.808  0.00  0.00    +0.000 A 
ENDBRANCH  17  24
ENDBRANCH   1  19
TORSDOF 7
ENDMDL
MODEL 2
REMARK VINA RESULT:    -7.677      2.060      2.630
REMARK INTER + INTRA:         -12.285
REMARK INTER:                 -11.233
REMARK INTRA:                  -1.052
REMARK UNBOUND:                -1.467
REMARK  Name = 
REMARK  8 active torsions:
REMARK  status: ('A' for Active; 'I' for Inactive)
REMARK    1  A    between atoms: C_1  and  N_2
REMARK    2  A    between atoms: C_4  and  C_5
REMARK    3  A    between atoms: N_7  and  C_8
REMARK    4  A    between atoms: C_8  and  C_9
REMARK    5  A    between atoms: C_12  and  C_13
REMARK    6  A    between atoms: C_13  and  C_14
REMARK    7  A    between atoms: C_14  and  O_15
REMARK    8  A    between atoms: O_15  and  C_16
REMARK                            x       y       z     vdW  Elec       q    Type
REMARK                         _______ _______ _______ _____ _____    ______ ____
ROOT
ATOM      1  C   UNL     1      47.810   6.906  13.387  0.00  0.00    +0.000 C 
ENDROOT
BRANCH   1   2
ATOM      2  C   UNL     1      46.844   5.967  12.721  0.00  0.00    +0.000 A 
ATOM      3  C   UNL     1      46.485   4.773  13.353  0.00  0.00    +0.000 A 
ATOM      4  C   UNL     1      45.578   3.899  12.751  0.00  0.00    +0.000 A 
ATOM      5  C   UNL     1      45.013   4.189  11.500  0.00  0.00    +0.000 A 
ATOM      6  C   UNL     1      45.389   5.380  10.864  0.00  0.00    +0.000 A 
ATOM      7  C   UNL     1      46.299   6.257  11.465  0.00  0.00    +0.000 A 
BRANCH   5   8
ATOM      8  C   UNL     1      44.013   3.280  10.812  0.00  0.00    +0.000 C 
BRANCH   8   9
ATOM      9  C   UNL     1      44.332   2.969   9.350  0.00  0.00    +0.000 C 
BRANCH   9  10
ATOM     10  O   UNL     1      45.386   2.006   9.260  0.00  0.00    +0.000 OA
BRANCH  10  11
ATOM     11  C   UNL     1      46.102   2.067   8.090  0.00  0.00    +0.000 A 
ATOM     12  C   UNL     1      46.902   1.038   7.584  0.00  0.00    +0.000 A 
ATOM     13  C   UNL     1      47.582   1.202   6.375  0.00  0.00    +0.000 A 
ATOM     14  C   UNL     1      47.461   2.392   5.662  0.00  0.00    +0.000 A 
ATOM     15  C   UNL     1      46.654   3.416   6.155  0.00  0.00    +0.000 A 
ATOM     16  C   UNL     1      45.970   3.251   7.362  0.00  0.00    +0.000 A 
ENDBRANCH  10  11
ENDBRANCH   9  10
ENDBRANCH   8   9
ENDBRANCH   5   8
ENDBRANCH   1   2
BRANCH   1  19
ATOM     17  C   UNL     1      48.951   6.710  15.531  0.00  0.00    +0.000 C 
ATOM     18  O   UNL     1      50.041   6.842  14.993  0.00  0.00    +0.000 OA
ATOM     19  N   UNL     1      47.771   6.781  14.823  0.00  0.00    +0.000 N 
ATOM     20  H   UNL     1      46.895   6.565  15.275  0.00  0.00    +0.000 HD
BRANCH  17  24
ATOM     21  C   UNL     1      48.770   4.334  19.909  0.00  0.00    +0.000 C 
ATOM     22  N   UNL     1      48.715   5.385  18.919  0.00  0.00    +0.000 N 
ATOM     23  C   UNL     1      49.008   5.246  17.590  0.00  0.00    +0.000 A 
ATOM     24  C   UNL     1      48.803   6.473  16.964  0.00  0.00    +0.000 A 
ATOM     25  C   UNL     1      48.384   7.394  17.990  0.00  0.00    +0.000 A 
ATOM     26  C   UNL     1      48.037   8.736  18.136  0.00  0.00    +0.000 A 
ATOM     27 CL   UNL     1      48.115   9.818  16.835  0.00  0.00    +0.000 Cl
ATOM     28  N   UNL     1      47.695   9.267  19.324  0.00  0.00    +0.000 NA
ATOM     29  C   UNL     1      47.693   8.441  20.378  0.00  0.00    +0.000 A 
ATOM     30  N   UNL     1      48.006   7.138  20.398  0.00  0.00    +0.000 NA
ATOM     31  C   UNL     1      48.344   6.674  19.181  0.00  0.00    +0.000 A 
ENDBRANCH  17  24
ENDBRANCH   1  19
TORSDOF 7
ENDMDL
MODEL 3
REMARK VINA RESULT:    -7.561      1.677      1.983
REMARK INTER + INTRA:         -12.123
REMARK INTER:                 -10.888
REMARK INTRA:                  -1.235
REMARK UNBOUND:                -1.467
REMARK  Name = 
REMARK  8 active torsions:
REMARK  status: ('A' for Active; 'I' for Inactive)
REMARK    1  A    between atoms: C_1  and  N_2
REMARK    2  A    between atoms: C_4  and  C_5
REMARK    3  A    between atoms: N_7  and  C_8
REMARK    4  A    between atoms: C_8  and  C_9
REMARK    5  A    between atoms: C_12  and  C_13
REMARK    6  A    between atoms: C_13  and  C_14
REMARK    7  A    between atoms: C_14  and  O_15
REMARK    8  A    between atoms: O_15  and  C_16
REMARK                            x       y       z     vdW  Elec       q    Type
REMARK                         _______ _______ _______ _____ _____    ______ ____
ROOT
ATOM      1  C   UNL     1      48.187   7.163  13.549  0.00  0.00    +0.000 C 
ENDROOT
BRANCH   1   2
ATOM      2  C   UNL     1      47.172   6.178  13.042  0.00  0.00    +0.000 A 
ATOM      3  C   UNL     1      46.551   6.390  11.808  0.00  0.00    +0.000 A 
ATOM      4  C   UNL     1      45.616   5.476  11.320  0.00  0.00    +0.000 A 
ATOM      5  C   UNL     1      45.269   4.331  12.054  0.00  0.00    +0.000 A 
ATOM      6  C   UNL     1      45.882   4.133  13.299  0.00  0.00    +0.000 A 
ATOM      7  C   UNL     1      46.820   5.048  13.790  0.00  0.00    +0.000 A 
BRANCH   5   8
ATOM      8  C   UNL     1      44.270   3.302  11.562  0.00  0.00    +0.000 C 
BRANCH   8   9
ATOM      9  C   UNL     1      44.085   3.266  10.045  0.00  0.00    +0.000 C 
BRANCH   9  10
ATOM     10  O   UNL     1      44.574   2.034   9.508  0.00  0.00    +0.000 OA
BRANCH  10  11
ATOM     11  C   UNL     1      45.561   2.185   8.567  0.00  0.00    +0.000 A 
ATOM     12  C   UNL     1      46.364   1.152   8.073  0.00  0.00    +0.000 A 
ATOM     13  C   UNL     1      47.336   1.416   7.105  0.00  0.00    +0.000 A 
ATOM     14  C   UNL     1      47.507   2.711   6.620  0.00  0.00    +0.000 A 
ATOM     15  C   UNL     1      46.700   3.741   7.100  0.00  0.00    +0.000 A 
ATOM     16  C   UNL     1      45.725   3.477   8.065  0.00  0.00    +0.000 A 
ENDBRANCH  10  11
ENDBRANCH   9  10
ENDBRANCH   8   9
ENDBRANCH   5   8
ENDBRANCH   1   2
BRANCH   1  19
ATOM     17  C   UNL     1      49.128   6.997  15.791  0.00  0.00    +0.000 C 
ATOM     18  O   UNL     1      50.195   6.603  15.343  0.00  0.00    +0.000 OA
ATOM     19  N   UNL     1      48.078   7.355  14.974  0.00  0.00    +0.000 N 
ATOM     20  H   UNL     1      47.178   7.577  15.373  0.00  0.00    +0.000 HD
BRANCH  17  24
ATOM     21  C   UNL     1      48.414   9.068  20.267  0.00  0.00    +0.000 C 
ATOM     22  N   UNL     1      48.568   8.078  19.226  0.00  0.00    +0.000 N 
ATOM     23  C   UNL     1      48.725   8.339  17.893  0.00  0.00    +0.000 A 
ATOM     24  C   UNL     1      48.875   7.128  17.222  0.00  0.00    +0.000 A 
ATOM     25  C   UNL     1      48.782   6.091  18.219  0.00  0.00    +0.000 A 
ATOM     26  C   UNL     1      48.810   4.701  18.312  0.00  0.00    +0.000 A 
ATOM     27 CL   UNL     1      48.929   3.723  16.933  0.00  0.00    +0.000 Cl
ATOM     28  N   UNL     1      48.668   4.054  19.483  0.00  0.00    +0.000 NA
ATOM     29  C   UNL     1      48.505   4.809  20.576  0.00  0.00    +0.000 A 
ATOM     30  N   UNL     1      48.452   6.146  20.647  0.00  0.00    +0.000 NA
ATOM     31  C   UNL     1      48.592   6.728  19.442  0.00  0.00    +0.000 A 
ENDBRANCH  17  24
ENDBRANCH   1  19
TORSDOF 7
ENDMDL
MODEL 4
REMARK VINA RESULT:    -6.918      2.272      2.966
REMARK INTER + INTRA:         -11.216
REMARK INTER:                 -10.244
REMARK INTRA:                  -0.972
REMARK UNBOUND:                -1.467
REMARK  Name = 
REMARK  8 active torsions:
REMARK  status: ('A' for Active; 'I' for Inactive)
REMARK    1  A    between atoms: C_1  and  N_2
REMARK    2  A    between atoms: C_4  and  C_5
REMARK    3  A    between atoms: N_7  and  C_8
REMARK    4  A    between atoms: C_8  and  C_9
REMARK    5  A    between atoms: C_12  and  C_13
REMARK    6  A    between atoms: C_13  and  C_14
REMARK    7  A    between atoms: C_14  and  O_15
REMARK    8  A    between atoms: O_15  and  C_16
REMARK                            x       y       z     vdW  Elec       q    Type
REMARK                         _______ _______ _______ _____ _____    ______ ____
ROOT
ATOM      1  C   UNL     1      48.822   7.841  15.491  0.00  0.00    +0.000 C 
ENDROOT
BRANCH   1   2
ATOM      2  C   UNL     1      48.033   7.406  14.288  0.00  0.00    +0.000 A 
ATOM      3  C   UNL     1      47.571   8.358  13.376  0.00  0.00    +0.000 A 
ATOM      4  C   UNL     1      46.848   7.966  12.247  0.00  0.00    +0.000 A 
ATOM      5  C   UNL     1      46.561   6.614  12.005  0.00  0.00    +0.000 A 
ATOM      6  C   UNL     1      47.013   5.665  12.932  0.00  0.00    +0.000 A 
ATOM      7  C   UNL     1      47.737   6.056  14.064  0.00  0.00    +0.000 A 
BRANCH   5   8
ATOM      8  C   UNL     1      45.793   6.136  10.788  0.00  0.00    +0.000 C 
BRANCH   8   9
ATOM      9  C   UNL     1      45.109   4.780  10.956  0.00  0.00    +0.000 C 
BRANCH   9  10
ATOM     10  O   UNL     1      44.446   4.399   9.748  0.00  0.00    +0.000 OA
BRANCH  10  11
ATOM     11  C   UNL     1      45.218   3.647   8.898  0.00  0.00    +0.000 A 
ATOM     12  C   UNL     1      45.991   4.159   7.852  0.00  0.00    +0.000 A 
ATOM     13  C   UNL     1      46.750   3.303   7.051  0.00  0.00    +0.000 A 
ATOM     14  C   UNL     1      46.747   1.932   7.294  0.00  0.00    +0.000 A 
ATOM     15  C   UNL     1      45.988   1.418   8.345  0.00  0.00    +0.000 A 
ATOM     16  C   UNL     1      45.232   2.274   9.149  0.00  0.00    +0.000 A 
ENDBRANCH  10  11
ENDBRANCH   9  10
ENDBRANCH   8   9
ENDBRANCH   5   8
ENDBRANCH   1   2
BRANCH   1  19
ATOM     17  C   UNL     1      49.618   6.198  17.105  0.00  0.00    +0.000 C 
ATOM     18  O   UNL     1      48.641   6.384  17.816  0.00  0.00    +0.000 OA
ATOM     19  N   UNL     1      49.775   6.837  15.894  0.00  0.00    +0.000 N 
ATOM     20  H   UNL     1      50.639   6.743  15.380  0.00  0.00    +0.000 HD
BRANCH  17  24
ATOM     21  C   UNL     1      54.087   4.539  18.560  0.00  0.00    +0.000 C 
ATOM     22  N   UNL     1      52.713   4.558  18.115  0.00  0.00    +0.000 N 
ATOM     23  C   UNL     1      51.944   5.676  17.941  0.00  0.00    +0.000 A 
ATOM     24  C   UNL     1      50.694   5.282  17.470  0.00  0.00    +0.000 A 
ATOM     25  C   UNL     1      50.722   3.844  17.381  0.00  0.00    +0.000 A 
ATOM     26  C   UNL     1      49.885   2.784  17.035  0.00  0.00    +0.000 A 
ATOM     27 CL   UNL     1      48.266   3.038  16.605  0.00  0.00    +0.000 Cl
ATOM     28  N   UNL     1      50.286   1.502  17.094  0.00  0.00    +0.000 NA
ATOM     29  C   UNL     1      51.542   1.277  17.496  0.00  0.00    +0.000 A 
ATOM     30  N   UNL     1      52.459   2.184  17.865  0.00  0.00    +0.000 NA
ATOM     31  C   UNL     1      51.991   3.443  17.789  0.00  0.00    +0.000 A 
ENDBRANCH  17  24
ENDBRANCH   1  19
TORSDOF 7
ENDMDL
MODEL 5
REMARK VINA RESULT:    -6.851      2.254      3.117
REMARK INTER + INTRA:         -11.122
REMARK INTER:                 -10.215
REMARK INTRA:                  -0.907
REMARK UNBOUND:                -1.467
REMARK  Name = 
REMARK  8 active torsions:
REMARK  status: ('A' for Active; 'I' for Inactive)
REMARK    1  A    between atoms: C_1  and  N_2
REMARK    2  A    between atoms: C_4  and  C_5
REMARK    3  A    between atoms: N_7  and  C_8
REMARK    4  A    between atoms: C_8  and  C_9
REMARK    5  A    between atoms: C_12  and  C_13
REMARK    6  A    between atoms: C_13  and  C_14
REMARK    7  A    between atoms: C_14  and  O_15
REMARK    8  A    between atoms: O_15  and  C_16
REMARK                            x       y       z     vdW  Elec       q    Type
REMARK                         _______ _______ _______ _____ _____    ______ ____
ROOT
ATOM      1  C   UNL     1      47.377   4.241  15.431  0.00  0.00    +0.000 C 
ENDROOT
BRANCH   1   2
ATOM      2  C   UNL     1      46.761   4.541  14.094  0.00  0.00    +0.000 A 
ATOM      3  C   UNL     1      45.979   3.575  13.454  0.00  0.00    +0.000 A 
ATOM      4  C   UNL     1      45.390   3.846  12.218  0.00  0.00    +0.000 A 
ATOM      5  C   UNL     1      45.572   5.085  11.584  0.00  0.00    +0.000 A 
ATOM      6  C   UNL     1      46.370   6.044  12.223  0.00  0.00    +0.000 A 
ATOM      7  C   UNL     1      46.962   5.774  13.462  0.00  0.00    +0.000 A 
BRANCH   5   8
ATOM      8  C   UNL     1      44.942   5.433  10.250  0.00  0.00    +0.000 C 
BRANCH   8   9
ATOM      9  C   UNL     1      44.572   4.229   9.384  0.00  0.00    +0.000 C 
BRANCH   9  10
ATOM     10  O   UNL     1      45.167   4.340   8.088  0.00  0.00    +0.000 OA
BRANCH  10  11
ATOM     11  C   UNL     1      45.891   3.238   7.709  0.00  0.00    +0.000 A 
ATOM     12  C   UNL     1      45.806   1.976   8.307  0.00  0.00    +0.000 A 
ATOM     13  C   UNL     1      46.584   0.917   7.833  0.00  0.00    +0.000 A 
ATOM     14  C   UNL     1      47.445   1.109   6.756  0.00  0.00    +0.000 A 
ATOM     15  C   UNL     1      47.523   2.361   6.148  0.00  0.00    +0.000 A 
ATOM     16  C   UNL     1      46.743   3.420   6.618  0.00  0.00    +0.000 A 
ENDBRANCH  10  11
ENDBRANCH   9  10
ENDBRANCH   8   9
ENDBRANCH   5   8
ENDBRANCH   1   2
BRANCH   1  19
ATOM     17  C   UNL     1      49.093   5.340  16.767  0.00  0.00    +0.000 C 
ATOM     18  O   UNL     1      49.742   4.306  16.832  0.00  0.00    +0.000 OA
ATOM     19  N   UNL     1      47.923   5.426  16.044  0.00  0.00    +0.000 N 
ATOM     20  H   UNL     1      47.357   6.260  16.094  0.00  0.00    +0.000 HD
BRANCH  17  24
ATOM     21  C   UNL     1      51.739   9.394  17.951  0.00  0.00    +0.000 C 
ATOM     22  N   UNL     1      50.711   8.380  17.962  0.00  0.00    +0.000 N 
ATOM     23  C   UNL     1      50.597   7.347  17.073  0.00  0.00    +0.000 A 
ATOM     24  C   UNL     1      49.501   6.570  17.439  0.00  0.00    +0.000 A 
ATOM     25  C   UNL     1      48.923   7.195  18.601  0.00  0.00    +0.000 A 
ATOM     26  C   UNL     1      47.850   7.027  19.476  0.00  0.00    +0.000 A 
ATOM     27 CL   UNL     1      46.711   5.793  19.253  0.00  0.00    +0.000 Cl
ATOM     28  N   UNL     1      47.612   7.872  20.495  0.00  0.00    +0.000 NA
ATOM     29  C   UNL     1      48.464   8.893  20.646  0.00  0.00    +0.000 A 
ATOM     30  N   UNL     1      49.531   9.189  19.890  0.00  0.00    +0.000 NA
ATOM     31  C   UNL     1      49.706   8.310  18.887  0.00  0.00    +0.000 A 
ENDBRANCH  17  24
ENDBRANCH   1  19
TORSDOF 7
ENDMDL
MODEL 6
REMARK VINA RESULT:    -6.828      2.272      2.867
REMARK INTER + INTRA:         -11.090
REMARK INTER:                  -9.771
REMARK INTRA:                  -1.319
REMARK UNBOUND:                -1.467
REMARK  Name = 
REMARK  8 active torsions:
REMARK  status: ('A' for Active; 'I' for Inactive)
REMARK    1  A    between atoms: C_1  and  N_2
REMARK    2  A    between atoms: C_4  and  C_5
REMARK    3  A    between atoms: N_7  and  C_8
REMARK    4  A    between atoms: C_8  and  C_9
REMARK    5  A    between atoms: C_12  and  C_13
REMARK    6  A    between atoms: C_13  and  C_14
REMARK    7  A    between atoms: C_14  and  O_15
REMARK    8  A    between atoms: O_15  and  C_16
REMARK                            x       y       z     vdW  Elec       q    Type
REMARK                         _______ _______ _______ _____ _____    ______ ____
ROOT
ATOM      1  C   UNL     1      49.019   7.675  12.743  0.00  0.00    +0.000 C 
ENDROOT
BRANCH   1   2
ATOM      2  C   UNL     1      47.772   6.845  12.629  0.00  0.00    +0.000 A 
ATOM      3  C   UNL     1      46.837   7.125  11.629  0.00  0.00    +0.000 A 
ATOM      4  C   UNL     1      45.681   6.353  11.504  0.00  0.00    +0.000 A 
ATOM      5  C   UNL     1      45.423   5.286  12.379  0.00  0.00    +0.000 A 
ATOM      6  C   UNL     1      46.357   5.021  13.391  0.00  0.00    +0.000 A 
ATOM      7  C   UNL     1      47.516   5.794  13.518  0.00  0.00    +0.000 A 
BRANCH   5   8
ATOM      8  C   UNL     1      44.191   4.409  12.276  0.00  0.00    +0.000 C 
BRANCH   8   9
ATOM      9  C   UNL     1      44.326   3.227  11.317  0.00  0.00    +0.000 C 
BRANCH   9  10
ATOM     10  O   UNL     1      43.984   3.619   9.985  0.00  0.00    +0.000 OA
BRANCH  10  11
ATOM     11  C   UNL     1      44.931   3.295   9.046  0.00  0.00    +0.000 A 
ATOM     12  C   UNL     1      45.591   4.212   8.222  0.00  0.00    +0.000 A 
ATOM     13  C   UNL     1      46.548   3.774   7.304  0.00  0.00    +0.000 A 
ATOM     14  C   UNL     1      46.855   2.419   7.208  0.00  0.00    +0.000 A 
ATOM     15  C   UNL     1      46.210   1.503   8.036  0.00  0.00    +0.000 A 
ATOM     16  C   UNL     1      45.256   1.941   8.958  0.00  0.00    +0.000 A 
ENDBRANCH  10  11
ENDBRANCH   9  10
ENDBRANCH   8   9
ENDBRANCH   5   8
ENDBRANCH   1   2
BRANCH   1  19
ATOM     17  C   UNL     1      50.461   7.893  14.696  0.00  0.00    +0.000 C 
ATOM     18  O   UNL     1      50.075   9.037  14.886  0.00  0.00    +0.000 OA
ATOM     19  N   UNL     1      49.953   7.107  13.683  0.00  0.00    +0.000 N 
ATOM     20  H   UNL     1      50.364   6.206  13.487  0.00  0.00    +0.000 HD
BRANCH  17  24
ATOM     21  C   UNL     1      54.930   6.611  16.492  0.00  0.00    +0.000 C 
ATOM     22  N   UNL     1      53.499   6.686  16.309  0.00  0.00    +0.000 N 
ATOM     23  C   UNL     1      52.848   7.503  15.426  0.00  0.00    +0.000 A 
ATOM     24  C   UNL     1      51.481   7.257  15.524  0.00  0.00    +0.000 A 
ATOM     25  C   UNL     1      51.316   6.248  16.540  0.00  0.00    +0.000 A 
ATOM     26  C   UNL     1      50.300   5.542  17.181  0.00  0.00    +0.000 A 
ATOM     27 CL   UNL     1      48.666   5.849  16.855  0.00  0.00    +0.000 Cl
ATOM     28  N   UNL     1      50.549   4.637  18.145  0.00  0.00    +0.000 NA
ATOM     29  C   UNL     1      51.832   4.430  18.464  0.00  0.00    +0.000 A 
ATOM     30  N   UNL     1      52.912   5.030  17.945  0.00  0.00    +0.000 NA
ATOM     31  C   UNL     1      52.592   5.926  16.994  0.00  0.00    +0.000 A 
ENDBRANCH  17  24
ENDBRANCH   1  19
TORSDOF 7
ENDMDL
MODEL 7
REMARK VINA RESULT:    -6.536      3.736      9.264
REMARK INTER + INTRA:         -10.677
REMARK INTER:                  -8.741
REMARK INTRA:                  -1.936
REMARK UNBOUND:                -1.467
REMARK  Name = 
REMARK  8 active torsions:
REMARK  status: ('A' for Active; 'I' for Inactive)
REMARK    1  A    between atoms: C_1  and  N_2
REMARK    2  A    between atoms: C_4  and  C_5
REMARK    3  A    between atoms: N_7  and  C_8
REMARK    4  A    between atoms: C_8  and  C_9
REMARK    5  A    between atoms: C_12  and  C_13
REMARK    6  A    between atoms: C_13  and  C_14
REMARK    7  A    between atoms: C_14  and  O_15
REMARK    8  A    between atoms: O_15  and  C_16
REMARK                            x       y       z     vdW  Elec       q    Type
REMARK                         _______ _______ _______ _____ _____    ______ ____
ROOT
ATOM      1  C   UNL     1      47.672   3.572  16.491  0.00  0.00    +0.000 C 
ENDROOT
BRANCH   1   2
ATOM      2  C   UNL     1      47.907   4.311  17.777  0.00  0.00    +0.000 A 
ATOM      3  C   UNL     1      47.001   5.290  18.194  0.00  0.00    +0.000 A 
ATOM      4  C   UNL     1      47.200   5.974  19.394  0.00  0.00    +0.000 A 
ATOM      5  C   UNL     1      48.313   5.706  20.205  0.00  0.00    +0.000 A 
ATOM      6  C   UNL     1      49.228   4.736  19.774  0.00  0.00    +0.000 A 
ATOM      7  C   UNL     1      49.030   4.048  18.571  0.00  0.00    +0.000 A 
BRANCH   5   8
ATOM      8  C   UNL     1      48.567   6.412  21.523  0.00  0.00    +0.000 C 
BRANCH   8   9
ATOM      9  C   UNL     1      48.310   7.918  21.502  0.00  0.00    +0.000 C 
BRANCH   9  10
ATOM     10  O   UNL     1      49.395   8.604  20.872  0.00  0.00    +0.000 OA
BRANCH  10  11
ATOM     11  C   UNL     1      49.213   8.826  19.530  0.00  0.00    +0.000 A 
ATOM     12  C   UNL     1      50.030   8.320  18.514  0.00  0.00    +0.000 A 
ATOM     13  C   UNL     1      49.747   8.600  17.175  0.00  0.00    +0.000 A 
ATOM     14  C   UNL     1      48.644   9.382  16.843  0.00  0.00    +0.000 A 
ATOM     15  C   UNL     1      47.818   9.877  17.851  0.00  0.00    +0.000 A 
ATOM     16  C   UNL     1      48.098   9.594  19.190  0.00  0.00    +0.000 A 
ENDBRANCH  10  11
ENDBRANCH   9  10
ENDBRANCH   8   9
ENDBRANCH   5   8
ENDBRANCH   1   2
BRANCH   1  19
ATOM     17  C   UNL     1      46.772   4.113  14.292  0.00  0.00    +0.000 C 
ATOM     18  O   UNL     1      47.582   3.376  13.749  0.00  0.00    +0.000 OA
ATOM     19  N   UNL     1      46.699   4.239  15.662  0.00  0.00    +0.000 N 
ATOM     20  H   UNL     1      46.092   4.931  16.076  0.00  0.00    +0.000 HD
BRANCH  17  24
ATOM     21  C   UNL     1      42.659   5.392  11.785  0.00  0.00    +0.000 C 
ATOM     22  N   UNL     1      43.959   5.466  12.408  0.00  0.00    +0.000 N 
ATOM     23  C   UNL     1      44.551   4.475  13.143  0.00  0.00    +0.000 A 
ATOM     24  C   UNL     1      45.811   4.915  13.541  0.00  0.00    +0.000 A 
ATOM     25  C   UNL     1      45.961   6.253  13.027  0.00  0.00    +0.000 A 
ATOM     26  C   UNL     1      46.886   7.296  13.032  0.00  0.00    +0.000 A 
ATOM     27 CL   UNL     1      48.337   7.188  13.902  0.00  0.00    +0.000 Cl
ATOM     28  N   UNL     1      46.653   8.468  12.416  0.00  0.00    +0.000 NA
ATOM     29  C   UNL     1      45.483   8.596  11.780  0.00  0.00    +0.000 A 
ATOM     30  N   UNL     1      44.496   7.693  11.691  0.00  0.00    +0.000 NA
ATOM     31  C   UNL     1      44.791   6.549  12.333  0.00  0.00    +0.000 A 
ENDBRANCH  17  24
ENDBRANCH   1  19
TORSDOF 7
ENDMDL
MODEL 8
REMARK VINA RESULT:    -6.381      4.064      5.969
REMARK INTER + INTRA:         -10.459
REMARK INTER:                  -9.481
REMARK INTRA:                  -0.978
REMARK UNBOUND:                -1.467
REMARK  Name = 
REMARK  8 active torsions:
REMARK  status: ('A' for Active; 'I' for Inactive)
REMARK    1  A    between atoms: C_1  and  N_2
REMARK    2  A    between atoms: C_4  and  C_5
REMARK    3  A    between atoms: N_7  and  C_8
REMARK    4  A    between atoms: C_8  and  C_9
REMARK    5  A    between atoms: C_12  and  C_13
REMARK    6  A    between atoms: C_13  and  C_14
REMARK    7  A    between atoms: C_14  and  O_15
REMARK    8  A    between atoms: O_15  and  C_16
REMARK                            x       y       z     vdW  Elec       q    Type
REMARK                         _______ _______ _______ _____ _____    ______ ____
ROOT
ATOM      1  C   UNL     1      46.719   8.412  12.691  0.00  0.00    +0.000 C 
ENDROOT
BRANCH   1   2
ATOM      2  C   UNL     1      45.879   7.170  12.597  0.00  0.00    +0.000 A 
ATOM      3  C   UNL     1      44.666   7.199  11.903  0.00  0.00    +0.000 A 
ATOM      4  C   UNL     1      43.882   6.049  11.797  0.00  0.00    +0.000 A 
ATOM      5  C   UNL     1      44.284   4.842  12.389  0.00  0.00    +0.000 A 
ATOM      6  C   UNL     1      45.493   4.823  13.098  0.00  0.00    +0.000 A 
ATOM      7  C   UNL     1      46.280   5.975  13.206  0.00  0.00    +0.000 A 
BRANCH   5   8
ATOM      8  C   UNL     1      43.476   3.562  12.291  0.00  0.00    +0.000 C 
BRANCH   8   9
ATOM      9  C   UNL     1      43.818   2.682  11.089  0.00  0.00    +0.000 C 
BRANCH   9  10
ATOM     10  O   UNL     1      43.758   3.439   9.878  0.00  0.00    +0.000 OA
BRANCH  10  11
ATOM     11  C   UNL     1      44.793   3.194   9.012  0.00  0.00    +0.000 A 
ATOM     12  C   UNL     1      45.446   4.165   8.245  0.00  0.00    +0.000 A 
ATOM     13  C   UNL     1      46.499   3.806   7.400  0.00  0.00    +0.000 A 
ATOM     14  C   UNL     1      46.909   2.478   7.320  0.00  0.00    +0.000 A 
ATOM     15  C   UNL     1      46.271   1.509   8.092  0.00  0.00    +0.000 A 
ATOM     16  C   UNL     1      45.221   1.867   8.941  0.00  0.00    +0.000 A 
ENDBRANCH  10  11
ENDBRANCH   9  10
ENDBRANCH   8   9
ENDBRANCH   5   8
ENDBRANCH   1   2
BRANCH   1  19
ATOM     17  C   UNL     1      49.067   8.990  12.387  0.00  0.00    +0.000 C 
ATOM     18  O   UNL     1      49.052   9.689  13.390  0.00  0.00    +0.000 OA
ATOM     19  N   UNL     1      47.966   8.267  11.982  0.00  0.00    +0.000 N 
ATOM     20  H   UNL     1      47.975   7.783  11.096  0.00  0.00    +0.000 HD
BRANCH  17  24
ATOM     21  C   UNL     1      52.946   6.945  10.019  0.00  0.00    +0.000 C 
ATOM     22  N   UNL     1      51.991   7.919  10.492  0.00  0.00    +0.000 N 
ATOM     23  C   UNL     1      50.893   7.654  11.264  0.00  0.00    +0.000 A 
ATOM     24  C   UNL     1      50.246   8.856  11.538  0.00  0.00    +0.000 A 
ATOM     25  C   UNL     1      50.997   9.889  10.869  0.00  0.00    +0.000 A 
ATOM     26  C   UNL     1      50.960  11.268  10.667  0.00  0.00    +0.000 A 
ATOM     27 CL   UNL     1      49.688  12.216  11.262  0.00  0.00    +0.000 Cl
ATOM     28  N   UNL     1      51.881  11.913   9.929  0.00  0.00    +0.000 NA
ATOM     29  C   UNL     1      52.857  11.169   9.394  0.00  0.00    +0.000 A 
ATOM     30  N   UNL     1      53.024   9.843   9.493  0.00  0.00    +0.000 NA
ATOM     31  C   UNL     1      52.066   9.261  10.237  0.00  0.00    +0.000 A 
ENDBRANCH  17  24
ENDBRANCH   1  19
TORSDOF 7
ENDMDL
MODEL 9
REMARK VINA RESULT:    -6.259      3.677      8.088
REMARK INTER + INTRA:         -10.287
REMARK INTER:                  -8.513
REMARK INTRA:                  -1.774
REMARK UNBOUND:                -1.467
REMARK  Name = 
REMARK  8 active torsions:
REMARK  status: ('A' for Active; 'I' for Inactive)
REMARK    1  A    between atoms: C_1  and  N_2
REMARK    2  A    between atoms: C_4  and  C_5
REMARK    3  A    between atoms: N_7  and  C_8
REMARK    4  A    between atoms: C_8  and  C_9
REMARK    5  A    between atoms: C_12  and  C_13
REMARK    6  A    between atoms: C_13  and  C_14
REMARK    7  A    between atoms: C_14  and  O_15
REMARK    8  A    between atoms: O_15  and  C_16
REMARK                            x       y       z     vdW  Elec       q    Type
REMARK                         _______ _______ _______ _____ _____    ______ ____
ROOT
ATOM      1  C   UNL     1      49.801   7.822  14.265  0.00  0.00    +0.000 C 
ENDROOT
BRANCH   1   2
ATOM      2  C   UNL     1      49.826   7.523  15.737  0.00  0.00    +0.000 A 
ATOM      3  C   UNL     1      48.836   8.049  16.573  0.00  0.00    +0.000 A 
ATOM      4  C   UNL     1      48.840   7.767  17.940  0.00  0.00    +0.000 A 
ATOM      5  C   UNL     1      49.837   6.961  18.510  0.00  0.00    +0.000 A 
ATOM      6  C   UNL     1      50.836   6.450  17.671  0.00  0.00    +0.000 A 
ATOM      7  C   UNL     1      50.834   6.731  16.300  0.00  0.00    +0.000 A 
BRANCH   5   8
ATOM      8  C   UNL     1      49.877   6.614  19.986  0.00  0.00    +0.000 C 
BRANCH   8   9
ATOM      9  C   UNL     1      49.915   5.116  20.290  0.00  0.00    +0.000 C 
BRANCH   9  10
ATOM     10  O   UNL     1      48.618   4.537  20.118  0.00  0.00    +0.000 OA
BRANCH  10  11
ATOM     11  C   UNL     1      48.378   4.069  18.850  0.00  0.00    +0.000 A 
ATOM     12  C   UNL     1      47.305   4.458  18.042  0.00  0.00    +0.000 A 
ATOM     13  C   UNL     1      47.160   3.924  16.758  0.00  0.00    +0.000 A 
ATOM     14  C   UNL     1      48.088   3.006  16.274  0.00  0.00    +0.000 A 
ATOM     15  C   UNL     1      49.166   2.627  17.071  0.00  0.00    +0.000 A 
ATOM     16  C   UNL     1      49.315   3.162  18.352  0.00  0.00    +0.000 A 
ENDBRANCH  10  11
ENDBRANCH   9  10
ENDBRANCH   8   9
ENDBRANCH   5   8
ENDBRANCH   1   2
BRANCH   1  19
ATOM     17  C   UNL     1      47.958   6.788  13.051  0.00  0.00    +0.000 C 
ATOM     18  O   UNL     1      48.590   5.749  12.924  0.00  0.00    +0.000 OA
ATOM     19  N   UNL     1      48.454   7.866  13.753  0.00  0.00    +0.000 N 
ATOM     20  H   UNL     1      47.955   8.743  13.752  0.00  0.00    +0.000 HD
BRANCH  17  24
ATOM     21  C   UNL     1      43.990   9.007  11.010  0.00  0.00    +0.000 C 
ATOM     22  N   UNL     1      44.852   7.994  11.574  0.00  0.00    +0.000 N 
ATOM     23  C   UNL     1      46.153   8.174  11.954  0.00  0.00    +0.000 A 
ATOM     24  C   UNL     1      46.628   6.976  12.480  0.00  0.00    +0.000 A 
ATOM     25  C   UNL     1      45.547   6.028  12.386  0.00  0.00    +0.000 A 
ATOM     26  C   UNL     1      45.279   4.690  12.669  0.00  0.00    +0.000 A 
ATOM     27 CL   UNL     1      46.478   3.654  13.269  0.00  0.00    +0.000 Cl
ATOM     28  N   UNL     1      44.085   4.124  12.415  0.00  0.00    +0.000 NA
ATOM     29  C   UNL     1      43.145   4.911  11.877  0.00  0.00    +0.000 A 
ATOM     30  N   UNL     1      43.251   6.205  11.546  0.00  0.00    +0.000 NA
ATOM     31  C   UNL     1      44.470   6.705  11.820  0.00  0.00    +0.000 A 
ENDBRANCH  17  24
ENDBRANCH   1  19
TORSDOF 7
ENDMDL
