MODEL 1
REMARK VINA RESULT:    -7.568      0.000      0.000
REMARK INTER + INTRA:          -9.847
REMARK INTER:                  -9.337
REMARK INTRA:                  -0.509
REMARK UNBOUND:                -0.509
REMARK  Name = 
REMARK  4 active torsions:
REMARK  status: ('A' for Active; 'I' for Inactive)
REMARK    1  A    between atoms: C_2  and  C_4
REMARK    2  A    between atoms: C_8  and  C_9
REMARK    3  A    between atoms: C_9  and  S_10
REMARK    4  A    between atoms: S_10  and  C_11
REMARK                            x       y       z     vdW  Elec       q    Type
REMARK                         _______ _______ _______ _____ _____    ______ ____
ROOT
ATOM      1  S   UNL     1      44.791   3.235  12.149  0.00  0.00    +0.000 S 
ENDROOT
BRANCH   1   2
ATOM      2  C   UNL     1      45.246   4.962  12.282  0.00  0.00    +0.000 A 
ATOM      3  C   UNL     1      44.336   5.906  11.814  0.00  0.00    +0.000 A 
ATOM      4  C   UNL     1      44.711   7.237  11.800  0.00  0.00    +0.000 A 
ATOM      5  N   UNL     1      45.921   7.679  12.198  0.00  0.00    +0.000 NA
ATOM      6  C   UNL     1      46.815   6.769  12.636  0.00  0.00    +0.000 A 
ATOM      7  N   UNL     1      48.136   7.160  12.912  0.00  0.00    +0.000 N 
ATOM      8  C   UNL     1      48.531   8.373  12.181  0.00  0.00    +0.000 C 
ATOM      9  C   UNL     1      50.052   8.497  12.257  0.00  0.00    +0.000 C 
ATOM     10  C   UNL     1      50.534   8.513  13.708  0.00  0.00    +0.000 C 
ATOM     11  C   UNL     1      49.955   7.343  14.508  0.00  0.00    +0.000 C 
ATOM     12  C   UNL     1      48.434   7.239  14.346  0.00  0.00    +0.000 C 
ATOM     13  C   UNL     1      46.498   5.408  12.707  0.00  0.00    +0.000 A 
ENDBRANCH   1   2
BRANCH   1  14
ATOM     14  C   UNL     1      43.949   3.141  10.529  0.00  0.00    +0.000 C 
BRANCH  14  19
ATOM     15  C   UNL     1      46.407   2.047   7.803  0.00  0.00    +0.000 A 
ATOM     16  C   UNL     1      46.725   3.273   7.207  0.00  0.00    +0.000 A 
ATOM     17  C   UNL     1      46.175   4.452   7.708  0.00  0.00    +0.000 A 
ATOM     18  C   UNL     1      45.293   4.412   8.791  0.00  0.00    +0.000 A 
ATOM     19  C   UNL     1      44.946   3.190   9.391  0.00  0.00    +0.000 A 
ATOM     20  C   UNL     1      45.513   2.009   8.884  0.00  0.00    +0.000 A 
BRANCH  15  22
ATOM     21  N   UNL     1      47.728   0.828   6.161  0.00  0.00    +0.000 N 
ATOM     22  C   UNL     1      46.961   0.767   7.288  0.00  0.00    +0.000 C 
ATOM     23  O   UNL     1      46.768  -0.297   7.862  0.00  0.00    +0.000 OA
ATOM     24  H   UNL     1      48.170  -0.036   5.866  0.00  0.00    +0.000 HD
ATOM     25  H   UNL     1      48.107   1.694   5.801  0.00  0.00    +0.000 HD
ENDBRANCH  15  22
ENDBRANCH  14  19
ENDBRANCH   1  14
TORSDOF 4
ENDMDL
MODEL 2
REMARK VINA RESULT:    -7.562      3.511      7.755
REMARK INTER + INTRA:          -9.840
REMARK INTER:                  -9.453
REMARK INTRA:                  -0.387
REMARK UNBOUND:                -0.509
REMARK  Name = 
REMARK  4 active torsions:
REMARK  status: ('A' for Active; 'I' for Inactive)
REMARK    1  A    between atoms: C_2  and  C_4
REMARK    2  A    between atoms: C_8  and  C_9
REMARK    3  A    between atoms: C_9  and  S_10
REMARK    4  A    between atoms: S_10  and  C_11
REMARK                            x       y       z     vdW  Elec       q    Type
REMARK                         _______ _______ _______ _____ _____    ______ ____
ROOT
ATOM      1  S   UNL     1      45.043   5.561  13.230  0.00  0.00    +0.000 S 
ENDROOT
BRANCH   1   2
ATOM      2  C   UNL     1      44.574   4.352  11.995  0.00  0.00    +0.000 A 
ATOM      3  C   UNL     1      43.544   3.470  12.315  0.00  0.00    +0.000 A 
ATOM      4  C   UNL     1      43.242   2.457  11.425  0.00  0.00    +0.000 A 
ATOM      5  N   UNL     1      43.900   2.255  10.266  0.00  0.00    +0.000 NA
ATOM      6  C   UNL     1      44.910   3.094   9.957  0.00  0.00    +0.000 A 
ATOM      7  N   UNL     1      45.724   2.831   8.842  0.00  0.00    +0.000 N 
ATOM      8  C   UNL     1      45.730   1.408   8.468  0.00  0.00    +0.000 C 
ATOM      9  C   UNL     1      46.898   1.176   7.511  0.00  0.00    +0.000 C 
ATOM     10  C   UNL     1      46.805   2.093   6.292  0.00  0.00    +0.000 C 
ATOM     11  C   UNL     1      46.604   3.556   6.699  0.00  0.00    +0.000 C 
ATOM     12  C   UNL     1      45.456   3.715   7.702  0.00  0.00    +0.000 C 
ATOM     13  C   UNL     1      45.255   4.161  10.793  0.00  0.00    +0.000 A 
ENDBRANCH   1   2
BRANCH   1  14
ATOM     14  C   UNL     1      46.865   5.627  13.090  0.00  0.00    +0.000 C 
BRANCH  14  19
ATOM     15  C   UNL     1      47.813   4.588  16.652  0.00  0.00    +0.000 A 
ATOM     16  C   UNL     1      48.808   5.523  16.959  0.00  0.00    +0.000 A 
ATOM     17  C   UNL     1      49.146   6.507  16.032  0.00  0.00    +0.000 A 
ATOM     18  C   UNL     1      48.506   6.552  14.789  0.00  0.00    +0.000 A 
ATOM     19  C   UNL     1      47.519   5.612  14.456  0.00  0.00    +0.000 A 
ATOM     20  C   UNL     1      47.179   4.629  15.401  0.00  0.00    +0.000 A 
BRANCH  15  22
ATOM     21  N   UNL     1      48.229   3.352  18.708  0.00  0.00    +0.000 N 
ATOM     22  C   UNL     1      47.436   3.514  17.609  0.00  0.00    +0.000 C 
ATOM     23  O   UNL     1      46.440   2.822  17.442  0.00  0.00    +0.000 OA
ATOM     24  H   UNL     1      47.917   2.675  19.396  0.00  0.00    +0.000 HD
ATOM     25  H   UNL     1      48.903   4.043  19.005  0.00  0.00    +0.000 HD
ENDBRANCH  15  22
ENDBRANCH  14  19
ENDBRANCH   1  14
TORSDOF 4
ENDMDL
MODEL 3
REMARK VINA RESULT:    -7.291      1.507      2.397
REMARK INTER + INTRA:          -9.506
REMARK INTER:                  -8.896
REMARK INTRA:                  -0.610
REMARK UNBOUND:                -0.509
REMARK  Name = 
REMARK  4 active torsions:
REMARK  status: ('A' for Active; 'I' for Inactive)
REMARK    1  A    between atoms: C_2  and  C_4
REMARK    2  A    between atoms: C_8  and  C_9
REMARK    3  A    between atoms: C_9  and  S_10
REMARK    4  A    between atoms: S_10  and  C_11
REMARK                            x       y       z     vdW  Elec       q    Type
REMARK                         _______ _______ _______ _____ _____    ______ ____
ROOT
ATOM      1  S   UNL     1      43.856   4.771  10.936  0.00  0.00    +0.000 S 
ENDROOT
BRANCH   1   2
ATOM      2  C   UNL     1      45.358   4.874  11.905  0.00  0.00    +0.000 A 
ATOM      3  C   UNL     1      45.656   3.805  12.747  0.00  0.00    +0.000 A 
ATOM      4  C   UNL     1      46.747   3.911  13.589  0.00  0.00    +0.000 A 
ATOM      5  N   UNL     1      47.537   5.000  13.660  0.00  0.00    +0.000 NA
ATOM      6  C   UNL     1      47.245   6.047  12.861  0.00  0.00    +0.000 A 
ATOM      7  N   UNL     1      47.939   7.260  13.011  0.00  0.00    +0.000 N 
ATOM      8  C   UNL     1      48.510   7.423  14.357  0.00  0.00    +0.000 C 
ATOM      9  C   UNL     1      48.910   8.887  14.527  0.00  0.00    +0.000 C 
ATOM     10  C   UNL     1      49.880   9.327  13.431  0.00  0.00    +0.000 C 
ATOM     11  C   UNL     1      49.355   8.974  12.036  0.00  0.00    +0.000 C 
ATOM     12  C   UNL     1      48.918   7.507  11.947  0.00  0.00    +0.000 C 
ATOM     13  C   UNL     1      46.174   6.004  11.962  0.00  0.00    +0.000 A 
ENDBRANCH   1   2
BRANCH   1  14
ATOM     14  C   UNL     1      44.446   4.968   9.217  0.00  0.00    +0.000 C 
BRANCH  14  19
ATOM     15  C   UNL     1      46.555   2.515   7.167  0.00  0.00    +0.000 A 
ATOM     16  C   UNL     1      46.254   1.299   7.793  0.00  0.00    +0.000 A 
ATOM     17  C   UNL     1      45.345   1.268   8.849  0.00  0.00    +0.000 A 
ATOM     18  C   UNL     1      44.748   2.450   9.298  0.00  0.00    +0.000 A 
ATOM     19  C   UNL     1      45.051   3.681   8.696  0.00  0.00    +0.000 A 
ATOM     20  C   UNL     1      45.961   3.700   7.626  0.00  0.00    +0.000 A 
BRANCH  15  22
ATOM     21  N   UNL     1      48.856   2.593   6.374  0.00  0.00    +0.000 N 
ATOM     22  C   UNL     1      47.530   2.590   6.048  0.00  0.00    +0.000 C 
ATOM     23  O   UNL     1      47.169   2.617   4.878  0.00  0.00    +0.000 OA
ATOM     24  H   UNL     1      49.513   2.560   5.602  0.00  0.00    +0.000 HD
ATOM     25  H   UNL     1      49.196   2.332   7.290  0.00  0.00    +0.000 HD
ENDBRANCH  15  22
ENDBRANCH  14  19
ENDBRANCH   1  14
TORSDOF 4
ENDMDL
MODEL 4
REMARK VINA RESULT:    -7.233      3.444      7.582
REMARK INTER + INTRA:          -9.433
REMARK INTER:                  -8.940
REMARK INTRA:                  -0.493
REMARK UNBOUND:                -0.509
REMARK  Name = 
REMARK  4 active torsions:
REMARK  status: ('A' for Active; 'I' for Inactive)
REMARK    1  A    between atoms: C_2  and  C_4
REMARK    2  A    between atoms: C_8  and  C_9
REMARK    3  A    between atoms: C_9  and  S_10
REMARK    4  A    between atoms: S_10  and  C_11
REMARK                            x       y       z     vdW  Elec       q    Type
REMARK                         _______ _______ _______ _____ _____    ______ ____
ROOT
ATOM      1  S   UNL     1      44.933   6.049  12.908  0.00  0.00    +0.000 S 
ENDROOT
BRANCH   1   2
ATOM      2  C   UNL     1      44.504   4.714  11.795  0.00  0.00    +0.000 A 
ATOM      3  C   UNL     1      43.510   3.828  12.204  0.00  0.00    +0.000 A 
ATOM      4  C   UNL     1      43.242   2.725  11.414  0.00  0.00    +0.000 A 
ATOM      5  N   UNL     1      43.901   2.441  10.274  0.00  0.00    +0.000 NA
ATOM      6  C   UNL     1      44.877   3.285   9.879  0.00  0.00    +0.000 A 
ATOM      7  N   UNL     1      45.695   2.950   8.786  0.00  0.00    +0.000 N 
ATOM      8  C   UNL     1      45.753   1.500   8.546  0.00  0.00    +0.000 C 
ATOM      9  C   UNL     1      46.924   1.223   7.605  0.00  0.00    +0.000 C 
ATOM     10  C   UNL     1      46.790   2.019   6.306  0.00  0.00    +0.000 C 
ATOM     11  C   UNL     1      46.536   3.505   6.578  0.00  0.00    +0.000 C 
ATOM     12  C   UNL     1      45.387   3.713   7.572  0.00  0.00    +0.000 C 
ATOM     13  C   UNL     1      45.186   4.437  10.609  0.00  0.00    +0.000 A 
ENDBRANCH   1   2
BRANCH   1  14
ATOM     14  C   UNL     1      46.761   6.043  12.895  0.00  0.00    +0.000 C 
BRANCH  14  19
ATOM     15  C   UNL     1      46.987   9.736  11.908  0.00  0.00    +0.000 A 
ATOM     16  C   UNL     1      48.350   9.862  11.614  0.00  0.00    +0.000 A 
ATOM     17  C   UNL     1      49.185   8.750  11.700  0.00  0.00    +0.000 A 
ATOM     18  C   UNL     1      48.669   7.512  12.096  0.00  0.00    +0.000 A 
ATOM     19  C   UNL     1      47.309   7.370  12.414  0.00  0.00    +0.000 A 
ATOM     20  C   UNL     1      46.474   8.496  12.315  0.00  0.00    +0.000 A 
BRANCH  15  22
ATOM     21  N   UNL     1      44.773  10.699  12.221  0.00  0.00    +0.000 N 
ATOM     22  C   UNL     1      46.069  10.903  11.843  0.00  0.00    +0.000 C 
ATOM     23  O   UNL     1      46.457  12.011  11.495  0.00  0.00    +0.000 OA
ATOM     24  H   UNL     1      44.176  11.518  12.253  0.00  0.00    +0.000 HD
ATOM     25  H   UNL     1      44.474   9.882  12.735  0.00  0.00    +0.000 HD
ENDBRANCH  15  22
ENDBRANCH  14  19
ENDBRANCH   1  14
TORSDOF 4
ENDMDL
MODEL 5
REMARK VINA RESULT:    -6.724      3.595      7.821
REMARK INTER + INTRA:          -8.806
REMARK INTER:                  -8.287
REMARK INTRA:                  -0.519
REMARK UNBOUND:                -0.509
REMARK  Name = 
REMARK  4 active torsions:
REMARK  status: ('A' for Active; 'I' for Inactive)
REMARK    1  A    between atoms: C_2  and  C_4
REMARK    2  A    between atoms: C_8  and  C_9
REMARK    3  A    between atoms: C_9  and  S_10
REMARK    4  A    between atoms: S_10  and  C_11
REMARK                            x       y       z     vdW  Elec       q    Type
REMARK                         _______ _______ _______ _____ _____    ______ ____
ROOT
ATOM      1  S   UNL     1      45.507   7.036  12.697  0.00  0.00    +0.000 S 
ENDROOT
BRANCH   1   2
ATOM      2  C   UNL     1      44.797   5.743  11.683  0.00  0.00    +0.000 A 
ATOM      3  C   UNL     1      43.574   5.207  12.084  0.00  0.00    +0.000 A 
ATOM      4  C   UNL     1      43.063   4.131  11.384  0.00  0.00    +0.000 A 
ATOM      5  N   UNL     1      43.686   3.550  10.339  0.00  0.00    +0.000 NA
ATOM      6  C   UNL     1      44.878   4.052   9.955  0.00  0.00    +0.000 A 
ATOM      7  N   UNL     1      45.637   3.386   8.977  0.00  0.00    +0.000 N 
ATOM      8  C   UNL     1      45.309   1.955   8.884  0.00  0.00    +0.000 C 
ATOM      9  C   UNL     1      46.414   1.268   8.083  0.00  0.00    +0.000 C 
ATOM     10  C   UNL     1      46.582   1.914   6.707  0.00  0.00    +0.000 C 
ATOM     11  C   UNL     1      46.730   3.434   6.811  0.00  0.00    +0.000 C 
ATOM     12  C   UNL     1      45.625   4.056   7.673  0.00  0.00    +0.000 C 
ATOM     13  C   UNL     1      45.446   5.157  10.596  0.00  0.00    +0.000 A 
ENDBRANCH   1   2
BRANCH   1  14
ATOM     14  C   UNL     1      47.274   6.577  12.794  0.00  0.00    +0.000 C 
BRANCH  14  19
ATOM     15  C   UNL     1      48.737   5.973  16.281  0.00  0.00    +0.000 A 
ATOM     16  C   UNL     1      48.122   4.767  16.635  0.00  0.00    +0.000 A 
ATOM     17  C   UNL     1      47.266   4.133  15.736  0.00  0.00    +0.000 A 
ATOM     18  C   UNL     1      47.005   4.709  14.489  0.00  0.00    +0.000 A 
ATOM     19  C   UNL     1      47.598   5.927  14.123  0.00  0.00    +0.000 A 
ATOM     20  C   UNL     1      48.467   6.553  15.033  0.00  0.00    +0.000 A 
BRANCH  15  22
ATOM     21  N   UNL     1      50.305   7.780  16.738  0.00  0.00    +0.000 N 
ATOM     22  C   UNL     1      49.644   6.686  17.219  0.00  0.00    +0.000 C 
ATOM     23  O   UNL     1      49.776   6.332  18.384  0.00  0.00    +0.000 OA
ATOM     24  H   UNL     1      50.855   8.307  17.406  0.00  0.00    +0.000 HD
ATOM     25  H   UNL     1      50.046   8.242  15.876  0.00  0.00    +0.000 HD
ENDBRANCH  15  22
ENDBRANCH  14  19
ENDBRANCH   1  14
TORSDOF 4
ENDMDL
MODEL 6
REMARK VINA RESULT:    -6.608      3.754      7.501
REMARK INTER + INTRA:          -8.663
REMARK INTER:                  -8.044
REMARK INTRA:                  -0.619
REMARK UNBOUND:                -0.509
REMARK  Name = 
REMARK  4 active torsions:
REMARK  status: ('A' for Active; 'I' for Inactive)
REMARK    1  A    between atoms: C_2  and  C_4
REMARK    2  A    between atoms: C_8  and  C_9
REMARK    3  A    between atoms: C_9  and  S_10
REMARK    4  A    between atoms: S_10  and  C_11
REMARK                            x       y       z     vdW  Elec       q    Type
REMARK                         _______ _______ _______ _____ _____    ______ ____
ROOT
ATOM      1  S   UNL     1      49.693   7.711  13.256  0.00  0.00    +0.000 S 
ENDROOT
BRANCH   1   2
ATOM      2  C   UNL     1      47.934   7.635  12.932  0.00  0.00    +0.000 A 
ATOM      3  C   UNL     1      47.184   8.784  13.174  0.00  0.00    +0.000 A 
ATOM      4  C   UNL     1      45.810   8.716  13.041  0.00  0.00    +0.000 A 
ATOM      5  N   UNL     1      45.143   7.594  12.707  0.00  0.00    +0.000 NA
ATOM      6  C   UNL     1      45.860   6.472  12.488  0.00  0.00    +0.000 A 
ATOM      7  N   UNL     1      45.202   5.245  12.293  0.00  0.00    +0.000 N 
ATOM      8  C   UNL     1      43.856   5.225  12.885  0.00  0.00    +0.000 C 
ATOM      9  C   UNL     1      43.388   3.772  12.943  0.00  0.00    +0.000 C 
ATOM     10  C   UNL     1      43.420   3.124  11.559  0.00  0.00    +0.000 C 
ATOM     11  C   UNL     1      44.776   3.324  10.874  0.00  0.00    +0.000 C 
ATOM     12  C   UNL     1      45.215   4.792  10.898  0.00  0.00    +0.000 C 
ATOM     13  C   UNL     1      47.256   6.469  12.575  0.00  0.00    +0.000 A 
ENDBRANCH   1   2
BRANCH   1  14
ATOM     14  C   UNL     1      49.781   8.090  15.042  0.00  0.00    +0.000 C 
BRANCH  14  19
ATOM     15  C   UNL     1      48.443   4.819  16.518  0.00  0.00    +0.000 A 
ATOM     16  C   UNL     1      49.503   4.435  17.349  0.00  0.00    +0.000 A 
ATOM     17  C   UNL     1      50.628   5.249  17.460  0.00  0.00    +0.000 A 
ATOM     18  C   UNL     1      50.711   6.438  16.729  0.00  0.00    +0.000 A 
ATOM     19  C   UNL     1      49.668   6.830  15.875  0.00  0.00    +0.000 A 
ATOM     20  C   UNL     1      48.533   6.007  15.778  0.00  0.00    +0.000 A 
BRANCH  15  22
ATOM     21  N   UNL     1      46.811   3.711  15.090  0.00  0.00    +0.000 N 
ATOM     22  C   UNL     1      47.233   3.970  16.362  0.00  0.00    +0.000 C 
ATOM     23  O   UNL     1      46.651   3.492  17.328  0.00  0.00    +0.000 OA
ATOM     24  H   UNL     1      46.037   3.064  14.992  0.00  0.00    +0.000 HD
ATOM     25  H   UNL     1      47.388   3.878  14.276  0.00  0.00    +0.000 HD
ENDBRANCH  15  22
ENDBRANCH  14  19
ENDBRANCH   1  14
TORSDOF 4
ENDMDL
MODEL 7
REMARK VINA RESULT:    -6.570      3.090      4.798
REMARK INTER + INTRA:          -8.616
REMARK INTER:                  -8.062
REMARK INTRA:                  -0.554
REMARK UNBOUND:                -0.509
REMARK  Name = 
REMARK  4 active torsions:
REMARK  status: ('A' for Active; 'I' for Inactive)
REMARK    1  A    between atoms: C_2  and  C_4
REMARK    2  A    between atoms: C_8  and  C_9
REMARK    3  A    between atoms: C_9  and  S_10
REMARK    4  A    between atoms: S_10  and  C_11
REMARK                            x       y       z     vdW  Elec       q    Type
REMARK                         _______ _______ _______ _____ _____    ______ ____
ROOT
ATOM      1  S   UNL     1      47.214   7.103  11.792  0.00  0.00    +0.000 S 
ENDROOT
BRANCH   1   2
ATOM      2  C   UNL     1      47.737   7.127  13.504  0.00  0.00    +0.000 A 
ATOM      3  C   UNL     1      48.295   8.307  13.991  0.00  0.00    +0.000 A 
ATOM      4  C   UNL     1      48.811   8.314  15.274  0.00  0.00    +0.000 A 
ATOM      5  N   UNL     1      48.824   7.236  16.083  0.00  0.00    +0.000 NA
ATOM      6  C   UNL     1      48.302   6.085  15.613  0.00  0.00    +0.000 A 
ATOM      7  N   UNL     1      48.435   4.899  16.356  0.00  0.00    +0.000 N 
ATOM      8  C   UNL     1      49.580   4.933  17.277  0.00  0.00    +0.000 C 
ATOM      9  C   UNL     1      49.851   3.506  17.749  0.00  0.00    +0.000 C 
ATOM     10  C   UNL     1      48.609   2.892  18.394  0.00  0.00    +0.000 C 
ATOM     11  C   UNL     1      47.376   3.037  17.497  0.00  0.00    +0.000 C 
ATOM     12  C   UNL     1      47.192   4.480  17.013  0.00  0.00    +0.000 C 
ATOM     13  C   UNL     1      47.735   6.007  14.336  0.00  0.00    +0.000 A 
ENDBRANCH   1   2
BRANCH   1  14
ATOM     14  C   UNL     1      45.390   7.150  11.905  0.00  0.00    +0.000 C 
BRANCH  14  19
ATOM     15  C   UNL     1      44.468   3.717  10.479  0.00  0.00    +0.000 A 
ATOM     16  C   UNL     1      43.782   3.145  11.556  0.00  0.00    +0.000 A 
ATOM     17  C   UNL     1      43.586   3.879  12.725  0.00  0.00    +0.000 A 
ATOM     18  C   UNL     1      44.089   5.178  12.831  0.00  0.00    +0.000 A 
ATOM     19  C   UNL     1      44.798   5.763  11.770  0.00  0.00    +0.000 A 
ATOM     20  C   UNL     1      44.981   5.018  10.593  0.00  0.00    +0.000 A 
BRANCH  15  22
ATOM     21  N   UNL     1      44.361   3.569   8.051  0.00  0.00    +0.000 N 
ATOM     22  C   UNL     1      44.709   2.961   9.223  0.00  0.00    +0.000 C 
ATOM     23  O   UNL     1      45.228   1.851   9.227  0.00  0.00    +0.000 OA
ATOM     24  H   UNL     1      44.606   3.081   7.197  0.00  0.00    +0.000 HD
ATOM     25  H   UNL     1      44.161   4.558   7.985  0.00  0.00    +0.000 HD
ENDBRANCH  15  22
ENDBRANCH  14  19
ENDBRANCH   1  14
TORSDOF 4
ENDMDL
MODEL 8
REMARK VINA RESULT:    -6.528      3.740      6.114
REMARK INTER + INTRA:          -8.564
REMARK INTER:                  -8.157
REMARK INTRA:                  -0.407
REMARK UNBOUND:                -0.509
REMARK  Name = 
REMARK  4 active torsions:
REMARK  status: ('A' for Active; 'I' for Inactive)
REMARK    1  A    between atoms: C_2  and  C_4
REMARK    2  A    between atoms: C_8  and  C_9
REMARK    3  A    between atoms: C_9  and  S_10
REMARK    4  A    between atoms: S_10  and  C_11
REMARK                            x       y       z     vdW  Elec       q    Type
REMARK                         _______ _______ _______ _____ _____    ______ ____
ROOT
ATOM      1  S   UNL     1      46.983   0.557   7.041  0.00  0.00    +0.000 S 
ENDROOT
BRANCH   1   2
ATOM      2  C   UNL     1      46.341   2.100   7.686  0.00  0.00    +0.000 A 
ATOM      3  C   UNL     1      46.566   3.254   6.939  0.00  0.00    +0.000 A 
ATOM      4  C   UNL     1      46.181   4.471   7.470  0.00  0.00    +0.000 A 
ATOM      5  N   UNL     1      45.615   4.613   8.685  0.00  0.00    +0.000 NA
ATOM      6  C   UNL     1      45.409   3.503   9.422  0.00  0.00    +0.000 A 
ATOM      7  N   UNL     1      44.968   3.615  10.752  0.00  0.00    +0.000 N 
ATOM      8  C   UNL     1      45.302   4.915  11.351  0.00  0.00    +0.000 C 
ATOM      9  C   UNL     1      45.118   4.801  12.863  0.00  0.00    +0.000 C 
ATOM     10  C   UNL     1      43.701   4.349  13.216  0.00  0.00    +0.000 C 
ATOM     11  C   UNL     1      43.297   3.096  12.434  0.00  0.00    +0.000 C 
ATOM     12  C   UNL     1      43.558   3.254  10.931  0.00  0.00    +0.000 C 
ATOM     13  C   UNL     1      45.745   2.233   8.940  0.00  0.00    +0.000 A 
ENDBRANCH   1   2
BRANCH   1  14
ATOM     14  C   UNL     1      47.728   1.042   5.444  0.00  0.00    +0.000 C 
BRANCH  14  19
ATOM     15  C   UNL     1      46.237  -1.503   3.000  0.00  0.00    +0.000 A 
ATOM     16  C   UNL     1      45.461  -0.677   2.178  0.00  0.00    +0.000 A 
ATOM     17  C   UNL     1      45.449   0.701   2.390  0.00  0.00    +0.000 A 
ATOM     18  C   UNL     1      46.194   1.258   3.434  0.00  0.00    +0.000 A 
ATOM     19  C   UNL     1      46.963   0.445   4.281  0.00  0.00    +0.000 A 
ATOM     20  C   UNL     1      46.976  -0.942   4.052  0.00  0.00    +0.000 A 
BRANCH  15  22
ATOM     21  N   UNL     1      45.195  -3.546   2.183  0.00  0.00    +0.000 N 
ATOM     22  C   UNL     1      46.264  -2.977   2.814  0.00  0.00    +0.000 C 
ATOM     23  O   UNL     1      47.214  -3.657   3.180  0.00  0.00    +0.000 OA
ATOM     24  H   UNL     1      45.261  -4.539   1.987  0.00  0.00    +0.000 HD
ATOM     25  H   UNL     1      44.518  -3.009   1.659  0.00  0.00    +0.000 HD
ENDBRANCH  15  22
ENDBRANCH  14  19
ENDBRANCH   1  14
TORSDOF 4
ENDMDL
MODEL 9
REMARK VINA RESULT:    -6.132      4.183      7.876
REMARK INTER + INTRA:          -8.075
REMARK INTER:                  -7.315
REMARK INTRA:                  -0.761
REMARK UNBOUND:                -0.509
REMARK  Name = 
REMARK  4 active torsions:
REMARK  status: ('A' for Active; 'I' for Inactive)
REMARK    1  A    between atoms: C_2  and  C_4
REMARK    2  A    between atoms: C_8  and  C_9
REMARK    3  A    between atoms: C_9  and  S_10
REMARK    4  A    between atoms: S_10  and  C_11
REMARK                            x       y       z     vdW  Elec       q    Type
REMARK                         _______ _______ _______ _____ _____    ______ ____
ROOT
ATOM      1  S   UNL     1      49.685   8.579  17.206  0.00  0.00    +0.000 S 
ENDROOT
BRANCH   1   2
ATOM      2  C   UNL     1      49.590   7.981  15.521  0.00  0.00    +0.000 A 
ATOM      3  C   UNL     1      50.623   8.331  14.654  0.00  0.00    +0.000 A 
ATOM      4  C   UNL     1      50.515   7.978  13.321  0.00  0.00    +0.000 A 
ATOM      5  N   UNL     1      49.456   7.329  12.800  0.00  0.00    +0.000 NA
ATOM      6  C   UNL     1      48.443   7.002  13.629  0.00  0.00    +0.000 A 
ATOM      7  N   UNL     1      47.253   6.467  13.107  0.00  0.00    +0.000 N 
ATOM      8  C   UNL     1      47.040   6.830  11.697  0.00  0.00    +0.000 C 
ATOM      9  C   UNL     1      45.586   6.524  11.344  0.00  0.00    +0.000 C 
ATOM     10  C   UNL     1      45.246   5.059  11.622  0.00  0.00    +0.000 C 
ATOM     11  C   UNL     1      45.653   4.644  13.038  0.00  0.00    +0.000 C 
ATOM     12  C   UNL     1      47.104   5.028  13.350  0.00  0.00    +0.000 C 
ATOM     13  C   UNL     1      48.493   7.299  14.995  0.00  0.00    +0.000 A 
ENDBRANCH   1   2
BRANCH   1  14
ATOM     14  C   UNL     1      50.385   7.160  18.121  0.00  0.00    +0.000 C 
BRANCH  14  19
ATOM     15  C   UNL     1      49.277   3.556  17.448  0.00  0.00    +0.000 A 
ATOM     16  C   UNL     1      47.920   3.616  17.785  0.00  0.00    +0.000 A 
ATOM     17  C   UNL     1      47.357   4.824  18.192  0.00  0.00    +0.000 A 
ATOM     18  C   UNL     1      48.149   5.972  18.284  0.00  0.00    +0.000 A 
ATOM     19  C   UNL     1      49.516   5.929  17.970  0.00  0.00    +0.000 A 
ATOM     20  C   UNL     1      50.071   4.708  17.550  0.00  0.00    +0.000 A 
BRANCH  15  22
ATOM     21  N   UNL     1      50.945   1.815  17.789  0.00  0.00    +0.000 N 
ATOM     22  C   UNL     1      49.916   2.283  17.023  0.00  0.00    +0.000 C 
ATOM     23  O   UNL     1      49.522   1.658  16.046  0.00  0.00    +0.000 OA
ATOM     24  H   UNL     1      51.318   0.906  17.540  0.00  0.00    +0.000 HD
ATOM     25  H   UNL     1      51.138   2.162  18.719  0.00  0.00    +0.000 HD
ENDBRANCH  15  22
ENDBRANCH  14  19
ENDBRANCH   1  14
TORSDOF 4
ENDMDL
