MODEL 1
REMARK VINA RESULT:    -7.362      0.000      0.000
REMARK INTER + INTRA:         -10.319
REMARK INTER:                  -9.729
REMARK INTRA:                  -0.590
REMARK UNBOUND:                -0.590
REMARK  Name = 
REMARK  7 active torsions:
REMARK  status: ('A' for Active; 'I' for Inactive)
REMARK    1  A    between atoms: C_1  and  C_2
REMARK    2  A    between atoms: C_5  and  C_6
REMARK    3  A    between atoms: C_6  and  C_7
REMARK    4  A    between atoms: C_7  and  O_8
REMARK    5  A    between atoms: O_8  and  C_9
REMARK    6  A    between atoms: C_13  and  C_14
REMARK    7  A    between atoms: C_14  and  O_16
REMARK                            x       y       z     vdW  Elec       q    Type
REMARK                         _______ _______ _______ _____ _____    ______ ____
ROOT
ATOM      1  O   UNL     1      43.607   3.062  10.582  0.00  0.00    +0.000 OA
ENDROOT
BRANCH   1   2
ATOM      2  C   UNL     1      44.530   3.073   9.571  0.00  0.00    +0.000 A 
ATOM      3  C   UNL     1      44.734   4.279   8.910  0.00  0.00    +0.000 A 
ATOM      4  N   UNL     1      45.614   4.452   7.894  0.00  0.00    +0.000 NA
ATOM      5  C   UNL     1      46.317   3.359   7.505  0.00  0.00    +0.000 A 
ATOM      6  C   UNL     1      46.153   2.103   8.072  0.00  0.00    +0.000 A 
ATOM      7  C   UNL     1      45.252   1.962   9.132  0.00  0.00    +0.000 A 
BRANCH   6   8
ATOM      8  C   UNL     1      46.982   0.992   7.563  0.00  0.00    +0.000 C 
ATOM      9  O   UNL     1      46.724  -0.173   7.791  0.00  0.00    +0.000 OA
BRANCH   8  10
ATOM     10  O   UNL     1      48.058   1.378   6.843  0.00  0.00    +0.000 OA
ATOM     11  H   UNL     1      47.929   2.126   6.235  0.00  0.00    +0.000 HD
ENDBRANCH   8  10
ENDBRANCH   6   8
ENDBRANCH   1   2
BRANCH   1  12
ATOM     12  C   UNL     1      43.231   4.351  11.084  0.00  0.00    +0.000 C 
BRANCH  12  13
ATOM     13  C   UNL     1      43.678   4.481  12.539  0.00  0.00    +0.000 C 
BRANCH  13  18
ATOM     14  C   UNL     1      48.964   6.917  12.874  0.00  0.00    +0.000 C 
ATOM     15  C   UNL     1      47.600   6.296  12.781  0.00  0.00    +0.000 A 
ATOM     16  C   UNL     1      46.654   6.770  11.867  0.00  0.00    +0.000 A 
ATOM     17  C   UNL     1      45.384   6.189  11.794  0.00  0.00    +0.000 A 
ATOM     18  C   UNL     1      45.037   5.127  12.639  0.00  0.00    +0.000 A 
ATOM     19  C   UNL     1      45.990   4.648  13.548  0.00  0.00    +0.000 A 
ATOM     20  C   UNL     1      47.260   5.229  13.618  0.00  0.00    +0.000 A 
ENDBRANCH  13  18
ENDBRANCH  12  13
ENDBRANCH   1  12
TORSDOF 6
ENDMDL
MODEL 2
REMARK VINA RESULT:    -7.311      2.794      5.972
REMARK INTER + INTRA:         -10.252
REMARK INTER:                  -9.657
REMARK INTRA:                  -0.595
REMARK UNBOUND:                -0.590
REMARK  Name = 
REMARK  7 active torsions:
REMARK  status: ('A' for Active; 'I' for Inactive)
REMARK    1  A    between atoms: C_1  and  C_2
REMARK    2  A    between atoms: C_5  and  C_6
REMARK    3  A    between atoms: C_6  and  C_7
REMARK    4  A    between atoms: C_7  and  O_8
REMARK    5  A    between atoms: O_8  and  C_9
REMARK    6  A    between atoms: C_13  and  C_14
REMARK    7  A    between atoms: C_14  and  O_16
REMARK                            x       y       z     vdW  Elec       q    Type
REMARK                         _______ _______ _______ _____ _____    ______ ____
ROOT
ATOM      1  O   UNL     1      43.689   5.099  11.546  0.00  0.00    +0.000 OA
ENDROOT
BRANCH   1   2
ATOM      2  C   UNL     1      44.909   5.262  12.143  0.00  0.00    +0.000 A 
ATOM      3  C   UNL     1      45.782   6.178  11.566  0.00  0.00    +0.000 A 
ATOM      4  N   UNL     1      47.021   6.456  12.041  0.00  0.00    +0.000 NA
ATOM      5  C   UNL     1      47.417   5.771  13.143  0.00  0.00    +0.000 A 
ATOM      6  C   UNL     1      46.637   4.806  13.765  0.00  0.00    +0.000 A 
ATOM      7  C   UNL     1      45.356   4.558  13.262  0.00  0.00    +0.000 A 
BRANCH   6   8
ATOM      8  C   UNL     1      47.181   4.132  14.962  0.00  0.00    +0.000 C 
ATOM      9  O   UNL     1      47.694   3.033  14.914  0.00  0.00    +0.000 OA
BRANCH   8  10
ATOM     10  O   UNL     1      47.042   4.829  16.111  0.00  0.00    +0.000 OA
ATOM     11  H   UNL     1      46.542   5.661  16.057  0.00  0.00    +0.000 HD
ENDBRANCH   8  10
ENDBRANCH   6   8
ENDBRANCH   1   2
BRANCH   1  12
ATOM     12  C   UNL     1      43.728   4.717  10.164  0.00  0.00    +0.000 C 
BRANCH  12  13
ATOM     13  C   UNL     1      44.021   3.221  10.058  0.00  0.00    +0.000 C 
BRANCH  13  18
ATOM     14  C   UNL     1      47.979   2.147   5.915  0.00  0.00    +0.000 C 
ATOM     15  C   UNL     1      46.959   2.414   6.984  0.00  0.00    +0.000 A 
ATOM     16  C   UNL     1      46.495   1.385   7.810  0.00  0.00    +0.000 A 
ATOM     17  C   UNL     1      45.540   1.644   8.798  0.00  0.00    +0.000 A 
ATOM     18  C   UNL     1      45.029   2.936   8.973  0.00  0.00    +0.000 A 
ATOM     19  C   UNL     1      45.501   3.967   8.150  0.00  0.00    +0.000 A 
ATOM     20  C   UNL     1      46.457   3.707   7.164  0.00  0.00    +0.000 A 
ENDBRANCH  13  18
ENDBRANCH  12  13
ENDBRANCH   1  12
TORSDOF 6
ENDMDL
MODEL 3
REMARK VINA RESULT:    -6.753      3.023      6.297
REMARK INTER + INTRA:          -9.514
REMARK INTER:                  -8.979
REMARK INTRA:                  -0.535
REMARK UNBOUND:                -0.590
REMARK  Name = 
REMARK  7 active torsions:
REMARK  status: ('A' for Active; 'I' for Inactive)
REMARK    1  A    between atoms: C_1  and  C_2
REMARK    2  A    between atoms: C_5  and  C_6
REMARK    3  A    between atoms: C_6  and  C_7
REMARK    4  A    between atoms: C_7  and  O_8
REMARK    5  A    between atoms: O_8  and  C_9
REMARK    6  A    between atoms: C_13  and  C_14
REMARK    7  A    between atoms: C_14  and  O_16
REMARK                            x       y       z     vdW  Elec       q    Type
REMARK                         _______ _______ _______ _____ _____    ______ ____
ROOT
ATOM      1  O   UNL     1      43.633   4.382  12.685  0.00  0.00    +0.000 OA
ENDROOT
BRANCH   1   2
ATOM      2  C   UNL     1      44.721   5.196  12.849  0.00  0.00    +0.000 A 
ATOM      3  C   UNL     1      45.908   4.595  13.255  0.00  0.00    +0.000 A 
ATOM      4  N   UNL     1      47.070   5.263  13.457  0.00  0.00    +0.000 NA
ATOM      5  C   UNL     1      47.044   6.604  13.257  0.00  0.00    +0.000 A 
ATOM      6  C   UNL     1      45.900   7.301  12.893  0.00  0.00    +0.000 A 
ATOM      7  C   UNL     1      44.722   6.580  12.674  0.00  0.00    +0.000 A 
BRANCH   6   8
ATOM      8  C   UNL     1      46.002   8.762  12.702  0.00  0.00    +0.000 C 
ATOM      9  O   UNL     1      47.050   9.313  12.435  0.00  0.00    +0.000 OA
BRANCH   8  10
ATOM     10  O   UNL     1      44.841   9.433  12.869  0.00  0.00    +0.000 OA
ATOM     11  H   UNL     1      44.749   9.945  13.691  0.00  0.00    +0.000 HD
ENDBRANCH   8  10
ENDBRANCH   6   8
ENDBRANCH   1   2
BRANCH   1  12
ATOM     12  C   UNL     1      43.755   3.394  11.653  0.00  0.00    +0.000 C 
BRANCH  12  13
ATOM     13  C   UNL     1      43.690   4.076  10.286  0.00  0.00    +0.000 C 
BRANCH  13  18
ATOM     14  C   UNL     1      47.645   1.901   6.598  0.00  0.00    +0.000 C 
ATOM     15  C   UNL     1      46.629   2.470   7.545  0.00  0.00    +0.000 A 
ATOM     16  C   UNL     1      46.392   3.847   7.605  0.00  0.00    +0.000 A 
ATOM     17  C   UNL     1      45.448   4.367   8.496  0.00  0.00    +0.000 A 
ATOM     18  C   UNL     1      44.729   3.518   9.347  0.00  0.00    +0.000 A 
ATOM     19  C   UNL     1      44.962   2.138   9.279  0.00  0.00    +0.000 A 
ATOM     20  C   UNL     1      45.905   1.619   8.386  0.00  0.00    +0.000 A 
ENDBRANCH  13  18
ENDBRANCH  12  13
ENDBRANCH   1  12
TORSDOF 6
ENDMDL
MODEL 4
REMARK VINA RESULT:    -6.499      2.954      5.838
REMARK INTER + INTRA:          -9.178
REMARK INTER:                  -8.611
REMARK INTRA:                  -0.567
REMARK UNBOUND:                -0.590
REMARK  Name = 
REMARK  7 active torsions:
REMARK  status: ('A' for Active; 'I' for Inactive)
REMARK    1  A    between atoms: C_1  and  C_2
REMARK    2  A    between atoms: C_5  and  C_6
REMARK    3  A    between atoms: C_6  and  C_7
REMARK    4  A    between atoms: C_7  and  O_8
REMARK    5  A    between atoms: O_8  and  C_9
REMARK    6  A    between atoms: C_13  and  C_14
REMARK    7  A    between atoms: C_14  and  O_16
REMARK                            x       y       z     vdW  Elec       q    Type
REMARK                         _______ _______ _______ _____ _____    ______ ____
ROOT
ATOM      1  O   UNL     1      43.999   3.908  13.158  0.00  0.00    +0.000 OA
ENDROOT
BRANCH   1   2
ATOM      2  C   UNL     1      44.823   4.998  13.084  0.00  0.00    +0.000 A 
ATOM      3  C   UNL     1      44.277   6.174  12.584  0.00  0.00    +0.000 A 
ATOM      4  N   UNL     1      44.961   7.338  12.453  0.00  0.00    +0.000 NA
ATOM      5  C   UNL     1      46.264   7.323  12.826  0.00  0.00    +0.000 A 
ATOM      6  C   UNL     1      46.912   6.188  13.296  0.00  0.00    +0.000 A 
ATOM      7  C   UNL     1      46.173   5.009  13.438  0.00  0.00    +0.000 A 
BRANCH   6   8
ATOM      8  C   UNL     1      48.335   6.302  13.675  0.00  0.00    +0.000 C 
ATOM      9  O   UNL     1      49.206   6.560  12.869  0.00  0.00    +0.000 OA
BRANCH   8  10
ATOM     10  O   UNL     1      48.588   6.075  14.982  0.00  0.00    +0.000 OA
ATOM     11  H   UNL     1      47.818   6.039  15.574  0.00  0.00    +0.000 HD
ENDBRANCH   8  10
ENDBRANCH   6   8
ENDBRANCH   1   2
BRANCH   1  12
ATOM     12  C   UNL     1      44.275   2.865  12.214  0.00  0.00    +0.000 C 
BRANCH  12  13
ATOM     13  C   UNL     1      43.595   3.191  10.884  0.00  0.00    +0.000 C 
BRANCH  13  18
ATOM     14  C   UNL     1      47.301   2.853   6.396  0.00  0.00    +0.000 C 
ATOM     15  C   UNL     1      46.348   2.949   7.552  0.00  0.00    +0.000 A 
ATOM     16  C   UNL     1      45.907   4.191   8.020  0.00  0.00    +0.000 A 
ATOM     17  C   UNL     1      45.025   4.270   9.102  0.00  0.00    +0.000 A 
ATOM     18  C   UNL     1      44.571   3.107   9.737  0.00  0.00    +0.000 A 
ATOM     19  C   UNL     1      45.006   1.863   9.260  0.00  0.00    +0.000 A 
ATOM     20  C   UNL     1      45.888   1.786   8.178  0.00  0.00    +0.000 A 
ENDBRANCH  13  18
ENDBRANCH  12  13
ENDBRANCH   1  12
TORSDOF 6
ENDMDL
MODEL 5
REMARK VINA RESULT:    -6.332      3.163      6.136
REMARK INTER + INTRA:          -8.958
REMARK INTER:                  -8.362
REMARK INTRA:                  -0.595
REMARK UNBOUND:                -0.590
REMARK  Name = 
REMARK  7 active torsions:
REMARK  status: ('A' for Active; 'I' for Inactive)
REMARK    1  A    between atoms: C_1  and  C_2
REMARK    2  A    between atoms: C_5  and  C_6
REMARK    3  A    between atoms: C_6  and  C_7
REMARK    4  A    between atoms: C_7  and  O_8
REMARK    5  A    between atoms: O_8  and  C_9
REMARK    6  A    between atoms: C_13  and  C_14
REMARK    7  A    between atoms: C_14  and  O_16
REMARK                            x       y       z     vdW  Elec       q    Type
REMARK                         _______ _______ _______ _____ _____    ______ ____
ROOT
ATOM      1  O   UNL     1      44.527   5.573  12.171  0.00  0.00    +0.000 OA
ENDROOT
BRANCH   1   2
ATOM      2  C   UNL     1      45.826   5.879  12.472  0.00  0.00    +0.000 A 
ATOM      3  C   UNL     1      46.426   5.163  13.502  0.00  0.00    +0.000 A 
ATOM      4  N   UNL     1      47.704   5.346  13.915  0.00  0.00    +0.000 NA
ATOM      5  C   UNL     1      48.419   6.304  13.276  0.00  0.00    +0.000 A 
ATOM      6  C   UNL     1      47.897   7.101  12.266  0.00  0.00    +0.000 A 
ATOM      7  C   UNL     1      46.581   6.874  11.850  0.00  0.00    +0.000 A 
BRANCH   6   8
ATOM      8  C   UNL     1      48.779   8.110  11.644  0.00  0.00    +0.000 C 
ATOM      9  O   UNL     1      48.439   9.265  11.486  0.00  0.00    +0.000 OA
BRANCH   8  10
ATOM     10  O   UNL     1      49.982   7.638  11.250  0.00  0.00    +0.000 OA
ATOM     11  H   UNL     1      50.419   7.008  11.848  0.00  0.00    +0.000 HD
ENDBRANCH   8  10
ENDBRANCH   6   8
ENDBRANCH   1   2
BRANCH   1  12
ATOM     12  C   UNL     1      44.215   5.526  10.773  0.00  0.00    +0.000 C 
BRANCH  12  13
ATOM     13  C   UNL     1      43.838   4.096  10.385  0.00  0.00    +0.000 C 
BRANCH  13  18
ATOM     14  C   UNL     1      47.606   1.947   6.490  0.00  0.00    +0.000 C 
ATOM     15  C   UNL     1      46.633   2.491   7.496  0.00  0.00    +0.000 A 
ATOM     16  C   UNL     1      45.935   1.639   8.357  0.00  0.00    +0.000 A 
ATOM     17  C   UNL     1      45.025   2.157   9.285  0.00  0.00    +0.000 A 
ATOM     18  C   UNL     1      44.796   3.536   9.364  0.00  0.00    +0.000 A 
ATOM     19  C   UNL     1      45.503   4.388   8.506  0.00  0.00    +0.000 A 
ATOM     20  C   UNL     1      46.412   3.870   7.579  0.00  0.00    +0.000 A 
ENDBRANCH  13  18
ENDBRANCH  12  13
ENDBRANCH   1  12
TORSDOF 6
ENDMDL
MODEL 6
REMARK VINA RESULT:    -6.216      1.971      2.702
REMARK INTER + INTRA:          -8.805
REMARK INTER:                  -8.189
REMARK INTRA:                  -0.617
REMARK UNBOUND:                -0.590
REMARK  Name = 
REMARK  7 active torsions:
REMARK  status: ('A' for Active; 'I' for Inactive)
REMARK    1  A    between atoms: C_1  and  C_2
REMARK    2  A    between atoms: C_5  and  C_6
REMARK    3  A    between atoms: C_6  and  C_7
REMARK    4  A    between atoms: C_7  and  O_8
REMARK    5  A    between atoms: O_8  and  C_9
REMARK    6  A    between atoms: C_13  and  C_14
REMARK    7  A    between atoms: C_14  and  O_16
REMARK                            x       y       z     vdW  Elec       q    Type
REMARK                         _______ _______ _______ _____ _____    ______ ____
ROOT
ATOM      1  O   UNL     1      44.294   5.898  10.983  0.00  0.00    +0.000 OA
ENDROOT
BRANCH   1   2
ATOM      2  C   UNL     1      44.534   4.760  10.263  0.00  0.00    +0.000 A 
ATOM      3  C   UNL     1      43.834   3.616  10.630  0.00  0.00    +0.000 A 
ATOM      4  N   UNL     1      43.957   2.415  10.013  0.00  0.00    +0.000 NA
ATOM      5  C   UNL     1      44.839   2.347   8.985  0.00  0.00    +0.000 A 
ATOM      6  C   UNL     1      45.617   3.420   8.572  0.00  0.00    +0.000 A 
ATOM      7  C   UNL     1      45.451   4.650   9.216  0.00  0.00    +0.000 A 
BRANCH   6   8
ATOM      8  C   UNL     1      46.538   3.220   7.436  0.00  0.00    +0.000 C 
ATOM      9  O   UNL     1      47.154   2.186   7.269  0.00  0.00    +0.000 OA
BRANCH   8  10
ATOM     10  O   UNL     1      46.656   4.284   6.613  0.00  0.00    +0.000 OA
ATOM     11  H   UNL     1      47.494   4.369   6.128  0.00  0.00    +0.000 HD
ENDBRANCH   8  10
ENDBRANCH   6   8
ENDBRANCH   1   2
BRANCH   1  12
ATOM     12  C   UNL     1      44.093   5.704  12.389  0.00  0.00    +0.000 C 
BRANCH  12  13
ATOM     13  C   UNL     1      45.446   5.686  13.099  0.00  0.00    +0.000 C 
BRANCH  13  18
ATOM     14  C   UNL     1      48.747  10.253  11.604  0.00  0.00    +0.000 C 
ATOM     15  C   UNL     1      47.903   9.071  11.985  0.00  0.00    +0.000 A 
ATOM     16  C   UNL     1      48.346   7.765  11.751  0.00  0.00    +0.000 A 
ATOM     17  C   UNL     1      47.549   6.672  12.104  0.00  0.00    +0.000 A 
ATOM     18  C   UNL     1      46.293   6.866  12.691  0.00  0.00    +0.000 A 
ATOM     19  C   UNL     1      45.855   8.175  12.932  0.00  0.00    +0.000 A 
ATOM     20  C   UNL     1      46.654   9.268  12.581  0.00  0.00    +0.000 A 
ENDBRANCH  13  18
ENDBRANCH  12  13
ENDBRANCH   1  12
TORSDOF 6
ENDMDL
MODEL 7
REMARK VINA RESULT:    -6.188      3.709      6.982
REMARK INTER + INTRA:          -8.768
REMARK INTER:                  -8.397
REMARK INTRA:                  -0.370
REMARK UNBOUND:                -0.590
REMARK  Name = 
REMARK  7 active torsions:
REMARK  status: ('A' for Active; 'I' for Inactive)
REMARK    1  A    between atoms: C_1  and  C_2
REMARK    2  A    between atoms: C_5  and  C_6
REMARK    3  A    between atoms: C_6  and  C_7
REMARK    4  A    between atoms: C_7  and  O_8
REMARK    5  A    between atoms: O_8  and  C_9
REMARK    6  A    between atoms: C_13  and  C_14
REMARK    7  A    between atoms: C_14  and  O_16
REMARK                            x       y       z     vdW  Elec       q    Type
REMARK                         _______ _______ _______ _____ _____    ______ ____
ROOT
ATOM      1  O   UNL     1      46.168   5.260  12.720  0.00  0.00    +0.000 OA
ENDROOT
BRANCH   1   2
ATOM      2  C   UNL     1      46.874   5.301  13.891  0.00  0.00    +0.000 A 
ATOM      3  C   UNL     1      47.974   6.150  13.941  0.00  0.00    +0.000 A 
ATOM      4  N   UNL     1      48.769   6.305  15.028  0.00  0.00    +0.000 NA
ATOM      5  C   UNL     1      48.460   5.560  16.119  0.00  0.00    +0.000 A 
ATOM      6  C   UNL     1      47.411   4.653  16.153  0.00  0.00    +0.000 A 
ATOM      7  C   UNL     1      46.597   4.531  15.022  0.00  0.00    +0.000 A 
BRANCH   6   8
ATOM      8  C   UNL     1      47.174   3.904  17.404  0.00  0.00    +0.000 C 
ATOM      9  O   UNL     1      46.724   2.776  17.414  0.00  0.00    +0.000 OA
BRANCH   8  10
ATOM     10  O   UNL     1      47.480   4.582  18.531  0.00  0.00    +0.000 OA
ATOM     11  H   UNL     1      47.949   4.086  19.223  0.00  0.00    +0.000 HD
ENDBRANCH   8  10
ENDBRANCH   6   8
ENDBRANCH   1   2
BRANCH   1  12
ATOM     12  C   UNL     1      45.317   4.118  12.554  0.00  0.00    +0.000 C 
BRANCH  12  13
ATOM     13  C   UNL     1      44.336   4.378  11.411  0.00  0.00    +0.000 C 
BRANCH  13  18
ATOM     14  C   UNL     1      46.665   2.767   6.316  0.00  0.00    +0.000 C 
ATOM     15  C   UNL     1      46.062   3.173   7.630  0.00  0.00    +0.000 A 
ATOM     16  C   UNL     1      45.489   2.224   8.483  0.00  0.00    +0.000 A 
ATOM     17  C   UNL     1      44.924   2.615   9.701  0.00  0.00    +0.000 A 
ATOM     18  C   UNL     1      44.918   3.961  10.084  0.00  0.00    +0.000 A 
ATOM     19  C   UNL     1      45.501   4.909   9.232  0.00  0.00    +0.000 A 
ATOM     20  C   UNL     1      46.067   4.517   8.015  0.00  0.00    +0.000 A 
ENDBRANCH  13  18
ENDBRANCH  12  13
ENDBRANCH   1  12
TORSDOF 6
ENDMDL
MODEL 8
REMARK VINA RESULT:    -6.157      1.634      2.201
REMARK INTER + INTRA:          -8.727
REMARK INTER:                  -8.310
REMARK INTRA:                  -0.417
REMARK UNBOUND:                -0.590
REMARK  Name = 
REMARK  7 active torsions:
REMARK  status: ('A' for Active; 'I' for Inactive)
REMARK    1  A    between atoms: C_1  and  C_2
REMARK    2  A    between atoms: C_5  and  C_6
REMARK    3  A    between atoms: C_6  and  C_7
REMARK    4  A    between atoms: C_7  and  O_8
REMARK    5  A    between atoms: O_8  and  C_9
REMARK    6  A    between atoms: C_13  and  C_14
REMARK    7  A    between atoms: C_14  and  O_16
REMARK                            x       y       z     vdW  Elec       q    Type
REMARK                         _______ _______ _______ _____ _____    ______ ____
ROOT
ATOM      1  O   UNL     1      44.338   4.573   9.496  0.00  0.00    +0.000 OA
ENDROOT
BRANCH   1   2
ATOM      2  C   UNL     1      45.038   3.572   8.879  0.00  0.00    +0.000 A 
ATOM      3  C   UNL     1      44.885   2.286   9.382  0.00  0.00    +0.000 A 
ATOM      4  N   UNL     1      45.505   1.190   8.879  0.00  0.00    +0.000 NA
ATOM      5  C   UNL     1      46.335   1.392   7.825  0.00  0.00    +0.000 A 
ATOM      6  C   UNL     1      46.588   2.643   7.279  0.00  0.00    +0.000 A 
ATOM      7  C   UNL     1      45.917   3.749   7.809  0.00  0.00    +0.000 A 
BRANCH   6   8
ATOM      8  C   UNL     1      47.510   2.730   6.129  0.00  0.00    +0.000 C 
ATOM      9  O   UNL     1      47.118   2.863   4.987  0.00  0.00    +0.000 OA
BRANCH   8  10
ATOM     10  O   UNL     1      48.818   2.629   6.449  0.00  0.00    +0.000 OA
ATOM     11  H   UNL     1      49.056   1.947   7.099  0.00  0.00    +0.000 HD
ENDBRANCH   8  10
ENDBRANCH   6   8
ENDBRANCH   1   2
BRANCH   1  12
ATOM     12  C   UNL     1      44.790   4.916  10.813  0.00  0.00    +0.000 C 
BRANCH  12  13
ATOM     13  C   UNL     1      45.451   6.294  10.780  0.00  0.00    +0.000 C 
BRANCH  13  18
ATOM     14  C   UNL     1      49.271   6.883  15.144  0.00  0.00    +0.000 C 
ATOM     15  C   UNL     1      48.290   6.740  14.016  0.00  0.00    +0.000 A 
ATOM     16  C   UNL     1      48.243   7.677  12.980  0.00  0.00    +0.000 A 
ATOM     17  C   UNL     1      47.320   7.538  11.938  0.00  0.00    +0.000 A 
ATOM     18  C   UNL     1      46.426   6.460  11.919  0.00  0.00    +0.000 A 
ATOM     19  C   UNL     1      46.481   5.518  12.953  0.00  0.00    +0.000 A 
ATOM     20  C   UNL     1      47.405   5.657  13.994  0.00  0.00    +0.000 A 
ENDBRANCH  13  18
ENDBRANCH  12  13
ENDBRANCH   1  12
TORSDOF 6
ENDMDL
MODEL 9
REMARK VINA RESULT:    -6.115      4.028      5.854
REMARK INTER + INTRA:          -8.671
REMARK INTER:                  -8.329
REMARK INTRA:                  -0.342
REMARK UNBOUND:                -0.590
REMARK  Name = 
REMARK  7 active torsions:
REMARK  status: ('A' for Active; 'I' for Inactive)
REMARK    1  A    between atoms: C_1  and  C_2
REMARK    2  A    between atoms: C_5  and  C_6
REMARK    3  A    between atoms: C_6  and  C_7
REMARK    4  A    between atoms: C_7  and  O_8
REMARK    5  A    between atoms: O_8  and  C_9
REMARK    6  A    between atoms: C_13  and  C_14
REMARK    7  A    between atoms: C_14  and  O_16
REMARK                            x       y       z     vdW  Elec       q    Type
REMARK                         _______ _______ _______ _____ _____    ______ ____
ROOT
ATOM      1  O   UNL     1      47.265   3.843  14.279  0.00  0.00    +0.000 OA
ENDROOT
BRANCH   1   2
ATOM      2  C   UNL     1      46.591   4.433  13.244  0.00  0.00    +0.000 A 
ATOM      3  C   UNL     1      46.991   5.712  12.874  0.00  0.00    +0.000 A 
ATOM      4  N   UNL     1      46.427   6.426  11.868  0.00  0.00    +0.000 NA
ATOM      5  C   UNL     1      45.399   5.838  11.207  0.00  0.00    +0.000 A 
ATOM      6  C   UNL     1      44.899   4.584  11.530  0.00  0.00    +0.000 A 
ATOM      7  C   UNL     1      45.516   3.866  12.560  0.00  0.00    +0.000 A 
BRANCH   6   8
ATOM      8  C   UNL     1      43.778   4.051  10.731  0.00  0.00    +0.000 C 
ATOM      9  O   UNL     1      43.110   3.104  11.095  0.00  0.00    +0.000 OA
BRANCH   8  10
ATOM     10  O   UNL     1      43.571   4.688   9.558  0.00  0.00    +0.000 OA
ATOM     11  H   UNL     1      42.866   5.358   9.545  0.00  0.00    +0.000 HD
ENDBRANCH   8  10
ENDBRANCH   6   8
ENDBRANCH   1   2
BRANCH   1  12
ATOM     12  C   UNL     1      47.315   4.604  15.493  0.00  0.00    +0.000 C 
BRANCH  12  13
ATOM     13  C   UNL     1      47.385   3.652  16.687  0.00  0.00    +0.000 C 
BRANCH  13  18
ATOM     14  C   UNL     1      52.933   2.539  18.090  0.00  0.00    +0.000 C 
ATOM     15  C   UNL     1      51.504   2.834  17.733  0.00  0.00    +0.000 A 
ATOM     16  C   UNL     1      50.935   4.081  18.012  0.00  0.00    +0.000 A 
ATOM     17  C   UNL     1      49.602   4.342  17.682  0.00  0.00    +0.000 A 
ATOM     18  C   UNL     1      48.814   3.359  17.070  0.00  0.00    +0.000 A 
ATOM     19  C   UNL     1      49.389   2.115  16.783  0.00  0.00    +0.000 A 
ATOM     20  C   UNL     1      50.722   1.855  17.113  0.00  0.00    +0.000 A 
ENDBRANCH  13  18
ENDBRANCH  12  13
ENDBRANCH   1  12
TORSDOF 6
ENDMDL
