MODEL 1
REMARK VINA RESULT:    -8.661      0.000      0.000
REMARK INTER + INTRA:         -13.782
REMARK INTER:                 -12.711
REMARK INTRA:                  -1.072
REMARK UNBOUND:                -1.072
REMARK  Name = 
REMARK  8 active torsions:
REMARK  status: ('A' for Active; 'I' for Inactive)
REMARK    1  A    between atoms: C_2  and  C_20
REMARK    2  A    between atoms: N_3  and  C_4
REMARK    3  A    between atoms: C_4  and  C_5
REMARK    4  A    between atoms: C_8  and  C_9
REMARK    5  A    between atoms: C_9  and  C_10
REMARK    6  A    between atoms: C_10  and  N_11
REMARK    7  A    between atoms: N_11  and  C_12
REMARK    8  A    between atoms: C_27  and  N_28
REMARK                            x       y       z     vdW  Elec       q    Type
REMARK                         _______ _______ _______ _____ _____    ______ ____
ROOT
ATOM      1  O   UNL     1      49.174   6.639  13.318  0.00  0.00    +0.000 OA
ATOM      2  C   UNL     1      48.537   6.913  14.327  0.00  0.00    +0.000 C 
ATOM      3  N   UNL     1      47.369   7.639  14.332  0.00  0.00    +0.000 N 
ATOM      4  H   UNL     1      47.043   8.013  15.211  0.00  0.00    +0.000 HD
ENDROOT
BRANCH   2   5
ATOM      5  C   UNL     1      48.941   6.426  15.643  0.00  0.00    +0.000 A 
ATOM      6  C   UNL     1      49.818   7.091  16.492  0.00  0.00    +0.000 A 
ATOM      7  N   UNL     1      49.849   6.432  17.688  0.00  0.00    +0.000 N 
ATOM      8  C   UNL     1      49.030   5.343  17.632  0.00  0.00    +0.000 A 
ATOM      9  N   UNL     1      48.836   4.508  18.670  0.00  0.00    +0.000 NA
ATOM     10  C   UNL     1      47.988   3.491  18.407  0.00  0.00    +0.000 A 
ATOM     11  C   UNL     1      47.366   3.261  17.196  0.00  0.00    +0.000 A 
ATOM     12  C   UNL     1      47.622   4.167  16.164  0.00  0.00    +0.000 A 
ATOM     13  C   UNL     1      48.465   5.276  16.360  0.00  0.00    +0.000 A 
ATOM     14  H   UNL     1      50.360   6.704  18.515  0.00  0.00    +0.000 HD
BRANCH  12  15
ATOM     15  N   UNL     1      47.075   3.893  14.855  0.00  0.00    +0.000 N 
ATOM     16  O   UNL     1      47.758   3.182  14.103  0.00  0.00    +0.000 OA
ATOM     17  O   UNL     1      46.036   4.488  14.545  0.00  0.00    +0.000 OA
ENDBRANCH  12  15
ENDBRANCH   2   5
BRANCH   3  18
ATOM     18  C   UNL     1      46.803   8.176  13.122  0.00  0.00    +0.000 C 
BRANCH  18  19
ATOM     19  C   UNL     1      46.047   7.128  12.358  0.00  0.00    +0.000 A 
ATOM     20  C   UNL     1      44.770   6.756  12.784  0.00  0.00    +0.000 A 
ATOM     21  C   UNL     1      44.046   5.793  12.087  0.00  0.00    +0.000 A 
ATOM     22  C   UNL     1      44.575   5.179  10.944  0.00  0.00    +0.000 A 
ATOM     23  C   UNL     1      45.875   5.521  10.545  0.00  0.00    +0.000 A 
ATOM     24  C   UNL     1      46.604   6.488  11.244  0.00  0.00    +0.000 A 
BRANCH  22  25
ATOM     25  C   UNL     1      43.806   4.127  10.172  0.00  0.00    +0.000 C 
BRANCH  25  26
ATOM     26  C   UNL     1      44.143   2.659  10.497  0.00  0.00    +0.000 C 
BRANCH  26  27
ATOM     27  N   UNL     1      44.426   1.858   9.302  0.00  0.00    +0.000 NA
ATOM     28  H   UNL     1      43.643   1.920   8.651  0.00  0.00    +0.000 HD
BRANCH  27  29
ATOM     29  C   UNL     1      45.679   2.217   8.627  0.00  0.00    +0.000 C 
ATOM     30  C   UNL     1      45.372   3.320   7.595  0.00  0.00    +0.000 C 
ATOM     31  C   UNL     1      46.612   3.711   6.790  0.00  0.00    +0.000 C 
ATOM     32  C   UNL     1      47.252   2.502   6.118  0.00  0.00    +0.000 C 
ATOM     33  C   UNL     1      47.586   1.426   7.142  0.00  0.00    +0.000 C 
ATOM     34  C   UNL     1      46.350   1.014   7.936  0.00  0.00    +0.000 C 
ENDBRANCH  27  29
ENDBRANCH  26  27
ENDBRANCH  25  26
ENDBRANCH  22  25
ENDBRANCH  18  19
ENDBRANCH   3  18
TORSDOF 8
ENDMDL
MODEL 2
REMARK VINA RESULT:    -8.166      1.811      2.187
REMARK INTER + INTRA:         -13.057
REMARK INTER:                 -11.724
REMARK INTRA:                  -1.332
REMARK UNBOUND:                -1.072
REMARK  Name = 
REMARK  8 active torsions:
REMARK  status: ('A' for Active; 'I' for Inactive)
REMARK    1  A    between atoms: C_2  and  C_20
REMARK    2  A    between atoms: N_3  and  C_4
REMARK    3  A    between atoms: C_4  and  C_5
REMARK    4  A    between atoms: C_8  and  C_9
REMARK    5  A    between atoms: C_9  and  C_10
REMARK    6  A    between atoms: C_10  and  N_11
REMARK    7  A    between atoms: N_11  and  C_12
REMARK    8  A    between atoms: C_27  and  N_28
REMARK                            x       y       z     vdW  Elec       q    Type
REMARK                         _______ _______ _______ _____ _____    ______ ____
ROOT
ATOM      1  O   UNL     1      50.330   6.773  15.289  0.00  0.00    +0.000 OA
ATOM      2  C   UNL     1      49.256   7.144  15.745  0.00  0.00    +0.000 C 
ATOM      3  N   UNL     1      48.130   7.372  14.988  0.00  0.00    +0.000 N 
ATOM      4  H   UNL     1      47.372   7.892  15.404  0.00  0.00    +0.000 HD
ENDROOT
BRANCH   2   5
ATOM      5  C   UNL     1      49.054   7.321  17.180  0.00  0.00    +0.000 A 
ATOM      6  C   UNL     1      48.824   8.546  17.797  0.00  0.00    +0.000 A 
ATOM      7  N   UNL     1      48.531   8.323  19.112  0.00  0.00    +0.000 N 
ATOM      8  C   UNL     1      48.584   6.986  19.372  0.00  0.00    +0.000 A 
ATOM      9  N   UNL     1      48.319   6.455  20.580  0.00  0.00    +0.000 NA
ATOM     10  C   UNL     1      48.429   5.111  20.628  0.00  0.00    +0.000 A 
ATOM     11  C   UNL     1      48.800   4.301  19.573  0.00  0.00    +0.000 A 
ATOM     12  C   UNL     1      49.065   4.924  18.351  0.00  0.00    +0.000 A 
ATOM     13  C   UNL     1      48.942   6.318  18.202  0.00  0.00    +0.000 A 
ATOM     14  H   UNL     1      48.275   9.017  19.800  0.00  0.00    +0.000 HD
BRANCH  12  15
ATOM     15  N   UNL     1      49.563   4.119  17.260  0.00  0.00    +0.000 N 
ATOM     16  O   UNL     1      50.789   4.118  17.080  0.00  0.00    +0.000 OA
ATOM     17  O   UNL     1      48.721   3.598  16.517  0.00  0.00    +0.000 OA
ENDBRANCH  12  15
ENDBRANCH   2   5
BRANCH   3  18
ATOM     18  C   UNL     1      48.134   7.220  13.556  0.00  0.00    +0.000 C 
BRANCH  18  19
ATOM     19  C   UNL     1      47.172   6.154  13.116  0.00  0.00    +0.000 A 
ATOM     20  C   UNL     1      46.367   6.377  11.997  0.00  0.00    +0.000 A 
ATOM     21  C   UNL     1      45.474   5.402  11.564  0.00  0.00    +0.000 A 
ATOM     22  C   UNL     1      45.364   4.175  12.232  0.00  0.00    +0.000 A 
ATOM     23  C   UNL     1      46.141   3.972  13.382  0.00  0.00    +0.000 A 
ATOM     24  C   UNL     1      47.038   4.951  13.819  0.00  0.00    +0.000 A 
BRANCH  22  25
ATOM     25  C   UNL     1      44.398   3.100  11.780  0.00  0.00    +0.000 C 
BRANCH  25  26
ATOM     26  C   UNL     1      44.003   3.121  10.291  0.00  0.00    +0.000 C 
BRANCH  26  27
ATOM     27  N   UNL     1      44.529   1.975   9.543  0.00  0.00    +0.000 NA
ATOM     28  H   UNL     1      43.804   1.596   8.935  0.00  0.00    +0.000 HD
BRANCH  27  29
ATOM     29  C   UNL     1      45.739   2.275   8.766  0.00  0.00    +0.000 C 
ATOM     30  C   UNL     1      45.411   3.420   7.787  0.00  0.00    +0.000 C 
ATOM     31  C   UNL     1      46.598   3.757   6.883  0.00  0.00    +0.000 C 
ATOM     32  C   UNL     1      47.101   2.528   6.135  0.00  0.00    +0.000 C 
ATOM     33  C   UNL     1      47.457   1.409   7.103  0.00  0.00    +0.000 C 
ATOM     34  C   UNL     1      46.272   1.052   7.996  0.00  0.00    +0.000 C 
ENDBRANCH  27  29
ENDBRANCH  26  27
ENDBRANCH  25  26
ENDBRANCH  22  25
ENDBRANCH  18  19
ENDBRANCH   3  18
TORSDOF 8
ENDMDL
MODEL 3
REMARK VINA RESULT:    -8.052      2.348      3.426
REMARK INTER + INTRA:         -12.889
REMARK INTER:                 -11.724
REMARK INTRA:                  -1.165
REMARK UNBOUND:                -1.072
REMARK  Name = 
REMARK  8 active torsions:
REMARK  status: ('A' for Active; 'I' for Inactive)
REMARK    1  A    between atoms: C_2  and  C_20
REMARK    2  A    between atoms: N_3  and  C_4
REMARK    3  A    between atoms: C_4  and  C_5
REMARK    4  A    between atoms: C_8  and  C_9
REMARK    5  A    between atoms: C_9  and  C_10
REMARK    6  A    between atoms: C_10  and  N_11
REMARK    7  A    between atoms: N_11  and  C_12
REMARK    8  A    between atoms: C_27  and  N_28
REMARK                            x       y       z     vdW  Elec       q    Type
REMARK                         _______ _______ _______ _____ _____    ______ ____
ROOT
ATOM      1  O   UNL     1      50.336   5.709  16.313  0.00  0.00    +0.000 OA
ATOM      2  C   UNL     1      49.170   5.563  16.655  0.00  0.00    +0.000 C 
ATOM      3  N   UNL     1      48.086   5.899  15.877  0.00  0.00    +0.000 N 
ATOM      4  H   UNL     1      47.182   5.963  16.320  0.00  0.00    +0.000 HD
ENDROOT
BRANCH   2   5
ATOM      5  C   UNL     1      48.818   4.945  17.930  0.00  0.00    +0.000 A 
ATOM      6  C   UNL     1      48.629   3.581  18.118  0.00  0.00    +0.000 A 
ATOM      7  N   UNL     1      48.463   3.344  19.453  0.00  0.00    +0.000 N 
ATOM      8  C   UNL     1      48.517   4.523  20.137  0.00  0.00    +0.000 A 
ATOM      9  N   UNL     1      48.407   4.608  21.475  0.00  0.00    +0.000 NA
ATOM     10  C   UNL     1      48.486   5.867  21.955  0.00  0.00    +0.000 A 
ATOM     11  C   UNL     1      48.640   7.006  21.190  0.00  0.00    +0.000 A 
ATOM     12  C   UNL     1      48.740   6.839  19.807  0.00  0.00    +0.000 A 
ATOM     13  C   UNL     1      48.703   5.559  19.224  0.00  0.00    +0.000 A 
ATOM     14  H   UNL     1      48.351   2.445  19.898  0.00  0.00    +0.000 HD
BRANCH  12  15
ATOM     15  N   UNL     1      48.790   8.017  18.972  0.00  0.00    +0.000 N 
ATOM     16  O   UNL     1      47.793   8.247  18.272  0.00  0.00    +0.000 OA
ATOM     17  O   UNL     1      49.864   8.628  18.926  0.00  0.00    +0.000 OA
ENDBRANCH  12  15
ENDBRANCH   2   5
BRANCH   3  18
ATOM     18  C   UNL     1      48.241   6.493  14.575  0.00  0.00    +0.000 C 
BRANCH  18  19
ATOM     19  C   UNL     1      47.128   6.091  13.652  0.00  0.00    +0.000 A 
ATOM     20  C   UNL     1      46.933   6.797  12.463  0.00  0.00    +0.000 A 
ATOM     21  C   UNL     1      45.914   6.437  11.586  0.00  0.00    +0.000 A 
ATOM     22  C   UNL     1      45.063   5.360  11.871  0.00  0.00    +0.000 A 
ATOM     23  C   UNL     1      45.232   4.682  13.087  0.00  0.00    +0.000 A 
ATOM     24  C   UNL     1      46.255   5.042  13.968  0.00  0.00    +0.000 A 
BRANCH  22  25
ATOM     25  C   UNL     1      43.946   4.953  10.933  0.00  0.00    +0.000 C 
BRANCH  25  26
ATOM     26  C   UNL     1      44.267   3.818   9.942  0.00  0.00    +0.000 C 
BRANCH  26  27
ATOM     27  N   UNL     1      44.655   4.309   8.616  0.00  0.00    +0.000 NA
ATOM     28  H   UNL     1      45.283   5.106   8.712  0.00  0.00    +0.000 HD
BRANCH  27  29
ATOM     29  C   UNL     1      45.262   3.285   7.756  0.00  0.00    +0.000 C 
ATOM     30  C   UNL     1      45.715   2.112   8.647  0.00  0.00    +0.000 C 
ATOM     31  C   UNL     1      46.425   1.023   7.843  0.00  0.00    +0.000 C 
ATOM     32  C   UNL     1      47.597   1.584   7.046  0.00  0.00    +0.000 C 
ATOM     33  C   UNL     1      47.144   2.720   6.140  0.00  0.00    +0.000 C 
ATOM     34  C   UNL     1      46.452   3.823   6.938  0.00  0.00    +0.000 C 
ENDBRANCH  27  29
ENDBRANCH  26  27
ENDBRANCH  25  26
ENDBRANCH  22  25
ENDBRANCH  18  19
ENDBRANCH   3  18
TORSDOF 8
ENDMDL
MODEL 4
REMARK VINA RESULT:    -7.621      1.885      2.321
REMARK INTER + INTRA:         -12.256
REMARK INTER:                 -10.836
REMARK INTRA:                  -1.421
REMARK UNBOUND:                -1.072
REMARK  Name = 
REMARK  8 active torsions:
REMARK  status: ('A' for Active; 'I' for Inactive)
REMARK    1  A    between atoms: C_2  and  C_20
REMARK    2  A    between atoms: N_3  and  C_4
REMARK    3  A    between atoms: C_4  and  C_5
REMARK    4  A    between atoms: C_8  and  C_9
REMARK    5  A    between atoms: C_9  and  C_10
REMARK    6  A    between atoms: C_10  and  N_11
REMARK    7  A    between atoms: N_11  and  C_12
REMARK    8  A    between atoms: C_27  and  N_28
REMARK                            x       y       z     vdW  Elec       q    Type
REMARK                         _______ _______ _______ _____ _____    ______ ____
ROOT
ATOM      1  O   UNL     1      48.243   8.027  15.653  0.00  0.00    +0.000 OA
ATOM      2  C   UNL     1      49.098   7.412  15.028  0.00  0.00    +0.000 C 
ATOM      3  N   UNL     1      49.058   7.192  13.670  0.00  0.00    +0.000 N 
ATOM      4  H   UNL     1      49.668   6.489  13.283  0.00  0.00    +0.000 HD
ENDROOT
BRANCH   2   5
ATOM      5  C   UNL     1      50.300   6.898  15.678  0.00  0.00    +0.000 A 
ATOM      6  C   UNL     1      51.584   7.381  15.455  0.00  0.00    +0.000 A 
ATOM      7  N   UNL     1      52.436   6.777  16.335  0.00  0.00    +0.000 N 
ATOM      8  C   UNL     1      51.743   5.897  17.112  0.00  0.00    +0.000 A 
ATOM      9  N   UNL     1      52.310   5.167  18.090  0.00  0.00    +0.000 NA
ATOM     10  C   UNL     1      51.449   4.356  18.741  0.00  0.00    +0.000 A 
ATOM     11  C   UNL     1      50.104   4.225  18.458  0.00  0.00    +0.000 A 
ATOM     12  C   UNL     1      49.589   5.011  17.425  0.00  0.00    +0.000 A 
ATOM     13  C   UNL     1      50.406   5.910  16.716  0.00  0.00    +0.000 A 
ATOM     14  H   UNL     1      53.423   6.960  16.442  0.00  0.00    +0.000 HD
BRANCH  12  15
ATOM     15  N   UNL     1      48.212   4.817  17.032  0.00  0.00    +0.000 N 
ATOM     16  O   UNL     1      47.344   5.167  17.845  0.00  0.00    +0.000 OA
ATOM     17  O   UNL     1      48.011   4.206  15.975  0.00  0.00    +0.000 OA
ENDBRANCH  12  15
ENDBRANCH   2   5
BRANCH   3  18
ATOM     18  C   UNL     1      47.962   7.653  12.859  0.00  0.00    +0.000 C 
BRANCH  18  19
ATOM     19  C   UNL     1      46.812   6.688  12.892  0.00  0.00    +0.000 A 
ATOM     20  C   UNL     1      45.507   7.172  12.770  0.00  0.00    +0.000 A 
ATOM     21  C   UNL     1      44.425   6.297  12.789  0.00  0.00    +0.000 A 
ATOM     22  C   UNL     1      44.615   4.915  12.925  0.00  0.00    +0.000 A 
ATOM     23  C   UNL     1      45.923   4.437  13.093  0.00  0.00    +0.000 A 
ATOM     24  C   UNL     1      47.011   5.314  13.075  0.00  0.00    +0.000 A 
BRANCH  22  25
ATOM     25  C   UNL     1      43.453   3.945  12.950  0.00  0.00    +0.000 C 
BRANCH  25  26
ATOM     26  C   UNL     1      43.508   2.787  11.935  0.00  0.00    +0.000 C 
BRANCH  26  27
ATOM     27  N   UNL     1      43.451   3.243  10.543  0.00  0.00    +0.000 NA
ATOM     28  H   UNL     1      43.107   4.203  10.507  0.00  0.00    +0.000 HD
BRANCH  27  29
ATOM     29  C   UNL     1      44.729   3.135   9.828  0.00  0.00    +0.000 C 
ATOM     30  C   UNL     1      44.860   4.350   8.888  0.00  0.00    +0.000 C 
ATOM     31  C   UNL     1      46.135   4.288   8.047  0.00  0.00    +0.000 C 
ATOM     32  C   UNL     1      46.230   2.983   7.265  0.00  0.00    +0.000 C 
ATOM     33  C   UNL     1      46.135   1.783   8.196  0.00  0.00    +0.000 C 
ATOM     34  C   UNL     1      44.855   1.826   9.026  0.00  0.00    +0.000 C 
ENDBRANCH  27  29
ENDBRANCH  26  27
ENDBRANCH  25  26
ENDBRANCH  22  25
ENDBRANCH  18  19
ENDBRANCH   3  18
TORSDOF 8
ENDMDL
MODEL 5
REMARK VINA RESULT:    -7.294      2.590      3.435
REMARK INTER + INTRA:         -11.777
REMARK INTER:                 -10.451
REMARK INTRA:                  -1.326
REMARK UNBOUND:                -1.072
REMARK  Name = 
REMARK  8 active torsions:
REMARK  status: ('A' for Active; 'I' for Inactive)
REMARK    1  A    between atoms: C_2  and  C_20
REMARK    2  A    between atoms: N_3  and  C_4
REMARK    3  A    between atoms: C_4  and  C_5
REMARK    4  A    between atoms: C_8  and  C_9
REMARK    5  A    between atoms: C_9  and  C_10
REMARK    6  A    between atoms: C_10  and  N_11
REMARK    7  A    between atoms: N_11  and  C_12
REMARK    8  A    between atoms: C_27  and  N_28
REMARK                            x       y       z     vdW  Elec       q    Type
REMARK                         _______ _______ _______ _____ _____    ______ ____
ROOT
ATOM      1  O   UNL     1      49.928   6.925  14.742  0.00  0.00    +0.000 OA
ATOM      2  C   UNL     1      48.874   7.201  15.300  0.00  0.00    +0.000 C 
ATOM      3  N   UNL     1      47.787   6.361  15.362  0.00  0.00    +0.000 N 
ATOM      4  H   UNL     1      46.896   6.751  15.632  0.00  0.00    +0.000 HD
ENDROOT
BRANCH   2   5
ATOM      5  C   UNL     1      48.697   8.457  16.022  0.00  0.00    +0.000 A 
ATOM      6  C   UNL     1      48.771   9.718  15.439  0.00  0.00    +0.000 A 
ATOM      7  N   UNL     1      48.407  10.649  16.369  0.00  0.00    +0.000 N 
ATOM      8  C   UNL     1      48.117  10.030  17.549  0.00  0.00    +0.000 A 
ATOM      9  N   UNL     1      47.705  10.687  18.648  0.00  0.00    +0.000 NA
ATOM     10  C   UNL     1      47.472   9.890  19.712  0.00  0.00    +0.000 A 
ATOM     11  C   UNL     1      47.647   8.520  19.738  0.00  0.00    +0.000 A 
ATOM     12  C   UNL     1      48.083   7.909  18.560  0.00  0.00    +0.000 A 
ATOM     13  C   UNL     1      48.317   8.660  17.393  0.00  0.00    +0.000 A 
ATOM     14  H   UNL     1      48.321  11.645  16.225  0.00  0.00    +0.000 HD
BRANCH  12  15
ATOM     15  N   UNL     1      48.382   6.496  18.586  0.00  0.00    +0.000 N 
ATOM     16  O   UNL     1      49.576   6.179  18.690  0.00  0.00    +0.000 OA
ATOM     17  O   UNL     1      47.442   5.719  18.377  0.00  0.00    +0.000 OA
ENDBRANCH  12  15
ENDBRANCH   2   5
BRANCH   3  18
ATOM     18  C   UNL     1      47.790   5.066  14.732  0.00  0.00    +0.000 C 
BRANCH  18  19
ATOM     19  C   UNL     1      46.725   4.967  13.678  0.00  0.00    +0.000 A 
ATOM     20  C   UNL     1      46.266   3.708  13.284  0.00  0.00    +0.000 A 
ATOM     21  C   UNL     1      45.273   3.590  12.316  0.00  0.00    +0.000 A 
ATOM     22  C   UNL     1      44.708   4.725  11.718  0.00  0.00    +0.000 A 
ATOM     23  C   UNL     1      45.203   5.985  12.083  0.00  0.00    +0.000 A 
ATOM     24  C   UNL     1      46.201   6.106  13.055  0.00  0.00    +0.000 A 
BRANCH  22  25
ATOM     25  C   UNL     1      43.629   4.620  10.661  0.00  0.00    +0.000 C 
BRANCH  25  26
ATOM     26  C   UNL     1      44.100   4.261   9.239  0.00  0.00    +0.000 C 
BRANCH  26  27
ATOM     27  N   UNL     1      44.309   2.822   9.052  0.00  0.00    +0.000 NA
ATOM     28  H   UNL     1      43.410   2.349   8.967  0.00  0.00    +0.000 HD
BRANCH  27  29
ATOM     29  C   UNL     1      45.169   2.488   7.909  0.00  0.00    +0.000 C 
ATOM     30  C   UNL     1      46.119   1.352   8.335  0.00  0.00    +0.000 C 
ATOM     31  C   UNL     1      47.103   0.982   7.225  0.00  0.00    +0.000 C 
ATOM     32  C   UNL     1      47.889   2.195   6.743  0.00  0.00    +0.000 C 
ATOM     33  C   UNL     1      46.952   3.306   6.290  0.00  0.00    +0.000 C 
ATOM     34  C   UNL     1      45.979   3.696   7.399  0.00  0.00    +0.000 C 
ENDBRANCH  27  29
ENDBRANCH  26  27
ENDBRANCH  25  26
ENDBRANCH  22  25
ENDBRANCH  18  19
ENDBRANCH   3  18
TORSDOF 8
ENDMDL
MODEL 6
REMARK VINA RESULT:    -7.235      3.660      9.061
REMARK INTER + INTRA:         -11.690
REMARK INTER:                  -9.210
REMARK INTRA:                  -2.480
REMARK UNBOUND:                -1.072
REMARK  Name = 
REMARK  8 active torsions:
REMARK  status: ('A' for Active; 'I' for Inactive)
REMARK    1  A    between atoms: C_2  and  C_20
REMARK    2  A    between atoms: N_3  and  C_4
REMARK    3  A    between atoms: C_4  and  C_5
REMARK    4  A    between atoms: C_8  and  C_9
REMARK    5  A    between atoms: C_9  and  C_10
REMARK    6  A    between atoms: C_10  and  N_11
REMARK    7  A    between atoms: N_11  and  C_12
REMARK    8  A    between atoms: C_27  and  N_28
REMARK                            x       y       z     vdW  Elec       q    Type
REMARK                         _______ _______ _______ _____ _____    ______ ____
ROOT
ATOM      1  O   UNL     1      47.288   3.184  13.835  0.00  0.00    +0.000 OA
ATOM      2  C   UNL     1      46.733   4.135  14.369  0.00  0.00    +0.000 C 
ATOM      3  N   UNL     1      46.854   4.455  15.701  0.00  0.00    +0.000 N 
ATOM      4  H   UNL     1      46.189   5.101  16.099  0.00  0.00    +0.000 HD
ENDROOT
BRANCH   2   5
ATOM      5  C   UNL     1      45.920   5.075  13.603  0.00  0.00    +0.000 A 
ATOM      6  C   UNL     1      44.589   4.867  13.261  0.00  0.00    +0.000 A 
ATOM      7  N   UNL     1      44.104   6.006  12.683  0.00  0.00    +0.000 N 
ATOM      8  C   UNL     1      45.093   6.944  12.622  0.00  0.00    +0.000 A 
ATOM      9  N   UNL     1      44.910   8.180  12.122  0.00  0.00    +0.000 NA
ATOM     10  C   UNL     1      46.016   8.954  12.151  0.00  0.00    +0.000 A 
ATOM     11  C   UNL     1      47.255   8.561  12.615  0.00  0.00    +0.000 A 
ATOM     12  C   UNL     1      47.369   7.261  13.113  0.00  0.00    +0.000 A 
ATOM     13  C   UNL     1      46.259   6.397  13.153  0.00  0.00    +0.000 A 
ATOM     14  H   UNL     1      43.157   6.171  12.374  0.00  0.00    +0.000 HD
BRANCH  12  15
ATOM     15  N   UNL     1      48.675   6.783  13.502  0.00  0.00    +0.000 N 
ATOM     16  O   UNL     1      49.445   6.453  12.588  0.00  0.00    +0.000 OA
ATOM     17  O   UNL     1      48.877   6.623  14.712  0.00  0.00    +0.000 OA
ENDBRANCH  12  15
ENDBRANCH   2   5
BRANCH   3  18
ATOM     18  C   UNL     1      47.640   3.656  16.605  0.00  0.00    +0.000 C 
BRANCH  18  19
ATOM     19  C   UNL     1      47.783   4.323  17.943  0.00  0.00    +0.000 A 
ATOM     20  C   UNL     1      46.945   5.392  18.270  0.00  0.00    +0.000 A 
ATOM     21  C   UNL     1      47.051   6.020  19.507  0.00  0.00    +0.000 A 
ATOM     22  C   UNL     1      47.993   5.596  20.453  0.00  0.00    +0.000 A 
ATOM     23  C   UNL     1      48.864   4.553  20.105  0.00  0.00    +0.000 A 
ATOM     24  C   UNL     1      48.759   3.921  18.863  0.00  0.00    +0.000 A 
BRANCH  22  25
ATOM     25  C   UNL     1      48.129   6.267  21.805  0.00  0.00    +0.000 C 
BRANCH  25  26
ATOM     26  C   UNL     1      48.004   7.802  21.820  0.00  0.00    +0.000 C 
BRANCH  26  27
ATOM     27  N   UNL     1      49.253   8.482  21.465  0.00  0.00    +0.000 NA
ATOM     28  H   UNL     1      50.036   7.834  21.550  0.00  0.00    +0.000 HD
BRANCH  27  29
ATOM     29  C   UNL     1      49.242   9.092  20.129  0.00  0.00    +0.000 C 
ATOM     30  C   UNL     1      47.782   9.421  19.762  0.00  0.00    +0.000 C 
ATOM     31  C   UNL     1      47.664  10.000  18.352  0.00  0.00    +0.000 C 
ATOM     32  C   UNL     1      48.293   9.081  17.311  0.00  0.00    +0.000 C 
ATOM     33  C   UNL     1      49.745   8.783  17.656  0.00  0.00    +0.000 C 
ATOM     34  C   UNL     1      49.871   8.185  19.054  0.00  0.00    +0.000 C 
ENDBRANCH  27  29
ENDBRANCH  26  27
ENDBRANCH  25  26
ENDBRANCH  22  25
ENDBRANCH  18  19
ENDBRANCH   3  18
TORSDOF 8
ENDMDL
MODEL 7
REMARK VINA RESULT:    -7.217      2.878      7.756
REMARK INTER + INTRA:         -11.664
REMARK INTER:                  -9.703
REMARK INTRA:                  -1.962
REMARK UNBOUND:                -1.072
REMARK  Name = 
REMARK  8 active torsions:
REMARK  status: ('A' for Active; 'I' for Inactive)
REMARK    1  A    between atoms: C_2  and  C_20
REMARK    2  A    between atoms: N_3  and  C_4
REMARK    3  A    between atoms: C_4  and  C_5
REMARK    4  A    between atoms: C_8  and  C_9
REMARK    5  A    between atoms: C_9  and  C_10
REMARK    6  A    between atoms: C_10  and  N_11
REMARK    7  A    between atoms: N_11  and  C_12
REMARK    8  A    between atoms: C_27  and  N_28
REMARK                            x       y       z     vdW  Elec       q    Type
REMARK                         _______ _______ _______ _____ _____    ______ ____
ROOT
ATOM      1  O   UNL     1      47.931   6.819  12.291  0.00  0.00    +0.000 OA
ATOM      2  C   UNL     1      46.912   7.398  12.645  0.00  0.00    +0.000 C 
ATOM      3  N   UNL     1      46.896   8.518  13.444  0.00  0.00    +0.000 N 
ATOM      4  H   UNL     1      46.023   8.786  13.873  0.00  0.00    +0.000 HD
ENDROOT
BRANCH   2   5
ATOM      5  C   UNL     1      45.592   6.974  12.188  0.00  0.00    +0.000 A 
ATOM      6  C   UNL     1      44.695   7.791  11.509  0.00  0.00    +0.000 A 
ATOM      7  N   UNL     1      43.634   7.031  11.106  0.00  0.00    +0.000 N 
ATOM      8  C   UNL     1      43.808   5.744  11.523  0.00  0.00    +0.000 A 
ATOM      9  N   UNL     1      42.935   4.755  11.256  0.00  0.00    +0.000 NA
ATOM     10  C   UNL     1      43.292   3.555  11.760  0.00  0.00    +0.000 A 
ATOM     11  C   UNL     1      44.424   3.308  12.511  0.00  0.00    +0.000 A 
ATOM     12  C   UNL     1      45.279   4.386  12.753  0.00  0.00    +0.000 A 
ATOM     13  C   UNL     1      45.003   5.665  12.236  0.00  0.00    +0.000 A 
ATOM     14  H   UNL     1      42.847   7.338  10.552  0.00  0.00    +0.000 HD
BRANCH  12  15
ATOM     15  N   UNL     1      46.411   4.185  13.627  0.00  0.00    +0.000 N 
ATOM     16  O   UNL     1      47.341   3.493  13.186  0.00  0.00    +0.000 OA
ATOM     17  O   UNL     1      46.311   4.612  14.784  0.00  0.00    +0.000 OA
ENDBRANCH  12  15
ENDBRANCH   2   5
BRANCH   3  18
ATOM     18  C   UNL     1      48.107   9.096  13.966  0.00  0.00    +0.000 C 
BRANCH  18  19
ATOM     19  C   UNL     1      48.331   8.699  15.397  0.00  0.00    +0.000 A 
ATOM     20  C   UNL     1      48.860   7.439  15.685  0.00  0.00    +0.000 A 
ATOM     21  C   UNL     1      49.086   7.052  17.002  0.00  0.00    +0.000 A 
ATOM     22  C   UNL     1      48.794   7.914  18.068  0.00  0.00    +0.000 A 
ATOM     23  C   UNL     1      48.220   9.160  17.779  0.00  0.00    +0.000 A 
ATOM     24  C   UNL     1      47.993   9.551  16.456  0.00  0.00    +0.000 A 
BRANCH  22  25
ATOM     25  C   UNL     1      49.029   7.512  19.510  0.00  0.00    +0.000 C 
BRANCH  25  26
ATOM     26  C   UNL     1      48.498   6.128  19.928  0.00  0.00    +0.000 C 
BRANCH  26  27
ATOM     27  N   UNL     1      49.527   5.084  19.889  0.00  0.00    +0.000 NA
ATOM     28  H   UNL     1      49.788   4.820  20.838  0.00  0.00    +0.000 HD
BRANCH  27  29
ATOM     29  C   UNL     1      49.141   3.895  19.118  0.00  0.00    +0.000 C 
ATOM     30  C   UNL     1      50.248   3.610  18.084  0.00  0.00    +0.000 C 
ATOM     31  C   UNL     1      49.900   2.424  17.185  0.00  0.00    +0.000 C 
ATOM     32  C   UNL     1      48.553   2.614  16.499  0.00  0.00    +0.000 C 
ATOM     33  C   UNL     1      47.453   2.862  17.521  0.00  0.00    +0.000 C 
ATOM     34  C   UNL     1      47.782   4.058  18.410  0.00  0.00    +0.000 C 
ENDBRANCH  27  29
ENDBRANCH  26  27
ENDBRANCH  25  26
ENDBRANCH  22  25
ENDBRANCH  18  19
ENDBRANCH   3  18
TORSDOF 8
ENDMDL
MODEL 8
REMARK VINA RESULT:    -6.795      3.058      8.737
REMARK INTER + INTRA:         -11.044
REMARK INTER:                  -9.022
REMARK INTRA:                  -2.022
REMARK UNBOUND:                -1.072
REMARK  Name = 
REMARK  8 active torsions:
REMARK  status: ('A' for Active; 'I' for Inactive)
REMARK    1  A    between atoms: C_2  and  C_20
REMARK    2  A    between atoms: N_3  and  C_4
REMARK    3  A    between atoms: C_4  and  C_5
REMARK    4  A    between atoms: C_8  and  C_9
REMARK    5  A    between atoms: C_9  and  C_10
REMARK    6  A    between atoms: C_10  and  N_11
REMARK    7  A    between atoms: N_11  and  C_12
REMARK    8  A    between atoms: C_27  and  N_28
REMARK                            x       y       z     vdW  Elec       q    Type
REMARK                         _______ _______ _______ _____ _____    ______ ____
ROOT
ATOM      1  O   UNL     1      47.959   8.686  12.245  0.00  0.00    +0.000 OA
ATOM      2  C   UNL     1      47.039   8.357  12.982  0.00  0.00    +0.000 C 
ATOM      3  N   UNL     1      47.046   8.513  14.349  0.00  0.00    +0.000 N 
ATOM      4  H   UNL     1      46.361   8.009  14.891  0.00  0.00    +0.000 HD
ENDROOT
BRANCH   2   5
ATOM      5  C   UNL     1      45.793   7.810  12.453  0.00  0.00    +0.000 A 
ATOM      6  C   UNL     1      44.840   8.549  11.761  0.00  0.00    +0.000 A 
ATOM      7  N   UNL     1      43.887   7.694  11.286  0.00  0.00    +0.000 N 
ATOM      8  C   UNL     1      44.183   6.419  11.670  0.00  0.00    +0.000 A 
ATOM      9  N   UNL     1      43.436   5.352  11.332  0.00  0.00    +0.000 NA
ATOM     10  C   UNL     1      43.901   4.180  11.813  0.00  0.00    +0.000 A 
ATOM     11  C   UNL     1      45.021   4.029  12.606  0.00  0.00    +0.000 A 
ATOM     12  C   UNL     1      45.742   5.183  12.920  0.00  0.00    +0.000 A 
ATOM     13  C   UNL     1      45.349   6.443  12.432  0.00  0.00    +0.000 A 
ATOM     14  H   UNL     1      43.094   7.934  10.708  0.00  0.00    +0.000 HD
BRANCH  12  15
ATOM     15  N   UNL     1      46.853   5.075  13.838  0.00  0.00    +0.000 N 
ATOM     16  O   UNL     1      47.964   5.422  13.412  0.00  0.00    +0.000 OA
ATOM     17  O   UNL     1      46.632   4.530  14.926  0.00  0.00    +0.000 OA
ENDBRANCH  12  15
ENDBRANCH   2   5
BRANCH   3  18
ATOM     18  C   UNL     1      48.181   9.063  15.044  0.00  0.00    +0.000 C 
BRANCH  18  19
ATOM     19  C   UNL     1      49.026   7.983  15.655  0.00  0.00    +0.000 A 
ATOM     20  C   UNL     1      50.383   7.908  15.331  0.00  0.00    +0.000 A 
ATOM     21  C   UNL     1      51.189   6.922  15.891  0.00  0.00    +0.000 A 
ATOM     22  C   UNL     1      50.665   5.987  16.794  0.00  0.00    +0.000 A 
ATOM     23  C   UNL     1      49.293   6.036  17.082  0.00  0.00    +0.000 A 
ATOM     24  C   UNL     1      48.481   7.025  16.520  0.00  0.00    +0.000 A 
BRANCH  22  25
ATOM     25  C   UNL     1      51.523   4.904  17.413  0.00  0.00    +0.000 C 
BRANCH  25  26
ATOM     26  C   UNL     1      50.863   4.062  18.523  0.00  0.00    +0.000 C 
BRANCH  26  27
ATOM     27  N   UNL     1      51.349   4.400  19.864  0.00  0.00    +0.000 NA
ATOM     28  H   UNL     1      52.241   4.890  19.796  0.00  0.00    +0.000 HD
BRANCH  27  29
ATOM     29  C   UNL     1      50.398   5.186  20.661  0.00  0.00    +0.000 C 
ATOM     30  C   UNL     1      48.973   4.708  20.322  0.00  0.00    +0.000 C 
ATOM     31  C   UNL     1      47.907   5.519  21.058  0.00  0.00    +0.000 C 
ATOM     32  C   UNL     1      48.056   7.013  20.794  0.00  0.00    +0.000 C 
ATOM     33  C   UNL     1      49.453   7.493  21.161  0.00  0.00    +0.000 C 
ATOM     34  C   UNL     1      50.524   6.702  20.416  0.00  0.00    +0.000 C 
ENDBRANCH  27  29
ENDBRANCH  26  27
ENDBRANCH  25  26
ENDBRANCH  22  25
ENDBRANCH  18  19
ENDBRANCH   3  18
TORSDOF 8
ENDMDL
MODEL 9
REMARK VINA RESULT:    -6.624      2.983      8.462
REMARK INTER + INTRA:         -10.794
REMARK INTER:                  -8.677
REMARK INTRA:                  -2.117
REMARK UNBOUND:                -1.072
REMARK  Name = 
REMARK  8 active torsions:
REMARK  status: ('A' for Active; 'I' for Inactive)
REMARK    1  A    between atoms: C_2  and  C_20
REMARK    2  A    between atoms: N_3  and  C_4
REMARK    3  A    between atoms: C_4  and  C_5
REMARK    4  A    between atoms: C_8  and  C_9
REMARK    5  A    between atoms: C_9  and  C_10
REMARK    6  A    between atoms: C_10  and  N_11
REMARK    7  A    between atoms: N_11  and  C_12
REMARK    8  A    between atoms: C_27  and  N_28
REMARK                            x       y       z     vdW  Elec       q    Type
REMARK                         _______ _______ _______ _____ _____    ______ ____
ROOT
ATOM      1  O   UNL     1      48.377   6.977  12.469  0.00  0.00    +0.000 OA
ATOM      2  C   UNL     1      47.366   7.285  13.085  0.00  0.00    +0.000 C 
ATOM      3  N   UNL     1      47.364   7.905  14.313  0.00  0.00    +0.000 N 
ATOM      4  H   UNL     1      46.507   7.908  14.845  0.00  0.00    +0.000 HD
ENDROOT
BRANCH   2   5
ATOM      5  C   UNL     1      46.034   7.069  12.526  0.00  0.00    +0.000 A 
ATOM      6  C   UNL     1      45.287   8.044  11.875  0.00  0.00    +0.000 A 
ATOM      7  N   UNL     1      44.168   7.459  11.354  0.00  0.00    +0.000 N 
ATOM      8  C   UNL     1      44.157   6.131  11.668  0.00  0.00    +0.000 A 
ATOM      9  N   UNL     1      43.189   5.285  11.272  0.00  0.00    +0.000 NA
ATOM     10  C   UNL     1      43.365   4.013  11.689  0.00  0.00    +0.000 A 
ATOM     11  C   UNL     1      44.409   3.566  12.474  0.00  0.00    +0.000 A 
ATOM     12  C   UNL     1      45.373   4.505  12.850  0.00  0.00    +0.000 A 
ATOM     13  C   UNL     1      45.287   5.845  12.431  0.00  0.00    +0.000 A 
ATOM     14  H   UNL     1      43.460   7.905  10.789  0.00  0.00    +0.000 HD
BRANCH  12  15
ATOM     15  N   UNL     1      46.417   4.094  13.761  0.00  0.00    +0.000 N 
ATOM     16  O   UNL     1      47.396   3.518  13.265  0.00  0.00    +0.000 OA
ATOM     17  O   UNL     1      46.196   4.237  14.970  0.00  0.00    +0.000 OA
ENDBRANCH  12  15
ENDBRANCH   2   5
BRANCH   3  18
ATOM     18  C   UNL     1      48.586   8.223  15.005  0.00  0.00    +0.000 C 
BRANCH  18  19
ATOM     19  C   UNL     1      48.730   7.415  16.262  0.00  0.00    +0.000 A 
ATOM     20  C   UNL     1      48.744   6.021  16.184  0.00  0.00    +0.000 A 
ATOM     21  C   UNL     1      48.886   5.250  17.334  0.00  0.00    +0.000 A 
ATOM     22  C   UNL     1      49.023   5.850  18.593  0.00  0.00    +0.000 A 
ATOM     23  C   UNL     1      48.962   7.249  18.674  0.00  0.00    +0.000 A 
ATOM     24  C   UNL     1      48.820   8.025  17.520  0.00  0.00    +0.000 A 
BRANCH  22  25
ATOM     25  C   UNL     1      49.176   5.032  19.858  0.00  0.00    +0.000 C 
BRANCH  25  26
ATOM     26  C   UNL     1      50.570   5.045  20.515  0.00  0.00    +0.000 C 
BRANCH  26  27
ATOM     27  N   UNL     1      51.559   4.258  19.772  0.00  0.00    +0.000 NA
ATOM     28  H   UNL     1      51.086   3.616  19.137  0.00  0.00    +0.000 HD
BRANCH  27  29
ATOM     29  C   UNL     1      52.537   5.071  19.037  0.00  0.00    +0.000 C 
ATOM     30  C   UNL     1      52.423   6.526  19.530  0.00  0.00    +0.000 C 
ATOM     31  C   UNL     1      53.360   7.464  18.769  0.00  0.00    +0.000 C 
ATOM     32  C   UNL     1      53.136   7.382  17.263  0.00  0.00    +0.000 C 
ATOM     33  C   UNL     1      53.282   5.950  16.769  0.00  0.00    +0.000 C 
ATOM     34  C   UNL     1      52.335   5.009  17.510  0.00  0.00    +0.000 C 
ENDBRANCH  27  29
ENDBRANCH  26  27
ENDBRANCH  25  26
ENDBRANCH  22  25
ENDBRANCH  18  19
ENDBRANCH   3  18
TORSDOF 8
ENDMDL
