MODEL 1
REMARK VINA RESULT:    -8.780      0.000      0.000
REMARK INTER + INTRA:         -13.471
REMARK INTER:                 -12.372
REMARK INTRA:                  -1.098
REMARK UNBOUND:                -1.098
REMARK  Name = 
REMARK  8 active torsions:
REMARK  status: ('A' for Active; 'I' for Inactive)
REMARK    1  A    between atoms: C_1  and  C_2
REMARK    2  A    between atoms: C_2  and  N_3
REMARK    3  A    between atoms: C_2  and  C_26
REMARK    4  A    between atoms: N_3  and  C_4
REMARK    5  A    between atoms: C_4  and  C_5
REMARK    6  A    between atoms: C_10  and  C_11
REMARK    7  A    between atoms: C_11  and  N_12
REMARK    8  A    between atoms: C_13  and  C_15
REMARK                            x       y       z     vdW  Elec       q    Type
REMARK                         _______ _______ _______ _____ _____    ______ ____
ROOT
ATOM      1  C   UNL     1      45.056   5.282  11.115  0.00  0.00    +0.000 A 
ATOM      2  C   UNL     1      46.012   6.278  10.882  0.00  0.00    +0.000 A 
ATOM      3  C   UNL     1      47.002   6.529  11.826  0.00  0.00    +0.000 A 
ATOM      4  F   UNL     1      47.938   7.452  11.568  0.00  0.00    +0.000 F 
ATOM      5  C   UNL     1      47.073   5.799  13.005  0.00  0.00    +0.000 A 
ATOM      6  C   UNL     1      46.128   4.797  13.262  0.00  0.00    +0.000 A 
ATOM      7  C   UNL     1      45.102   4.571  12.327  0.00  0.00    +0.000 A 
ENDROOT
BRANCH   1   8
ATOM      8  C   UNL     1      44.149   4.829   9.993  0.00  0.00    +0.000 C 
BRANCH   8   9
ATOM      9  N   UNL     1      44.837   4.442   8.756  0.00  0.00    +0.000 NA
ATOM     10  H   UNL     1      45.574   5.130   8.582  0.00  0.00    +0.000 HD
BRANCH   9  12
ATOM     11  C   UNL     1      44.449   2.017   9.238  0.00  0.00    +0.000 C 
ATOM     12  C   UNL     1      45.480   3.112   8.917  0.00  0.00    +0.000 C 
BRANCH  12  13
ATOM     13  C   UNL     1      46.272   2.627   7.701  0.00  0.00    +0.000 A 
ATOM     14  C   UNL     1      46.387   3.394   6.542  0.00  0.00    +0.000 A 
ATOM     15  C   UNL     1      46.964   2.826   5.407  0.00  0.00    +0.000 A 
ATOM     16  C   UNL     1      47.410   1.510   5.449  0.00  0.00    +0.000 A 
ATOM     17  C   UNL     1      47.280   0.822   6.642  0.00  0.00    +0.000 A 
ATOM     18  N   UNL     1      46.731   1.346   7.759  0.00  0.00    +0.000 NA
ENDBRANCH  12  13
ENDBRANCH   9  12
ENDBRANCH   8   9
ENDBRANCH   1   8
BRANCH   6  19
ATOM     19  C   UNL     1      46.233   3.950  14.499  0.00  0.00    +0.000 C 
BRANCH  19  20
ATOM     20  N   UNL     1      47.300   4.390  15.358  0.00  0.00    +0.000 N 
ATOM     21  C   UNL     1      47.396   3.988  16.663  0.00  0.00    +0.000 C 
ATOM     22  O   UNL     1      46.569   3.239  17.177  0.00  0.00    +0.000 OA
ATOM     23  H   UNL     1      47.900   5.131  15.009  0.00  0.00    +0.000 HD
BRANCH  21  24
ATOM     24  C   UNL     1      48.578   4.437  17.408  0.00  0.00    +0.000 A 
ATOM     25  C   UNL     1      48.542   5.667  18.052  0.00  0.00    +0.000 A 
ATOM     26  S   UNL     1      49.973   6.045  18.895  0.00  0.00    +0.000 S 
ATOM     27  C   UNL     1      50.712   4.596  18.392  0.00  0.00    +0.000 A 
ATOM     28  N   UNL     1      51.993   4.311  18.749  0.00  0.00    +0.000 NA
ATOM     29  C   UNL     1      52.442   3.198  18.272  0.00  0.00    +0.000 A 
ATOM     30  N   UNL     1      51.721   2.336  17.487  0.00  0.00    +0.000 N 
ATOM     31  C   UNL     1      50.402   2.551  17.160  0.00  0.00    +0.000 A 
ATOM     32  O   UNL     1      49.750   1.705  16.554  0.00  0.00    +0.000 OA
ATOM     33  C   UNL     1      49.865   3.818  17.626  0.00  0.00    +0.000 A 
ATOM     34  H   UNL     1      52.127   1.469  17.167  0.00  0.00    +0.000 HD
ENDBRANCH  21  24
ENDBRANCH  19  20
ENDBRANCH   6  19
TORSDOF 7
ENDMDL
MODEL 2
REMARK VINA RESULT:    -8.396      1.795      2.250
REMARK INTER + INTRA:         -12.931
REMARK INTER:                 -11.830
REMARK INTRA:                  -1.101
REMARK UNBOUND:                -1.098
REMARK  Name = 
REMARK  8 active torsions:
REMARK  status: ('A' for Active; 'I' for Inactive)
REMARK    1  A    between atoms: C_1  and  C_2
REMARK    2  A    between atoms: C_2  and  N_3
REMARK    3  A    between atoms: C_2  and  C_26
REMARK    4  A    between atoms: N_3  and  C_4
REMARK    5  A    between atoms: C_4  and  C_5
REMARK    6  A    between atoms: C_10  and  C_11
REMARK    7  A    between atoms: C_11  and  N_12
REMARK    8  A    between atoms: C_13  and  C_15
REMARK                            x       y       z     vdW  Elec       q    Type
REMARK                         _______ _______ _______ _____ _____    ______ ____
ROOT
ATOM      1  C   UNL     1      44.671   5.108  10.952  0.00  0.00    +0.000 A 
ATOM      2  C   UNL     1      44.980   6.461  11.143  0.00  0.00    +0.000 A 
ATOM      3  C   UNL     1      45.792   6.849  12.204  0.00  0.00    +0.000 A 
ATOM      4  F   UNL     1      46.117   8.141  12.345  0.00  0.00    +0.000 F 
ATOM      5  C   UNL     1      46.321   5.913  13.084  0.00  0.00    +0.000 A 
ATOM      6  C   UNL     1      46.026   4.554  12.915  0.00  0.00    +0.000 A 
ATOM      7  C   UNL     1      45.172   4.166  11.868  0.00  0.00    +0.000 A 
ENDROOT
BRANCH   1   8
ATOM      8  C   UNL     1      44.016   4.658   9.667  0.00  0.00    +0.000 C 
BRANCH   8   9
ATOM      9  N   UNL     1      44.941   4.380   8.563  0.00  0.00    +0.000 NA
ATOM     10  H   UNL     1      45.681   5.085   8.592  0.00  0.00    +0.000 HD
BRANCH   9  12
ATOM     11  C   UNL     1      44.528   1.961   9.057  0.00  0.00    +0.000 C 
ATOM     12  C   UNL     1      45.571   3.045   8.740  0.00  0.00    +0.000 C 
BRANCH  12  13
ATOM     13  C   UNL     1      46.373   2.545   7.536  0.00  0.00    +0.000 A 
ATOM     14  C   UNL     1      46.552   3.325   6.395  0.00  0.00    +0.000 A 
ATOM     15  C   UNL     1      47.133   2.751   5.265  0.00  0.00    +0.000 A 
ATOM     16  C   UNL     1      47.519   1.416   5.295  0.00  0.00    +0.000 A 
ATOM     17  C   UNL     1      47.328   0.715   6.472  0.00  0.00    +0.000 A 
ATOM     18  N   UNL     1      46.773   1.245   7.584  0.00  0.00    +0.000 NA
ENDBRANCH  12  13
ENDBRANCH   9  12
ENDBRANCH   8   9
ENDBRANCH   1   8
BRANCH   6  19
ATOM     19  C   UNL     1      46.648   3.523  13.815  0.00  0.00    +0.000 C 
BRANCH  19  20
ATOM     20  N   UNL     1      47.057   4.090  15.073  0.00  0.00    +0.000 N 
ATOM     21  C   UNL     1      47.973   3.475  15.883  0.00  0.00    +0.000 C 
ATOM     22  O   UNL     1      48.488   2.399  15.587  0.00  0.00    +0.000 OA
ATOM     23  H   UNL     1      46.532   4.888  15.413  0.00  0.00    +0.000 HD
BRANCH  21  24
ATOM     24  C   UNL     1      48.372   4.197  17.097  0.00  0.00    +0.000 A 
ATOM     25  C   UNL     1      48.274   3.557  18.326  0.00  0.00    +0.000 A 
ATOM     26  S   UNL     1      48.793   4.507  19.641  0.00  0.00    +0.000 S 
ATOM     27  C   UNL     1      49.127   5.828  18.620  0.00  0.00    +0.000 A 
ATOM     28  N   UNL     1      49.581   7.002  19.132  0.00  0.00    +0.000 NA
ATOM     29  C   UNL     1      49.761   7.932  18.254  0.00  0.00    +0.000 A 
ATOM     30  N   UNL     1      49.545   7.787  16.908  0.00  0.00    +0.000 N 
ATOM     31  C   UNL     1      49.154   6.597  16.339  0.00  0.00    +0.000 A 
ATOM     32  O   UNL     1      49.082   6.467  15.120  0.00  0.00    +0.000 OA
ATOM     33  C   UNL     1      48.884   5.534  17.292  0.00  0.00    +0.000 A 
ATOM     34  H   UNL     1      49.729   8.548  16.272  0.00  0.00    +0.000 HD
ENDBRANCH  21  24
ENDBRANCH  19  20
ENDBRANCH   6  19
TORSDOF 7
ENDMDL
MODEL 3
REMARK VINA RESULT:    -8.262      2.088      2.744
REMARK INTER + INTRA:         -12.742
REMARK INTER:                 -11.699
REMARK INTRA:                  -1.043
REMARK UNBOUND:                -1.098
REMARK  Name = 
REMARK  8 active torsions:
REMARK  status: ('A' for Active; 'I' for Inactive)
REMARK    1  A    between atoms: C_1  and  C_2
REMARK    2  A    between atoms: C_2  and  N_3
REMARK    3  A    between atoms: C_2  and  C_26
REMARK    4  A    between atoms: N_3  and  C_4
REMARK    5  A    between atoms: C_4  and  C_5
REMARK    6  A    between atoms: C_10  and  C_11
REMARK    7  A    between atoms: C_11  and  N_12
REMARK    8  A    between atoms: C_13  and  C_15
REMARK                            x       y       z     vdW  Elec       q    Type
REMARK                         _______ _______ _______ _____ _____    ______ ____
ROOT
ATOM      1  C   UNL     1      45.507   5.552  10.496  0.00  0.00    +0.000 A 
ATOM      2  C   UNL     1      44.270   5.220  11.063  0.00  0.00    +0.000 A 
ATOM      3  C   UNL     1      43.890   5.772  12.282  0.00  0.00    +0.000 A 
ATOM      4  F   UNL     1      42.684   5.483  12.788  0.00  0.00    +0.000 F 
ATOM      5  C   UNL     1      44.715   6.665  12.955  0.00  0.00    +0.000 A 
ATOM      6  C   UNL     1      45.957   7.012  12.409  0.00  0.00    +0.000 A 
ATOM      7  C   UNL     1      46.359   6.423  11.198  0.00  0.00    +0.000 A 
ENDROOT
BRANCH   1   8
ATOM      8  C   UNL     1      45.809   5.168   9.066  0.00  0.00    +0.000 C 
BRANCH   8   9
ATOM      9  N   UNL     1      44.958   4.108   8.514  0.00  0.00    +0.000 NA
ATOM     10  H   UNL     1      44.837   4.294   7.516  0.00  0.00    +0.000 HD
BRANCH   9  12
ATOM     11  C   UNL     1      44.611   1.680   9.013  0.00  0.00    +0.000 C 
ATOM     12  C   UNL     1      45.620   2.785   8.659  0.00  0.00    +0.000 C 
BRANCH  12  13
ATOM     13  C   UNL     1      46.380   2.306   7.420  0.00  0.00    +0.000 A 
ATOM     14  C   UNL     1      46.472   3.081   6.266  0.00  0.00    +0.000 A 
ATOM     15  C   UNL     1      47.019   2.520   5.113  0.00  0.00    +0.000 A 
ATOM     16  C   UNL     1      47.459   1.202   5.134  0.00  0.00    +0.000 A 
ATOM     17  C   UNL     1      47.355   0.505   6.324  0.00  0.00    +0.000 A 
ATOM     18  N   UNL     1      46.834   1.023   7.458  0.00  0.00    +0.000 NA
ENDBRANCH  12  13
ENDBRANCH   9  12
ENDBRANCH   8   9
ENDBRANCH   1   8
BRANCH   6  19
ATOM     19  C   UNL     1      46.829   8.031  13.089  0.00  0.00    +0.000 C 
BRANCH  19  20
ATOM     20  N   UNL     1      47.325   7.551  14.352  0.00  0.00    +0.000 N 
ATOM     21  C   UNL     1      48.433   6.752  14.442  0.00  0.00    +0.000 C 
ATOM     22  O   UNL     1      49.060   6.391  13.448  0.00  0.00    +0.000 OA
ATOM     23  H   UNL     1      46.737   7.700  15.166  0.00  0.00    +0.000 HD
BRANCH  21  24
ATOM     24  C   UNL     1      48.887   6.402  15.793  0.00  0.00    +0.000 A 
ATOM     25  C   UNL     1      49.783   7.240  16.442  0.00  0.00    +0.000 A 
ATOM     26  S   UNL     1      50.202   6.721  18.009  0.00  0.00    +0.000 S 
ATOM     27  C   UNL     1      49.233   5.329  17.861  0.00  0.00    +0.000 A 
ATOM     28  N   UNL     1      49.172   4.416  18.867  0.00  0.00    +0.000 NA
ATOM     29  C   UNL     1      48.430   3.391  18.611  0.00  0.00    +0.000 A 
ATOM     30  N   UNL     1      47.727   3.206  17.448  0.00  0.00    +0.000 N 
ATOM     31  C   UNL     1      47.704   4.136  16.434  0.00  0.00    +0.000 A 
ATOM     32  O   UNL     1      46.975   3.994  15.457  0.00  0.00    +0.000 OA
ATOM     33  C   UNL     1      48.570   5.282  16.650  0.00  0.00    +0.000 A 
ATOM     34  H   UNL     1      47.145   2.391  17.323  0.00  0.00    +0.000 HD
ENDBRANCH  21  24
ENDBRANCH  19  20
ENDBRANCH   6  19
TORSDOF 7
ENDMDL
MODEL 4
REMARK VINA RESULT:    -8.221      2.724      3.688
REMARK INTER + INTRA:         -12.683
REMARK INTER:                 -11.527
REMARK INTRA:                  -1.156
REMARK UNBOUND:                -1.098
REMARK  Name = 
REMARK  8 active torsions:
REMARK  status: ('A' for Active; 'I' for Inactive)
REMARK    1  A    between atoms: C_1  and  C_2
REMARK    2  A    between atoms: C_2  and  N_3
REMARK    3  A    between atoms: C_2  and  C_26
REMARK    4  A    between atoms: N_3  and  C_4
REMARK    5  A    between atoms: C_4  and  C_5
REMARK    6  A    between atoms: C_10  and  C_11
REMARK    7  A    between atoms: C_11  and  N_12
REMARK    8  A    between atoms: C_13  and  C_15
REMARK                            x       y       z     vdW  Elec       q    Type
REMARK                         _______ _______ _______ _____ _____    ______ ____
ROOT
ATOM      1  C   UNL     1      45.355   4.702  12.194  0.00  0.00    +0.000 A 
ATOM      2  C   UNL     1      45.996   5.829  11.663  0.00  0.00    +0.000 A 
ATOM      3  C   UNL     1      47.062   6.411  12.342  0.00  0.00    +0.000 A 
ATOM      4  F   UNL     1      47.694   7.458  11.797  0.00  0.00    +0.000 F 
ATOM      5  C   UNL     1      47.519   5.888  13.545  0.00  0.00    +0.000 A 
ATOM      6  C   UNL     1      46.895   4.763  14.097  0.00  0.00    +0.000 A 
ATOM      7  C   UNL     1      45.791   4.199  13.433  0.00  0.00    +0.000 A 
ENDROOT
BRANCH   1   8
ATOM      8  C   UNL     1      44.382   3.917  11.346  0.00  0.00    +0.000 C 
BRANCH   8   9
ATOM      9  N   UNL     1      44.953   2.748  10.668  0.00  0.00    +0.000 NA
ATOM     10  H   UNL     1      44.497   1.914  11.048  0.00  0.00    +0.000 HD
BRANCH   9  12
ATOM     11  C   UNL     1      44.288   4.224   8.759  0.00  0.00    +0.000 C 
ATOM     12  C   UNL     1      44.664   2.803   9.211  0.00  0.00    +0.000 C 
BRANCH  12  13
ATOM     13  C   UNL     1      45.811   2.344   8.308  0.00  0.00    +0.000 A 
ATOM     14  C   UNL     1      46.429   3.208   7.404  0.00  0.00    +0.000 A 
ATOM     15  C   UNL     1      47.340   2.689   6.485  0.00  0.00    +0.000 A 
ATOM     16  C   UNL     1      47.613   1.327   6.483  0.00  0.00    +0.000 A 
ATOM     17  C   UNL     1      46.976   0.539   7.425  0.00  0.00    +0.000 A 
ATOM     18  N   UNL     1      46.094   1.013   8.331  0.00  0.00    +0.000 NA
ENDBRANCH  12  13
ENDBRANCH   9  12
ENDBRANCH   8   9
ENDBRANCH   1   8
BRANCH   6  19
ATOM     19  C   UNL     1      47.423   4.142  15.361  0.00  0.00    +0.000 C 
BRANCH  19  20
ATOM     20  N   UNL     1      47.329   5.045  16.478  0.00  0.00    +0.000 N 
ATOM     21  C   UNL     1      48.428   5.668  17.003  0.00  0.00    +0.000 C 
ATOM     22  O   UNL     1      49.559   5.483  16.558  0.00  0.00    +0.000 OA
ATOM     23  H   UNL     1      46.439   5.089  16.963  0.00  0.00    +0.000 HD
BRANCH  21  24
ATOM     24  C   UNL     1      48.188   6.631  18.085  0.00  0.00    +0.000 A 
ATOM     25  C   UNL     1      48.049   6.164  19.385  0.00  0.00    +0.000 A 
ATOM     26  S   UNL     1      47.800   7.395  20.536  0.00  0.00    +0.000 S 
ATOM     27  C   UNL     1      47.824   8.597  19.330  0.00  0.00    +0.000 A 
ATOM     28  N   UNL     1      47.628   9.903  19.650  0.00  0.00    +0.000 NA
ATOM     29  C   UNL     1      47.636  10.706  18.638  0.00  0.00    +0.000 A 
ATOM     30  N   UNL     1      47.841  10.322  17.338  0.00  0.00    +0.000 N 
ATOM     31  C   UNL     1      48.112   9.022  16.978  0.00  0.00    +0.000 A 
ATOM     32  O   UNL     1      48.406   8.730  15.822  0.00  0.00    +0.000 OA
ATOM     33  C   UNL     1      48.058   8.070  18.074  0.00  0.00    +0.000 A 
ATOM     34  H   UNL     1      47.859  11.005  16.596  0.00  0.00    +0.000 HD
ENDBRANCH  21  24
ENDBRANCH  19  20
ENDBRANCH   6  19
TORSDOF 7
ENDMDL
MODEL 5
REMARK VINA RESULT:    -8.037      2.130      2.583
REMARK INTER + INTRA:         -12.424
REMARK INTER:                 -11.404
REMARK INTRA:                  -1.020
REMARK UNBOUND:                -1.098
REMARK  Name = 
REMARK  8 active torsions:
REMARK  status: ('A' for Active; 'I' for Inactive)
REMARK    1  A    between atoms: C_1  and  C_2
REMARK    2  A    between atoms: C_2  and  N_3
REMARK    3  A    between atoms: C_2  and  C_26
REMARK    4  A    between atoms: N_3  and  C_4
REMARK    5  A    between atoms: C_4  and  C_5
REMARK    6  A    between atoms: C_10  and  C_11
REMARK    7  A    between atoms: C_11  and  N_12
REMARK    8  A    between atoms: C_13  and  C_15
REMARK                            x       y       z     vdW  Elec       q    Type
REMARK                         _______ _______ _______ _____ _____    ______ ____
ROOT
ATOM      1  C   UNL     1      44.759   4.941  12.043  0.00  0.00    +0.000 A 
ATOM      2  C   UNL     1      44.279   6.227  11.766  0.00  0.00    +0.000 A 
ATOM      3  C   UNL     1      45.018   7.344  12.144  0.00  0.00    +0.000 A 
ATOM      4  F   UNL     1      44.568   8.566  11.830  0.00  0.00    +0.000 F 
ATOM      5  C   UNL     1      46.241   7.213  12.788  0.00  0.00    +0.000 A 
ATOM      6  C   UNL     1      46.743   5.937  13.077  0.00  0.00    +0.000 A 
ATOM      7  C   UNL     1      45.978   4.809  12.732  0.00  0.00    +0.000 A 
ENDROOT
BRANCH   1   8
ATOM      8  C   UNL     1      44.100   3.737  11.410  0.00  0.00    +0.000 C 
BRANCH   8   9
ATOM      9  N   UNL     1      45.009   2.838  10.690  0.00  0.00    +0.000 NA
ATOM     10  H   UNL     1      44.862   1.892  11.052  0.00  0.00    +0.000 HD
BRANCH   9  12
ATOM     11  C   UNL     1      44.282   4.227   8.739  0.00  0.00    +0.000 C 
ATOM     12  C   UNL     1      44.687   2.831   9.239  0.00  0.00    +0.000 C 
BRANCH  12  13
ATOM     13  C   UNL     1      45.819   2.349   8.329  0.00  0.00    +0.000 A 
ATOM     14  C   UNL     1      46.432   3.194   7.405  0.00  0.00    +0.000 A 
ATOM     15  C   UNL     1      47.327   2.656   6.482  0.00  0.00    +0.000 A 
ATOM     16  C   UNL     1      47.590   1.291   6.498  0.00  0.00    +0.000 A 
ATOM     17  C   UNL     1      46.959   0.522   7.459  0.00  0.00    +0.000 A 
ATOM     18  N   UNL     1      46.091   1.016   8.369  0.00  0.00    +0.000 NA
ENDBRANCH  12  13
ENDBRANCH   9  12
ENDBRANCH   8   9
ENDBRANCH   1   8
BRANCH   6  19
ATOM     19  C   UNL     1      48.098   5.776  13.708  0.00  0.00    +0.000 C 
BRANCH  19  20
ATOM     20  N   UNL     1      48.048   5.970  15.133  0.00  0.00    +0.000 N 
ATOM     21  C   UNL     1      49.090   6.523  15.828  0.00  0.00    +0.000 C 
ATOM     22  O   UNL     1      50.130   6.874  15.275  0.00  0.00    +0.000 OA
ATOM     23  H   UNL     1      47.274   5.545  15.632  0.00  0.00    +0.000 HD
BRANCH  21  24
ATOM     24  C   UNL     1      48.883   6.748  17.263  0.00  0.00    +0.000 A 
ATOM     25  C   UNL     1      48.841   8.050  17.743  0.00  0.00    +0.000 A 
ATOM     26  S   UNL     1      48.570   8.157  19.421  0.00  0.00    +0.000 S 
ATOM     27  C   UNL     1      48.543   6.462  19.577  0.00  0.00    +0.000 A 
ATOM     28  N   UNL     1      48.380   5.880  20.794  0.00  0.00    +0.000 NA
ATOM     29  C   UNL     1      48.414   4.589  20.776  0.00  0.00    +0.000 A 
ATOM     30  N   UNL     1      48.577   3.828  19.647  0.00  0.00    +0.000 N 
ATOM     31  C   UNL     1      48.675   4.373  18.387  0.00  0.00    +0.000 A 
ATOM     32  O   UNL     1      48.703   3.662  17.387  0.00  0.00    +0.000 OA
ATOM     33  C   UNL     1      48.699   5.825  18.360  0.00  0.00    +0.000 A 
ATOM     34  H   UNL     1      48.570   2.821  19.700  0.00  0.00    +0.000 HD
ENDBRANCH  21  24
ENDBRANCH  19  20
ENDBRANCH   6  19
TORSDOF 7
ENDMDL
MODEL 6
REMARK VINA RESULT:    -7.878      4.583      7.323
REMARK INTER + INTRA:         -12.200
REMARK INTER:                 -10.650
REMARK INTRA:                  -1.550
REMARK UNBOUND:                -1.098
REMARK  Name = 
REMARK  8 active torsions:
REMARK  status: ('A' for Active; 'I' for Inactive)
REMARK    1  A    between atoms: C_1  and  C_2
REMARK    2  A    between atoms: C_2  and  N_3
REMARK    3  A    between atoms: C_2  and  C_26
REMARK    4  A    between atoms: N_3  and  C_4
REMARK    5  A    between atoms: C_4  and  C_5
REMARK    6  A    between atoms: C_10  and  C_11
REMARK    7  A    between atoms: C_11  and  N_12
REMARK    8  A    between atoms: C_13  and  C_15
REMARK                            x       y       z     vdW  Elec       q    Type
REMARK                         _______ _______ _______ _____ _____    ______ ____
ROOT
ATOM      1  C   UNL     1      45.988   4.475  12.920  0.00  0.00    +0.000 A 
ATOM      2  C   UNL     1      46.352   4.184  14.241  0.00  0.00    +0.000 A 
ATOM      3  C   UNL     1      47.338   4.933  14.875  0.00  0.00    +0.000 A 
ATOM      4  F   UNL     1      47.641   4.673  16.153  0.00  0.00    +0.000 F 
ATOM      5  C   UNL     1      47.973   5.983  14.224  0.00  0.00    +0.000 A 
ATOM      6  C   UNL     1      47.627   6.293  12.903  0.00  0.00    +0.000 A 
ATOM      7  C   UNL     1      46.660   5.511  12.248  0.00  0.00    +0.000 A 
ENDROOT
BRANCH   1   8
ATOM      8  C   UNL     1      44.750   3.847  12.322  0.00  0.00    +0.000 C 
BRANCH   8   9
ATOM      9  N   UNL     1      45.004   2.766  11.364  0.00  0.00    +0.000 NA
ATOM     10  H   UNL     1      44.570   1.916  11.732  0.00  0.00    +0.000 HD
BRANCH   9  12
ATOM     11  C   UNL     1      43.842   4.519  10.006  0.00  0.00    +0.000 C 
ATOM     12  C   UNL     1      44.369   3.075  10.056  0.00  0.00    +0.000 C 
BRANCH  12  13
ATOM     13  C   UNL     1      45.280   2.898   8.839  0.00  0.00    +0.000 A 
ATOM     14  C   UNL     1      45.867   1.672   8.529  0.00  0.00    +0.000 A 
ATOM     15  C   UNL     1      46.826   1.614   7.520  0.00  0.00    +0.000 A 
ATOM     16  C   UNL     1      47.182   2.775   6.844  0.00  0.00    +0.000 A 
ATOM     17  C   UNL     1      46.538   3.949   7.193  0.00  0.00    +0.000 A 
ATOM     18  N   UNL     1      45.602   4.035   8.163  0.00  0.00    +0.000 NA
ENDBRANCH  12  13
ENDBRANCH   9  12
ENDBRANCH   8   9
ENDBRANCH   1   8
BRANCH   6  19
ATOM     19  C   UNL     1      48.253   7.472  12.209  0.00  0.00    +0.000 C 
BRANCH  19  20
ATOM     20  N   UNL     1      47.261   8.412  11.757  0.00  0.00    +0.000 N 
ATOM     21  C   UNL     1      47.026   9.591  12.411  0.00  0.00    +0.000 C 
ATOM     22  O   UNL     1      47.640   9.908  13.427  0.00  0.00    +0.000 OA
ATOM     23  H   UNL     1      46.633   8.105  11.021  0.00  0.00    +0.000 HD
BRANCH  21  24
ATOM     24  C   UNL     1      46.051  10.503  11.800  0.00  0.00    +0.000 A 
ATOM     25  C   UNL     1      46.364  11.851  11.692  0.00  0.00    +0.000 A 
ATOM     26  S   UNL     1      45.150  12.782  10.942  0.00  0.00    +0.000 S 
ATOM     27  C   UNL     1      44.140  11.422  10.775  0.00  0.00    +0.000 A 
ATOM     28  N   UNL     1      42.902  11.542  10.226  0.00  0.00    +0.000 NA
ATOM     29  C   UNL     1      42.227  10.441  10.191  0.00  0.00    +0.000 A 
ATOM     30  N   UNL     1      42.686   9.228  10.638  0.00  0.00    +0.000 N 
ATOM     31  C   UNL     1      43.956   9.049  11.135  0.00  0.00    +0.000 A 
ATOM     32  O   UNL     1      44.376   7.930  11.418  0.00  0.00    +0.000 OA
ATOM     33  C   UNL     1      44.736  10.269  11.248  0.00  0.00    +0.000 A 
ATOM     34  H   UNL     1      42.114   8.401  10.558  0.00  0.00    +0.000 HD
ENDBRANCH  21  24
ENDBRANCH  19  20
ENDBRANCH   6  19
TORSDOF 7
ENDMDL
MODEL 7
REMARK VINA RESULT:    -7.831      3.990      9.525
REMARK INTER + INTRA:         -12.134
REMARK INTER:                 -10.553
REMARK INTRA:                  -1.581
REMARK UNBOUND:                -1.098
REMARK  Name = 
REMARK  8 active torsions:
REMARK  status: ('A' for Active; 'I' for Inactive)
REMARK    1  A    between atoms: C_1  and  C_2
REMARK    2  A    between atoms: C_2  and  N_3
REMARK    3  A    between atoms: C_2  and  C_26
REMARK    4  A    between atoms: N_3  and  C_4
REMARK    5  A    between atoms: C_4  and  C_5
REMARK    6  A    between atoms: C_10  and  C_11
REMARK    7  A    between atoms: C_11  and  N_12
REMARK    8  A    between atoms: C_13  and  C_15
REMARK                            x       y       z     vdW  Elec       q    Type
REMARK                         _______ _______ _______ _____ _____    ______ ____
ROOT
ATOM      1  C   UNL     1      49.282   5.122  19.153  0.00  0.00    +0.000 A 
ATOM      2  C   UNL     1      48.556   3.927  19.074  0.00  0.00    +0.000 A 
ATOM      3  C   UNL     1      47.898   3.587  17.897  0.00  0.00    +0.000 A 
ATOM      4  F   UNL     1      47.248   2.418  17.821  0.00  0.00    +0.000 F 
ATOM      5  C   UNL     1      47.951   4.410  16.779  0.00  0.00    +0.000 A 
ATOM      6  C   UNL     1      48.670   5.611  16.834  0.00  0.00    +0.000 A 
ATOM      7  C   UNL     1      49.302   5.975  18.036  0.00  0.00    +0.000 A 
ENDROOT
BRANCH   1   8
ATOM      8  C   UNL     1      50.205   5.368  20.324  0.00  0.00    +0.000 C 
BRANCH   8   9
ATOM      9  N   UNL     1      51.286   4.389  20.479  0.00  0.00    +0.000 NA
ATOM     10  H   UNL     1      50.868   3.456  20.446  0.00  0.00    +0.000 HD
BRANCH   9  12
ATOM     11  C   UNL     1      53.597   5.082  19.812  0.00  0.00    +0.000 C 
ATOM     12  C   UNL     1      52.250   4.500  19.353  0.00  0.00    +0.000 C 
BRANCH  12  13
ATOM     13  C   UNL     1      52.561   3.184  18.637  0.00  0.00    +0.000 A 
ATOM     14  C   UNL     1      51.639   2.569  17.791  0.00  0.00    +0.000 A 
ATOM     15  C   UNL     1      51.907   1.287  17.313  0.00  0.00    +0.000 A 
ATOM     16  C   UNL     1      53.081   0.646  17.689  0.00  0.00    +0.000 A 
ATOM     17  C   UNL     1      53.956   1.331  18.514  0.00  0.00    +0.000 A 
ATOM     18  N   UNL     1      53.727   2.574  18.988  0.00  0.00    +0.000 NA
ENDBRANCH  12  13
ENDBRANCH   9  12
ENDBRANCH   8   9
ENDBRANCH   1   8
BRANCH   6  19
ATOM     19  C   UNL     1      48.798   6.478  15.612  0.00  0.00    +0.000 C 
BRANCH  19  20
ATOM     20  N   UNL     1      47.636   6.386  14.768  0.00  0.00    +0.000 N 
ATOM     21  C   UNL     1      47.732   6.188  13.417  0.00  0.00    +0.000 C 
ATOM     22  O   UNL     1      48.816   6.089  12.848  0.00  0.00    +0.000 OA
ATOM     23  H   UNL     1      46.742   6.624  15.185  0.00  0.00    +0.000 HD
BRANCH  21  24
ATOM     24  C   UNL     1      46.472   6.025  12.682  0.00  0.00    +0.000 A 
ATOM     25  C   UNL     1      45.910   7.128  12.054  0.00  0.00    +0.000 A 
ATOM     26  S   UNL     1      44.465   6.785  11.221  0.00  0.00    +0.000 S 
ATOM     27  C   UNL     1      44.513   5.154  11.706  0.00  0.00    +0.000 A 
ATOM     28  N   UNL     1      43.522   4.295  11.349  0.00  0.00    +0.000 NA
ATOM     29  C   UNL     1      43.663   3.097  11.813  0.00  0.00    +0.000 A 
ATOM     30  N   UNL     1      44.716   2.677  12.584  0.00  0.00    +0.000 N 
ATOM     31  C   UNL     1      45.775   3.493  12.909  0.00  0.00    +0.000 A 
ATOM     32  O   UNL     1      46.757   3.056  13.502  0.00  0.00    +0.000 OA
ATOM     33  C   UNL     1      45.636   4.867  12.459  0.00  0.00    +0.000 A 
ATOM     34  H   UNL     1      44.777   1.719  12.893  0.00  0.00    +0.000 HD
ENDBRANCH  21  24
ENDBRANCH  19  20
ENDBRANCH   6  19
TORSDOF 7
ENDMDL
MODEL 8
REMARK VINA RESULT:    -7.721      1.909      2.685
REMARK INTER + INTRA:         -11.979
REMARK INTER:                 -10.949
REMARK INTRA:                  -1.030
REMARK UNBOUND:                -1.098
REMARK  Name = 
REMARK  8 active torsions:
REMARK  status: ('A' for Active; 'I' for Inactive)
REMARK    1  A    between atoms: C_1  and  C_2
REMARK    2  A    between atoms: C_2  and  N_3
REMARK    3  A    between atoms: C_2  and  C_26
REMARK    4  A    between atoms: N_3  and  C_4
REMARK    5  A    between atoms: C_4  and  C_5
REMARK    6  A    between atoms: C_10  and  C_11
REMARK    7  A    between atoms: C_11  and  N_12
REMARK    8  A    between atoms: C_13  and  C_15
REMARK                            x       y       z     vdW  Elec       q    Type
REMARK                         _______ _______ _______ _____ _____    ______ ____
ROOT
ATOM      1  C   UNL     1      44.495   5.309  11.332  0.00  0.00    +0.000 A 
ATOM      2  C   UNL     1      44.958   6.618  11.143  0.00  0.00    +0.000 A 
ATOM      3  C   UNL     1      45.915   7.150  12.001  0.00  0.00    +0.000 A 
ATOM      4  F   UNL     1      46.383   8.385  11.779  0.00  0.00    +0.000 F 
ATOM      5  C   UNL     1      46.437   6.402  13.049  0.00  0.00    +0.000 A 
ATOM      6  C   UNL     1      45.990   5.091  13.259  0.00  0.00    +0.000 A 
ATOM      7  C   UNL     1      44.993   4.567  12.417  0.00  0.00    +0.000 A 
ENDROOT
BRANCH   1   8
ATOM      8  C   UNL     1      43.663   4.641  10.262  0.00  0.00    +0.000 C 
BRANCH   8   9
ATOM      9  N   UNL     1      44.373   4.358   9.009  0.00  0.00    +0.000 NA
ATOM     10  H   UNL     1      45.009   5.139   8.828  0.00  0.00    +0.000 HD
BRANCH   9  12
ATOM     11  C   UNL     1      44.334   1.918   9.567  0.00  0.00    +0.000 C 
ATOM     12  C   UNL     1      45.190   3.124   9.147  0.00  0.00    +0.000 C 
BRANCH  12  13
ATOM     13  C   UNL     1      45.946   2.707   7.883  0.00  0.00    +0.000 A 
ATOM     14  C   UNL     1      46.594   1.476   7.784  0.00  0.00    +0.000 A 
ATOM     15  C   UNL     1      47.415   1.228   6.685  0.00  0.00    +0.000 A 
ATOM     16  C   UNL     1      47.575   2.208   5.713  0.00  0.00    +0.000 A 
ATOM     17  C   UNL     1      46.881   3.394   5.871  0.00  0.00    +0.000 A 
ATOM     18  N   UNL     1      46.075   3.662   6.922  0.00  0.00    +0.000 NA
ENDBRANCH  12  13
ENDBRANCH   9  12
ENDBRANCH   8   9
ENDBRANCH   1   8
BRANCH   6  19
ATOM     19  C   UNL     1      46.597   4.244  14.343  0.00  0.00    +0.000 C 
BRANCH  19  20
ATOM     20  N   UNL     1      47.380   5.030  15.258  0.00  0.00    +0.000 N 
ATOM     21  C   UNL     1      47.782   4.545  16.474  0.00  0.00    +0.000 C 
ATOM     22  O   UNL     1      47.486   3.415  16.855  0.00  0.00    +0.000 OA
ATOM     23  H   UNL     1      47.499   6.014  15.039  0.00  0.00    +0.000 HD
BRANCH  21  24
ATOM     24  C   UNL     1      48.650   5.413  17.278  0.00  0.00    +0.000 A 
ATOM     25  C   UNL     1      49.933   5.689  16.827  0.00  0.00    +0.000 A 
ATOM     26  S   UNL     1      50.815   6.728  17.849  0.00  0.00    +0.000 S 
ATOM     27  C   UNL     1      49.526   6.812  18.959  0.00  0.00    +0.000 A 
ATOM     28  N   UNL     1      49.646   7.530  20.106  0.00  0.00    +0.000 NA
ATOM     29  C   UNL     1      48.609   7.481  20.875  0.00  0.00    +0.000 A 
ATOM     30  N   UNL     1      47.457   6.794  20.590  0.00  0.00    +0.000 N 
ATOM     31  C   UNL     1      47.267   6.112  19.410  0.00  0.00    +0.000 A 
ATOM     32  O   UNL     1      46.183   5.605  19.136  0.00  0.00    +0.000 OA
ATOM     33  C   UNL     1      48.427   6.090  18.535  0.00  0.00    +0.000 A 
ATOM     34  H   UNL     1      46.673   6.818  21.225  0.00  0.00    +0.000 HD
ENDBRANCH  21  24
ENDBRANCH  19  20
ENDBRANCH   6  19
TORSDOF 7
ENDMDL
MODEL 9
REMARK VINA RESULT:    -7.715      4.366     10.121
REMARK INTER + INTRA:         -11.970
REMARK INTER:                 -10.332
REMARK INTRA:                  -1.638
REMARK UNBOUND:                -1.098
REMARK  Name = 
REMARK  8 active torsions:
REMARK  status: ('A' for Active; 'I' for Inactive)
REMARK    1  A    between atoms: C_1  and  C_2
REMARK    2  A    between atoms: C_2  and  N_3
REMARK    3  A    between atoms: C_2  and  C_26
REMARK    4  A    between atoms: N_3  and  C_4
REMARK    5  A    between atoms: C_4  and  C_5
REMARK    6  A    between atoms: C_10  and  C_11
REMARK    7  A    between atoms: C_11  and  N_12
REMARK    8  A    between atoms: C_13  and  C_15
REMARK                            x       y       z     vdW  Elec       q    Type
REMARK                         _______ _______ _______ _____ _____    ______ ____
ROOT
ATOM      1  C   UNL     1      50.628   4.736  17.743  0.00  0.00    +0.000 A 
ATOM      2  C   UNL     1      51.366   3.553  17.613  0.00  0.00    +0.000 A 
ATOM      3  C   UNL     1      50.726   2.363  17.281  0.00  0.00    +0.000 A 
ATOM      4  F   UNL     1      51.453   1.251  17.114  0.00  0.00    +0.000 F 
ATOM      5  C   UNL     1      49.355   2.321  17.062  0.00  0.00    +0.000 A 
ATOM      6  C   UNL     1      48.594   3.490  17.186  0.00  0.00    +0.000 A 
ATOM      7  C   UNL     1      49.234   4.685  17.562  0.00  0.00    +0.000 A 
ENDROOT
BRANCH   1   8
ATOM      8  C   UNL     1      51.341   6.064  17.841  0.00  0.00    +0.000 C 
BRANCH   8   9
ATOM      9  N   UNL     1      51.787   6.431  19.190  0.00  0.00    +0.000 NA
ATOM     10  H   UNL     1      52.710   6.863  19.106  0.00  0.00    +0.000 HD
BRANCH   9  12
ATOM     11  C   UNL     1      50.252   8.350  18.712  0.00  0.00    +0.000 C 
ATOM     12  C   UNL     1      50.864   7.434  19.784  0.00  0.00    +0.000 C 
BRANCH  12  13
ATOM     13  C   UNL     1      49.696   6.845  20.578  0.00  0.00    +0.000 A 
ATOM     14  C   UNL     1      49.774   5.593  21.186  0.00  0.00    +0.000 A 
ATOM     15  C   UNL     1      48.623   5.033  21.737  0.00  0.00    +0.000 A 
ATOM     16  C   UNL     1      47.422   5.729  21.671  0.00  0.00    +0.000 A 
ATOM     17  C   UNL     1      47.430   6.976  21.071  0.00  0.00    +0.000 A 
ATOM     18  N   UNL     1      48.529   7.546  20.532  0.00  0.00    +0.000 NA
ENDBRANCH  12  13
ENDBRANCH   9  12
ENDBRANCH   8   9
ENDBRANCH   1   8
BRANCH   6  19
ATOM     19  C   UNL     1      47.122   3.477  16.882  0.00  0.00    +0.000 C 
BRANCH  19  20
ATOM     20  N   UNL     1      46.776   4.446  15.877  0.00  0.00    +0.000 N 
ATOM     21  C   UNL     1      46.883   4.176  14.539  0.00  0.00    +0.000 C 
ATOM     22  O   UNL     1      47.291   3.094  14.122  0.00  0.00    +0.000 OA
ATOM     23  H   UNL     1      46.593   5.394  16.191  0.00  0.00    +0.000 HD
BRANCH  21  24
ATOM     24  C   UNL     1      46.417   5.216  13.615  0.00  0.00    +0.000 A 
ATOM     25  C   UNL     1      47.262   6.275  13.309  0.00  0.00    +0.000 A 
ATOM     26  S   UNL     1      46.598   7.391  12.207  0.00  0.00    +0.000 S 
ATOM     27  C   UNL     1      45.136   6.524  12.132  0.00  0.00    +0.000 A 
ATOM     28  N   UNL     1      44.102   6.973  11.373  0.00  0.00    +0.000 NA
ATOM     29  C   UNL     1      43.040   6.240  11.433  0.00  0.00    +0.000 A 
ATOM     30  N   UNL     1      42.925   5.089  12.169  0.00  0.00    +0.000 N 
ATOM     31  C   UNL     1      43.968   4.561  12.895  0.00  0.00    +0.000 A 
ATOM     32  O   UNL     1      43.870   3.470  13.448  0.00  0.00    +0.000 OA
ATOM     33  C   UNL     1      45.168   5.379  12.905  0.00  0.00    +0.000 A 
ATOM     34  H   UNL     1      42.072   4.550  12.152  0.00  0.00    +0.000 HD
ENDBRANCH  21  24
ENDBRANCH  19  20
ENDBRANCH   6  19
TORSDOF 7
ENDMDL
