MODEL 1
REMARK VINA RESULT:    -6.320      0.000      0.000
REMARK INTER + INTRA:          -8.273
REMARK INTER:                  -7.982
REMARK INTRA:                  -0.291
REMARK UNBOUND:                -0.291
REMARK  Name = 
REMARK  5 active torsions:
REMARK  status: ('A' for Active; 'I' for Inactive)
REMARK    1  A    between atoms: N_1  and  C_2
REMARK    2  A    between atoms: C_2  and  C_3
REMARK    3  A    between atoms: C_7  and  C_8
REMARK    4  A    between atoms: C_9  and  C_10
REMARK    5  A    between atoms: C_14  and  C_15
REMARK                            x       y       z     vdW  Elec       q    Type
REMARK                         _______ _______ _______ _____ _____    ______ ____
ROOT
ATOM      1  C   UNL     1      47.399   4.688  15.427  0.00  0.00    +0.000 C 
ATOM      2  C   UNL     1      46.858   4.734  14.358  0.00  0.00    +0.000 C 
ENDROOT
BRANCH   1   7
ATOM      3  C   UNL     1      49.946   3.886  17.817  0.00  0.00    +0.000 A 
ATOM      4  C   UNL     1      49.365   4.220  19.040  0.00  0.00    +0.000 A 
ATOM      5  C   UNL     1      48.092   4.782  19.051  0.00  0.00    +0.000 A 
ATOM      6  C   UNL     1      47.425   4.978  17.848  0.00  0.00    +0.000 A 
ATOM      7  C   UNL     1      48.070   4.605  16.682  0.00  0.00    +0.000 A 
ATOM      8  N   UNL     1      49.311   4.076  16.631  0.00  0.00    +0.000 NA
BRANCH   3   9
ATOM      9  C   UNL     1      51.285   3.180  17.773  0.00  0.00    +0.000 C 
BRANCH   9  10
ATOM     10  N   UNL     1      51.122   1.725  17.766  0.00  0.00    +0.000 NA
ATOM     11  H   UNL     1      50.517   1.452  18.537  0.00  0.00    +0.000 HD
ATOM     12  H   UNL     1      52.039   1.321  17.969  0.00  0.00    +0.000 HD
ENDBRANCH   9  10
ENDBRANCH   3   9
ENDBRANCH   1   7
BRANCH   2  13
ATOM     13  C   UNL     1      46.231   4.831  13.079  0.00  0.00    +0.000 A 
ATOM     14  C   UNL     1      46.364   5.985  12.307  0.00  0.00    +0.000 A 
ATOM     15  C   UNL     1      45.717   6.071  11.075  0.00  0.00    +0.000 A 
ATOM     16  C   UNL     1      44.937   5.003  10.623  0.00  0.00    +0.000 A 
ATOM     17  C   UNL     1      44.804   3.837  11.394  0.00  0.00    +0.000 A 
ATOM     18  C   UNL     1      45.461   3.759  12.625  0.00  0.00    +0.000 A 
BRANCH  17  19
ATOM     19  C   UNL     1      43.957   2.732  10.868  0.00  0.00    +0.000 C 
ATOM     20  N   UNL     1      44.373   2.056   9.753  0.00  0.00    +0.000 N 
ATOM     21  O   UNL     1      42.906   2.419  11.413  0.00  0.00    +0.000 OA
ATOM     22  H   UNL     1      45.227   2.230   9.245  0.00  0.00    +0.000 HD
ATOM     23  H   UNL     1      43.783   1.304   9.430  0.00  0.00    +0.000 HD
ENDBRANCH  17  19
ENDBRANCH   2  13
TORSDOF 5
ENDMDL
MODEL 2
REMARK VINA RESULT:    -6.245      2.100      2.487
REMARK INTER + INTRA:          -8.179
REMARK INTER:                  -7.882
REMARK INTRA:                  -0.297
REMARK UNBOUND:                -0.291
REMARK  Name = 
REMARK  5 active torsions:
REMARK  status: ('A' for Active; 'I' for Inactive)
REMARK    1  A    between atoms: N_1  and  C_2
REMARK    2  A    between atoms: C_2  and  C_3
REMARK    3  A    between atoms: C_7  and  C_8
REMARK    4  A    between atoms: C_9  and  C_10
REMARK    5  A    between atoms: C_14  and  C_15
REMARK                            x       y       z     vdW  Elec       q    Type
REMARK                         _______ _______ _______ _____ _____    ______ ____
ROOT
ATOM      1  C   UNL     1      46.766   4.529  14.769  0.00  0.00    +0.000 C 
ATOM      2  C   UNL     1      46.015   4.676  13.845  0.00  0.00    +0.000 C 
ENDROOT
BRANCH   1   7
ATOM      3  C   UNL     1      49.466   5.290  17.000  0.00  0.00    +0.000 A 
ATOM      4  C   UNL     1      49.541   4.163  17.819  0.00  0.00    +0.000 A 
ATOM      5  C   UNL     1      48.616   3.138  17.644  0.00  0.00    +0.000 A 
ATOM      6  C   UNL     1      47.656   3.252  16.646  0.00  0.00    +0.000 A 
ATOM      7  C   UNL     1      47.662   4.398  15.870  0.00  0.00    +0.000 A 
ATOM      8  N   UNL     1      48.529   5.421  16.024  0.00  0.00    +0.000 NA
BRANCH   3   9
ATOM      9  C   UNL     1      50.515   6.376  17.095  0.00  0.00    +0.000 C 
BRANCH   9  10
ATOM     10  N   UNL     1      51.346   6.423  15.889  0.00  0.00    +0.000 NA
ATOM     11  H   UNL     1      51.930   5.591  15.853  0.00  0.00    +0.000 HD
ATOM     12  H   UNL     1      51.986   7.213  15.999  0.00  0.00    +0.000 HD
ENDBRANCH   9  10
ENDBRANCH   3   9
ENDBRANCH   1   7
BRANCH   2  13
ATOM     13  C   UNL     1      45.087   4.836  12.773  0.00  0.00    +0.000 A 
ATOM     14  C   UNL     1      43.770   5.220  13.023  0.00  0.00    +0.000 A 
ATOM     15  C   UNL     1      42.872   5.339  11.963  0.00  0.00    +0.000 A 
ATOM     16  C   UNL     1      43.295   5.070  10.659  0.00  0.00    +0.000 A 
ATOM     17  C   UNL     1      44.622   4.688  10.401  0.00  0.00    +0.000 A 
ATOM     18  C   UNL     1      45.516   4.577  11.469  0.00  0.00    +0.000 A 
BRANCH  17  19
ATOM     19  C   UNL     1      45.019   4.408   8.993  0.00  0.00    +0.000 C 
ATOM     20  N   UNL     1      44.354   3.432   8.303  0.00  0.00    +0.000 N 
ATOM     21  O   UNL     1      45.920   5.034   8.449  0.00  0.00    +0.000 OA
ATOM     22  H   UNL     1      43.592   2.875   8.659  0.00  0.00    +0.000 HD
ATOM     23  H   UNL     1      44.638   3.276   7.347  0.00  0.00    +0.000 HD
ENDBRANCH  17  19
ENDBRANCH   2  13
TORSDOF 5
ENDMDL
MODEL 3
REMARK VINA RESULT:    -6.118      3.269      7.976
REMARK INTER + INTRA:          -8.019
REMARK INTER:                  -7.713
REMARK INTRA:                  -0.305
REMARK UNBOUND:                -0.291
REMARK  Name = 
REMARK  5 active torsions:
REMARK  status: ('A' for Active; 'I' for Inactive)
REMARK    1  A    between atoms: N_1  and  C_2
REMARK    2  A    between atoms: C_2  and  C_3
REMARK    3  A    between atoms: C_7  and  C_8
REMARK    4  A    between atoms: C_9  and  C_10
REMARK    5  A    between atoms: C_14  and  C_15
REMARK                            x       y       z     vdW  Elec       q    Type
REMARK                         _______ _______ _______ _____ _____    ______ ____
ROOT
ATOM      1  C   UNL     1      46.642   4.632  14.122  0.00  0.00    +0.000 C 
ATOM      2  C   UNL     1      47.111   4.435  15.208  0.00  0.00    +0.000 C 
ENDROOT
BRANCH   1   7
ATOM      3  C   UNL     1      44.740   3.955  11.161  0.00  0.00    +0.000 A 
ATOM      4  C   UNL     1      45.028   5.040  10.332  0.00  0.00    +0.000 A 
ATOM      5  C   UNL     1      45.849   6.056  10.810  0.00  0.00    +0.000 A 
ATOM      6  C   UNL     1      46.378   5.956  12.091  0.00  0.00    +0.000 A 
ATOM      7  C   UNL     1      46.052   4.839  12.841  0.00  0.00    +0.000 A 
ATOM      8  N   UNL     1      45.243   3.844  12.418  0.00  0.00    +0.000 NA
BRANCH   3   9
ATOM      9  C   UNL     1      43.935   2.785  10.638  0.00  0.00    +0.000 C 
BRANCH   9  10
ATOM     10  N   UNL     1      43.065   2.228  11.677  0.00  0.00    +0.000 NA
ATOM     11  H   UNL     1      43.397   2.532  12.589  0.00  0.00    +0.000 HD
ATOM     12  H   UNL     1      43.188   1.213  11.656  0.00  0.00    +0.000 HD
ENDBRANCH   9  10
ENDBRANCH   3   9
ENDBRANCH   1   7
BRANCH   2  13
ATOM     13  C   UNL     1      47.657   4.243  16.513  0.00  0.00    +0.000 A 
ATOM     14  C   UNL     1      48.412   3.108  16.809  0.00  0.00    +0.000 A 
ATOM     15  C   UNL     1      48.909   2.926  18.099  0.00  0.00    +0.000 A 
ATOM     16  C   UNL     1      48.646   3.878  19.086  0.00  0.00    +0.000 A 
ATOM     17  C   UNL     1      47.891   5.025  18.792  0.00  0.00    +0.000 A 
ATOM     18  C   UNL     1      47.402   5.202  17.495  0.00  0.00    +0.000 A 
BRANCH  17  19
ATOM     19  C   UNL     1      47.636   6.006  19.883  0.00  0.00    +0.000 C 
ATOM     20  N   UNL     1      47.078   5.562  21.051  0.00  0.00    +0.000 N 
ATOM     21  O   UNL     1      47.917   7.191  19.754  0.00  0.00    +0.000 OA
ATOM     22  H   UNL     1      46.826   4.606  21.256  0.00  0.00    +0.000 HD
ATOM     23  H   UNL     1      46.930   6.249  21.776  0.00  0.00    +0.000 HD
ENDBRANCH  17  19
ENDBRANCH   2  13
TORSDOF 5
ENDMDL
MODEL 4
REMARK VINA RESULT:    -6.107      1.471      2.236
REMARK INTER + INTRA:          -8.005
REMARK INTER:                  -7.724
REMARK INTRA:                  -0.281
REMARK UNBOUND:                -0.291
REMARK  Name = 
REMARK  5 active torsions:
REMARK  status: ('A' for Active; 'I' for Inactive)
REMARK    1  A    between atoms: N_1  and  C_2
REMARK    2  A    between atoms: C_2  and  C_3
REMARK    3  A    between atoms: C_7  and  C_8
REMARK    4  A    between atoms: C_9  and  C_10
REMARK    5  A    between atoms: C_14  and  C_15
REMARK                            x       y       z     vdW  Elec       q    Type
REMARK                         _______ _______ _______ _____ _____    ______ ____
ROOT
ATOM      1  C   UNL     1      47.330   4.427  15.562  0.00  0.00    +0.000 C 
ATOM      2  C   UNL     1      46.866   4.538  14.461  0.00  0.00    +0.000 C 
ENDROOT
BRANCH   1   7
ATOM      3  C   UNL     1      47.938   5.142  19.020  0.00  0.00    +0.000 A 
ATOM      4  C   UNL     1      49.056   4.364  19.324  0.00  0.00    +0.000 A 
ATOM      5  C   UNL     1      49.587   3.533  18.342  0.00  0.00    +0.000 A 
ATOM      6  C   UNL     1      49.005   3.514  17.081  0.00  0.00    +0.000 A 
ATOM      7  C   UNL     1      47.908   4.328  16.861  0.00  0.00    +0.000 A 
ATOM      8  N   UNL     1      47.353   5.131  17.794  0.00  0.00    +0.000 NA
BRANCH   3   9
ATOM      9  C   UNL     1      47.398   6.131  20.030  0.00  0.00    +0.000 C 
BRANCH   9  10
ATOM     10  N   UNL     1      47.170   5.497  21.330  0.00  0.00    +0.000 NA
ATOM     11  H   UNL     1      46.895   6.207  22.005  0.00  0.00    +0.000 HD
ATOM     12  H   UNL     1      48.072   5.137  21.650  0.00  0.00    +0.000 HD
ENDBRANCH   9  10
ENDBRANCH   3   9
ENDBRANCH   1   7
BRANCH   2  13
ATOM     13  C   UNL     1      46.275   4.686  13.171  0.00  0.00    +0.000 A 
ATOM     14  C   UNL     1      46.466   5.852  12.429  0.00  0.00    +0.000 A 
ATOM     15  C   UNL     1      45.853   5.987  11.185  0.00  0.00    +0.000 A 
ATOM     16  C   UNL     1      45.049   4.957  10.689  0.00  0.00    +0.000 A 
ATOM     17  C   UNL     1      44.858   3.779  11.429  0.00  0.00    +0.000 A 
ATOM     18  C   UNL     1      45.481   3.650  12.673  0.00  0.00    +0.000 A 
BRANCH  17  19
ATOM     19  C   UNL     1      43.988   2.715  10.856  0.00  0.00    +0.000 C 
ATOM     20  N   UNL     1      44.381   2.092   9.704  0.00  0.00    +0.000 N 
ATOM     21  O   UNL     1      42.938   2.391  11.397  0.00  0.00    +0.000 OA
ATOM     22  H   UNL     1      45.232   2.279   9.195  0.00  0.00    +0.000 HD
ATOM     23  H   UNL     1      43.776   1.366   9.349  0.00  0.00    +0.000 HD
ENDBRANCH  17  19
ENDBRANCH   2  13
TORSDOF 5
ENDMDL
MODEL 5
REMARK VINA RESULT:    -6.087      2.551      7.801
REMARK INTER + INTRA:          -7.980
REMARK INTER:                  -7.672
REMARK INTRA:                  -0.308
REMARK UNBOUND:                -0.291
REMARK  Name = 
REMARK  5 active torsions:
REMARK  status: ('A' for Active; 'I' for Inactive)
REMARK    1  A    between atoms: N_1  and  C_2
REMARK    2  A    between atoms: C_2  and  C_3
REMARK    3  A    between atoms: C_7  and  C_8
REMARK    4  A    between atoms: C_9  and  C_10
REMARK    5  A    between atoms: C_14  and  C_15
REMARK                            x       y       z     vdW  Elec       q    Type
REMARK                         _______ _______ _______ _____ _____    ______ ____
ROOT
ATOM      1  C   UNL     1      46.644   4.542  14.157  0.00  0.00    +0.000 C 
ATOM      2  C   UNL     1      47.185   4.343  15.209  0.00  0.00    +0.000 C 
ENDROOT
BRANCH   1   7
ATOM      3  C   UNL     1      44.654   4.003  11.226  0.00  0.00    +0.000 A 
ATOM      4  C   UNL     1      44.850   5.165  10.479  0.00  0.00    +0.000 A 
ATOM      5  C   UNL     1      45.638   6.182  11.007  0.00  0.00    +0.000 A 
ATOM      6  C   UNL     1      46.226   6.009  12.254  0.00  0.00    +0.000 A 
ATOM      7  C   UNL     1      45.990   4.819  12.921  0.00  0.00    +0.000 A 
ATOM      8  N   UNL     1      45.215   3.819  12.450  0.00  0.00    +0.000 NA
BRANCH   3   9
ATOM      9  C   UNL     1      43.887   2.837  10.640  0.00  0.00    +0.000 C 
BRANCH   9  10
ATOM     10  N   UNL     1      43.038   2.196  11.646  0.00  0.00    +0.000 NA
ATOM     11  H   UNL     1      43.204   1.192  11.634  0.00  0.00    +0.000 HD
ATOM     12  H   UNL     1      42.069   2.326  11.346  0.00  0.00    +0.000 HD
ENDBRANCH   9  10
ENDBRANCH   3   9
ENDBRANCH   1   7
BRANCH   2  13
ATOM     13  C   UNL     1      47.869   4.107  16.439  0.00  0.00    +0.000 A 
ATOM     14  C   UNL     1      47.436   4.706  17.621  0.00  0.00    +0.000 A 
ATOM     15  C   UNL     1      48.138   4.488  18.805  0.00  0.00    +0.000 A 
ATOM     16  C   UNL     1      49.273   3.673  18.800  0.00  0.00    +0.000 A 
ATOM     17  C   UNL     1      49.711   3.062  17.614  0.00  0.00    +0.000 A 
ATOM     18  C   UNL     1      48.997   3.284  16.433  0.00  0.00    +0.000 A 
BRANCH  17  19
ATOM     19  C   UNL     1      50.930   2.208  17.663  0.00  0.00    +0.000 C 
ATOM     20  N   UNL     1      52.000   2.630  18.403  0.00  0.00    +0.000 N 
ATOM     21  O   UNL     1      50.987   1.144  17.060  0.00  0.00    +0.000 OA
ATOM     22  H   UNL     1      52.043   3.481  18.944  0.00  0.00    +0.000 HD
ATOM     23  H   UNL     1      52.806   2.022  18.427  0.00  0.00    +0.000 HD
ENDBRANCH  17  19
ENDBRANCH   2  13
TORSDOF 5
ENDMDL
MODEL 6
REMARK VINA RESULT:    -5.662      2.058      2.475
REMARK INTER + INTRA:          -7.442
REMARK INTER:                  -7.144
REMARK INTRA:                  -0.298
REMARK UNBOUND:                -0.291
REMARK  Name = 
REMARK  5 active torsions:
REMARK  status: ('A' for Active; 'I' for Inactive)
REMARK    1  A    between atoms: N_1  and  C_2
REMARK    2  A    between atoms: C_2  and  C_3
REMARK    3  A    between atoms: C_7  and  C_8
REMARK    4  A    between atoms: C_9  and  C_10
REMARK    5  A    between atoms: C_14  and  C_15
REMARK                            x       y       z     vdW  Elec       q    Type
REMARK                         _______ _______ _______ _____ _____    ______ ____
ROOT
ATOM      1  C   UNL     1      47.281   5.585  14.356  0.00  0.00    +0.000 C 
ATOM      2  C   UNL     1      46.392   5.419  13.567  0.00  0.00    +0.000 C 
ENDROOT
BRANCH   1   7
ATOM      3  C   UNL     1      49.324   4.924  17.225  0.00  0.00    +0.000 A 
ATOM      4  C   UNL     1      50.151   6.045  17.303  0.00  0.00    +0.000 A 
ATOM      5  C   UNL     1      50.048   7.030  16.326  0.00  0.00    +0.000 A 
ATOM      6  C   UNL     1      49.113   6.882  15.308  0.00  0.00    +0.000 A 
ATOM      7  C   UNL     1      48.323   5.745  15.314  0.00  0.00    +0.000 A 
ATOM      8  N   UNL     1      48.409   4.760  16.234  0.00  0.00    +0.000 NA
BRANCH   3   9
ATOM      9  C   UNL     1      49.338   3.885  18.325  0.00  0.00    +0.000 C 
BRANCH   9  10
ATOM     10  N   UNL     1      49.869   2.607  17.847  0.00  0.00    +0.000 NA
ATOM     11  H   UNL     1      49.831   2.589  16.830  0.00  0.00    +0.000 HD
ATOM     12  H   UNL     1      49.227   1.878  18.166  0.00  0.00    +0.000 HD
ENDBRANCH   9  10
ENDBRANCH   3   9
ENDBRANCH   1   7
BRANCH   2  13
ATOM     13  C   UNL     1      45.368   5.212  12.596  0.00  0.00    +0.000 A 
ATOM     14  C   UNL     1      44.023   5.230  12.965  0.00  0.00    +0.000 A 
ATOM     15  C   UNL     1      43.039   4.994  12.006  0.00  0.00    +0.000 A 
ATOM     16  C   UNL     1      43.406   4.737  10.682  0.00  0.00    +0.000 A 
ATOM     17  C   UNL     1      44.758   4.722  10.304  0.00  0.00    +0.000 A 
ATOM     18  C   UNL     1      45.737   4.966  11.272  0.00  0.00    +0.000 A 
BRANCH  17  19
ATOM     19  C   UNL     1      45.094   4.438   8.882  0.00  0.00    +0.000 C 
ATOM     20  N   UNL     1      44.278   3.606   8.165  0.00  0.00    +0.000 N 
ATOM     21  O   UNL     1      46.078   4.935   8.348  0.00  0.00    +0.000 OA
ATOM     22  H   UNL     1      43.440   3.163   8.512  0.00  0.00    +0.000 HD
ATOM     23  H   UNL     1      44.525   3.445   7.200  0.00  0.00    +0.000 HD
ENDBRANCH  17  19
ENDBRANCH   2  13
TORSDOF 5
ENDMDL
MODEL 7
REMARK VINA RESULT:    -5.543      4.788      7.910
REMARK INTER + INTRA:          -7.292
REMARK INTER:                  -6.991
REMARK INTRA:                  -0.301
REMARK UNBOUND:                -0.291
REMARK  Name = 
REMARK  5 active torsions:
REMARK  status: ('A' for Active; 'I' for Inactive)
REMARK    1  A    between atoms: N_1  and  C_2
REMARK    2  A    between atoms: C_2  and  C_3
REMARK    3  A    between atoms: C_7  and  C_8
REMARK    4  A    between atoms: C_9  and  C_10
REMARK    5  A    between atoms: C_14  and  C_15
REMARK                            x       y       z     vdW  Elec       q    Type
REMARK                         _______ _______ _______ _____ _____    ______ ____
ROOT
ATOM      1  C   UNL     1      45.249   8.881  12.007  0.00  0.00    +0.000 C 
ATOM      2  C   UNL     1      45.414   7.706  12.182  0.00  0.00    +0.000 C 
ENDROOT
BRANCH   1   7
ATOM      3  C   UNL     1      43.518  11.981  11.517  0.00  0.00    +0.000 A 
ATOM      4  C   UNL     1      44.525  12.857  11.110  0.00  0.00    +0.000 A 
ATOM      5  C   UNL     1      45.837  12.397  11.050  0.00  0.00    +0.000 A 
ATOM      6  C   UNL     1      46.109  11.075  11.377  0.00  0.00    +0.000 A 
ATOM      7  C   UNL     1      45.049  10.270  11.757  0.00  0.00    +0.000 A 
ATOM      8  N   UNL     1      43.767  10.686  11.846  0.00  0.00    +0.000 NA
BRANCH   3   9
ATOM      9  C   UNL     1      42.070  12.418  11.495  0.00  0.00    +0.000 C 
BRANCH   9  10
ATOM     10  N   UNL     1      41.327  11.860  12.627  0.00  0.00    +0.000 NA
ATOM     11  H   UNL     1      41.887  11.136  13.071  0.00  0.00    +0.000 HD
ATOM     12  H   UNL     1      40.506  11.386  12.242  0.00  0.00    +0.000 HD
ENDBRANCH   9  10
ENDBRANCH   3   9
ENDBRANCH   1   7
BRANCH   2  13
ATOM     13  C   UNL     1      45.569   6.306  12.412  0.00  0.00    +0.000 A 
ATOM     14  C   UNL     1      46.477   5.836  13.360  0.00  0.00    +0.000 A 
ATOM     15  C   UNL     1      46.634   4.463  13.545  0.00  0.00    +0.000 A 
ATOM     16  C   UNL     1      45.885   3.568  12.779  0.00  0.00    +0.000 A 
ATOM     17  C   UNL     1      44.965   4.035  11.826  0.00  0.00    +0.000 A 
ATOM     18  C   UNL     1      44.811   5.413  11.651  0.00  0.00    +0.000 A 
BRANCH  17  19
ATOM     19  C   UNL     1      44.197   3.037  11.032  0.00  0.00    +0.000 C 
ATOM     20  N   UNL     1      44.815   2.411   9.985  0.00  0.00    +0.000 N 
ATOM     21  O   UNL     1      43.032   2.770  11.301  0.00  0.00    +0.000 OA
ATOM     22  H   UNL     1      45.772   2.553   9.697  0.00  0.00    +0.000 HD
ATOM     23  H   UNL     1      44.271   1.730   9.476  0.00  0.00    +0.000 HD
ENDBRANCH  17  19
ENDBRANCH   2  13
TORSDOF 5
ENDMDL
MODEL 8
REMARK VINA RESULT:    -5.490      5.663      7.838
REMARK INTER + INTRA:          -7.226
REMARK INTER:                  -6.919
REMARK INTRA:                  -0.307
REMARK UNBOUND:                -0.291
REMARK  Name = 
REMARK  5 active torsions:
REMARK  status: ('A' for Active; 'I' for Inactive)
REMARK    1  A    between atoms: N_1  and  C_2
REMARK    2  A    between atoms: C_2  and  C_3
REMARK    3  A    between atoms: C_7  and  C_8
REMARK    4  A    between atoms: C_9  and  C_10
REMARK    5  A    between atoms: C_14  and  C_15
REMARK                            x       y       z     vdW  Elec       q    Type
REMARK                         _______ _______ _______ _____ _____    ______ ____
ROOT
ATOM      1  C   UNL     1      46.501   6.448  11.878  0.00  0.00    +0.000 C 
ATOM      2  C   UNL     1      47.415   7.223  11.829  0.00  0.00    +0.000 C 
ENDROOT
BRANCH   1   7
ATOM      3  C   UNL     1      44.294   3.766  10.991  0.00  0.00    +0.000 A 
ATOM      4  C   UNL     1      43.218   3.926  11.865  0.00  0.00    +0.000 A 
ATOM      5  C   UNL     1      43.265   4.940  12.816  0.00  0.00    +0.000 A 
ATOM      6  C   UNL     1      44.371   5.780  12.860  0.00  0.00    +0.000 A 
ATOM      7  C   UNL     1      45.388   5.560  11.948  0.00  0.00    +0.000 A 
ATOM      8  N   UNL     1      45.386   4.574  11.025  0.00  0.00    +0.000 NA
BRANCH   3   9
ATOM      9  C   UNL     1      44.232   2.741   9.880  0.00  0.00    +0.000 C 
BRANCH   9  10
ATOM     10  N   UNL     1      44.251   3.379   8.562  0.00  0.00    +0.000 NA
ATOM     11  H   UNL     1      43.398   3.137   8.062  0.00  0.00    +0.000 HD
ATOM     12  H   UNL     1      45.018   2.955   8.035  0.00  0.00    +0.000 HD
ENDBRANCH   9  10
ENDBRANCH   3   9
ENDBRANCH   1   7
BRANCH   2  13
ATOM     13  C   UNL     1      48.503   8.140  11.725  0.00  0.00    +0.000 A 
ATOM     14  C   UNL     1      48.288   9.514  11.822  0.00  0.00    +0.000 A 
ATOM     15  C   UNL     1      49.361  10.394  11.685  0.00  0.00    +0.000 A 
ATOM     16  C   UNL     1      50.644   9.893  11.448  0.00  0.00    +0.000 A 
ATOM     17  C   UNL     1      50.868   8.510  11.355  0.00  0.00    +0.000 A 
ATOM     18  C   UNL     1      49.786   7.636  11.499  0.00  0.00    +0.000 A 
BRANCH  17  19
ATOM     19  C   UNL     1      52.253   8.031  11.097  0.00  0.00    +0.000 C 
ATOM     20  N   UNL     1      52.428   6.806  10.513  0.00  0.00    +0.000 N 
ATOM     21  O   UNL     1      53.228   8.710  11.393  0.00  0.00    +0.000 OA
ATOM     22  H   UNL     1      51.690   6.183  10.221  0.00  0.00    +0.000 HD
ATOM     23  H   UNL     1      53.379   6.516  10.339  0.00  0.00    +0.000 HD
ENDBRANCH  17  19
ENDBRANCH   2  13
TORSDOF 5
ENDMDL
MODEL 9
REMARK VINA RESULT:    -5.413      3.536      8.171
REMARK INTER + INTRA:          -7.128
REMARK INTER:                  -6.842
REMARK INTRA:                  -0.285
REMARK UNBOUND:                -0.291
REMARK  Name = 
REMARK  5 active torsions:
REMARK  status: ('A' for Active; 'I' for Inactive)
REMARK    1  A    between atoms: N_1  and  C_2
REMARK    2  A    between atoms: C_2  and  C_3
REMARK    3  A    between atoms: C_7  and  C_8
REMARK    4  A    between atoms: C_9  and  C_10
REMARK    5  A    between atoms: C_14  and  C_15
REMARK                            x       y       z     vdW  Elec       q    Type
REMARK                         _______ _______ _______ _____ _____    ______ ____
ROOT
ATOM      1  C   UNL     1      46.414   4.517  14.234  0.00  0.00    +0.000 C 
ATOM      2  C   UNL     1      47.018   4.297  15.247  0.00  0.00    +0.000 C 
ENDROOT
BRANCH   1   7
ATOM      3  C   UNL     1      44.732   6.355  11.657  0.00  0.00    +0.000 A 
ATOM      4  C   UNL     1      44.081   5.365  10.922  0.00  0.00    +0.000 A 
ATOM      5  C   UNL     1      44.258   4.032  11.278  0.00  0.00    +0.000 A 
ATOM      6  C   UNL     1      45.062   3.721  12.368  0.00  0.00    +0.000 A 
ATOM      7  C   UNL     1      45.660   4.765  13.050  0.00  0.00    +0.000 A 
ATOM      8  N   UNL     1      45.527   6.068  12.721  0.00  0.00    +0.000 NA
BRANCH   3   9
ATOM      9  C   UNL     1      44.482   7.817  11.361  0.00  0.00    +0.000 C 
BRANCH   9  10
ATOM     10  N   UNL     1      43.090   8.054  10.974  0.00  0.00    +0.000 NA
ATOM     11  H   UNL     1      42.681   7.181  10.647  0.00  0.00    +0.000 HD
ATOM     12  H   UNL     1      43.106   8.679  10.165  0.00  0.00    +0.000 HD
ENDBRANCH   9  10
ENDBRANCH   3   9
ENDBRANCH   1   7
BRANCH   2  13
ATOM     13  C   UNL     1      47.741   4.081  16.457  0.00  0.00    +0.000 A 
ATOM     14  C   UNL     1      48.570   2.968  16.603  0.00  0.00    +0.000 A 
ATOM     15  C   UNL     1      49.243   2.760  17.806  0.00  0.00    +0.000 A 
ATOM     16  C   UNL     1      49.081   3.664  18.859  0.00  0.00    +0.000 A 
ATOM     17  C   UNL     1      48.253   4.789  18.716  0.00  0.00    +0.000 A 
ATOM     18  C   UNL     1      47.586   4.992  17.504  0.00  0.00    +0.000 A 
BRANCH  17  19
ATOM     19  C   UNL     1      48.112   5.717  19.871  0.00  0.00    +0.000 C 
ATOM     20  N   UNL     1      46.953   5.694  20.598  0.00  0.00    +0.000 N 
ATOM     21  O   UNL     1      49.009   6.492  20.180  0.00  0.00    +0.000 OA
ATOM     22  H   UNL     1      46.166   5.084  20.431  0.00  0.00    +0.000 HD
ATOM     23  H   UNL     1      46.894   6.326  21.382  0.00  0.00    +0.000 HD
ENDBRANCH  17  19
ENDBRANCH   2  13
TORSDOF 5
ENDMDL
