MODEL 1
REMARK VINA RESULT:    -7.881      0.000      0.000
REMARK INTER + INTRA:         -12.144
REMARK INTER:                 -11.106
REMARK INTRA:                  -1.039
REMARK UNBOUND:                -1.039
REMARK  Name = 
REMARK  7 active torsions:
REMARK  status: ('A' for Active; 'I' for Inactive)
REMARK    1  A    between atoms: C_2  and  C_4
REMARK    2  A    between atoms: C_7  and  O_8
REMARK    3  A    between atoms: O_8  and  C_9
REMARK    4  A    between atoms: C_9  and  C_10
REMARK    5  A    between atoms: C_10  and  C_11
REMARK    6  A    between atoms: C_15  and  O_16
REMARK    7  A    between atoms: O_16  and  C_17
REMARK                            x       y       z     vdW  Elec       q    Type
REMARK                         _______ _______ _______ _____ _____    ______ ____
ROOT
ATOM      1  C   UNL     1      43.644   4.929  10.849  0.00  0.00    +0.000 C 
ENDROOT
BRANCH   1   2
ATOM      2  O   UNL     1      43.501   3.652  10.216  0.00  0.00    +0.000 OA
BRANCH   2   6
ATOM      3  C   UNL     1      46.420   2.335   7.637  0.00  0.00    +0.000 A 
ATOM      4  C   UNL     1      46.167   3.701   7.645  0.00  0.00    +0.000 A 
ATOM      5  C   UNL     1      45.182   4.191   8.499  0.00  0.00    +0.000 A 
ATOM      6  C   UNL     1      44.481   3.312   9.325  0.00  0.00    +0.000 A 
ATOM      7  C   UNL     1      44.806   1.959   9.239  0.00  0.00    +0.000 A 
ATOM      8  N   UNL     1      45.755   1.440   8.418  0.00  0.00    +0.000 NA
BRANCH   3  10
ATOM      9  N   UNL     1      48.537   2.625   6.491  0.00  0.00    +0.000 N 
ATOM     10  C   UNL     1      47.480   1.792   6.730  0.00  0.00    +0.000 C 
ATOM     11  O   UNL     1      47.414   0.675   6.232  0.00  0.00    +0.000 OA
ATOM     12  H   UNL     1      49.286   2.319   5.890  0.00  0.00    +0.000 HD
ATOM     13  H   UNL     1      48.561   3.542   6.926  0.00  0.00    +0.000 HD
ENDBRANCH   3  10
ENDBRANCH   2   6
ENDBRANCH   1   2
BRANCH   1  14
ATOM     14  C   UNL     1      44.068   4.734  12.305  0.00  0.00    +0.000 C 
BRANCH  14  15
ATOM     15  C   UNL     1      45.448   5.295  12.542  0.00  0.00    +0.000 A 
ATOM     16  C   UNL     1      46.012   6.211  11.646  0.00  0.00    +0.000 A 
ATOM     17  C   UNL     1      47.262   6.775  11.910  0.00  0.00    +0.000 A 
ATOM     18  C   UNL     1      47.964   6.432  13.068  0.00  0.00    +0.000 A 
ATOM     19  C   UNL     1      47.415   5.518  13.962  0.00  0.00    +0.000 A 
ATOM     20  C   UNL     1      46.160   4.957  13.703  0.00  0.00    +0.000 A 
BRANCH  19  21
ATOM     21  O   UNL     1      47.995   5.137  15.146  0.00  0.00    +0.000 OA
BRANCH  21  22
ATOM     22  C   UNL     1      47.279   4.236  16.021  0.00  0.00    +0.000 C 
ATOM     23  C   UNL     1      47.333   4.539  17.535  0.00  0.00    +0.000 C 
ATOM     24  C   UNL     1      47.696   3.072  17.799  0.00  0.00    +0.000 C 
ATOM     25  C   UNL     1      48.031   2.916  16.311  0.00  0.00    +0.000 C 
ENDBRANCH  21  22
ENDBRANCH  19  21
ENDBRANCH  14  15
ENDBRANCH   1  14
TORSDOF 7
ENDMDL
MODEL 2
REMARK VINA RESULT:    -7.070      2.960      7.999
REMARK INTER + INTRA:         -11.002
REMARK INTER:                 -10.199
REMARK INTRA:                  -0.804
REMARK UNBOUND:                -1.039
REMARK  Name = 
REMARK  7 active torsions:
REMARK  status: ('A' for Active; 'I' for Inactive)
REMARK    1  A    between atoms: C_2  and  C_4
REMARK    2  A    between atoms: C_7  and  O_8
REMARK    3  A    between atoms: O_8  and  C_9
REMARK    4  A    between atoms: C_9  and  C_10
REMARK    5  A    between atoms: C_10  and  C_11
REMARK    6  A    between atoms: C_15  and  O_16
REMARK    7  A    between atoms: O_16  and  C_17
REMARK                            x       y       z     vdW  Elec       q    Type
REMARK                         _______ _______ _______ _____ _____    ______ ____
ROOT
ATOM      1  C   UNL     1      45.787   6.595  12.508  0.00  0.00    +0.000 C 
ENDROOT
BRANCH   1   2
ATOM      2  O   UNL     1      47.167   6.383  12.827  0.00  0.00    +0.000 OA
BRANCH   2   6
ATOM      3  C   UNL     1      47.710   4.331  16.349  0.00  0.00    +0.000 A 
ATOM      4  C   UNL     1      48.415   5.519  16.206  0.00  0.00    +0.000 A 
ATOM      5  C   UNL     1      48.266   6.245  15.026  0.00  0.00    +0.000 A 
ATOM      6  C   UNL     1      47.417   5.773  14.026  0.00  0.00    +0.000 A 
ATOM      7  C   UNL     1      46.758   4.568  14.263  0.00  0.00    +0.000 A 
ATOM      8  N   UNL     1      46.879   3.828  15.395  0.00  0.00    +0.000 NA
BRANCH   3  10
ATOM      9  N   UNL     1      46.897   2.590  17.828  0.00  0.00    +0.000 N 
ATOM     10  C   UNL     1      47.854   3.542  17.613  0.00  0.00    +0.000 C 
ATOM     11  O   UNL     1      48.767   3.729  18.408  0.00  0.00    +0.000 OA
ATOM     12  H   UNL     1      46.937   2.022  18.660  0.00  0.00    +0.000 HD
ATOM     13  H   UNL     1      46.158   2.458  17.144  0.00  0.00    +0.000 HD
ENDBRANCH   3  10
ENDBRANCH   2   6
ENDBRANCH   1   2
BRANCH   1  14
ATOM     14  C   UNL     1      45.607   6.588  10.989  0.00  0.00    +0.000 C 
BRANCH  14  15
ATOM     15  C   UNL     1      45.238   5.209  10.499  0.00  0.00    +0.000 A 
ATOM     16  C   UNL     1      44.596   4.297  11.345  0.00  0.00    +0.000 A 
ATOM     17  C   UNL     1      44.199   3.048  10.861  0.00  0.00    +0.000 A 
ATOM     18  C   UNL     1      44.437   2.695   9.531  0.00  0.00    +0.000 A 
ATOM     19  C   UNL     1      45.081   3.592   8.683  0.00  0.00    +0.000 A 
ATOM     20  C   UNL     1      45.473   4.846   9.164  0.00  0.00    +0.000 A 
BRANCH  19  21
ATOM     21  O   UNL     1      45.333   3.369   7.353  0.00  0.00    +0.000 OA
BRANCH  21  22
ATOM     22  C   UNL     1      46.683   3.065   6.936  0.00  0.00    +0.000 C 
ATOM     23  C   UNL     1      46.898   2.745   5.439  0.00  0.00    +0.000 C 
ATOM     24  C   UNL     1      47.698   1.498   5.838  0.00  0.00    +0.000 C 
ATOM     25  C   UNL     1      47.125   1.617   7.254  0.00  0.00    +0.000 C 
ENDBRANCH  21  22
ENDBRANCH  19  21
ENDBRANCH  14  15
ENDBRANCH   1  14
TORSDOF 7
ENDMDL
MODEL 3
REMARK VINA RESULT:    -6.885      2.158      4.048
REMARK INTER + INTRA:         -10.742
REMARK INTER:                  -9.824
REMARK INTRA:                  -0.918
REMARK UNBOUND:                -1.039
REMARK  Name = 
REMARK  7 active torsions:
REMARK  status: ('A' for Active; 'I' for Inactive)
REMARK    1  A    between atoms: C_2  and  C_4
REMARK    2  A    between atoms: C_7  and  O_8
REMARK    3  A    between atoms: O_8  and  C_9
REMARK    4  A    between atoms: C_9  and  C_10
REMARK    5  A    between atoms: C_10  and  C_11
REMARK    6  A    between atoms: C_15  and  O_16
REMARK    7  A    between atoms: O_16  and  C_17
REMARK                            x       y       z     vdW  Elec       q    Type
REMARK                         _______ _______ _______ _____ _____    ______ ____
ROOT
ATOM      1  C   UNL     1      43.293   4.534  11.158  0.00  0.00    +0.000 C 
ENDROOT
BRANCH   1   2
ATOM      2  O   UNL     1      43.384   3.289  10.457  0.00  0.00    +0.000 OA
BRANCH   2   6
ATOM      3  C   UNL     1      46.365   2.721   7.683  0.00  0.00    +0.000 A 
ATOM      4  C   UNL     1      45.941   4.028   7.881  0.00  0.00    +0.000 A 
ATOM      5  C   UNL     1      44.928   4.268   8.808  0.00  0.00    +0.000 A 
ATOM      6  C   UNL     1      44.371   3.202   9.514  0.00  0.00    +0.000 A 
ATOM      7  C   UNL     1      44.863   1.927   9.240  0.00  0.00    +0.000 A 
ATOM      8  N   UNL     1      45.843   1.650   8.343  0.00  0.00    +0.000 NA
BRANCH   3  10
ATOM      9  N   UNL     1      47.387   3.152   5.527  0.00  0.00    +0.000 N 
ATOM     10  C   UNL     1      47.457   2.447   6.696  0.00  0.00    +0.000 C 
ATOM     11  O   UNL     1      48.359   1.647   6.914  0.00  0.00    +0.000 OA
ATOM     12  H   UNL     1      48.094   3.016   4.821  0.00  0.00    +0.000 HD
ATOM     13  H   UNL     1      46.629   3.811   5.383  0.00  0.00    +0.000 HD
ENDBRANCH   3  10
ENDBRANCH   2   6
ENDBRANCH   1   2
BRANCH   1  14
ATOM     14  C   UNL     1      43.762   4.346  12.600  0.00  0.00    +0.000 C 
BRANCH  14  15
ATOM     15  C   UNL     1      44.966   5.209  12.891  0.00  0.00    +0.000 A 
ATOM     16  C   UNL     1      46.231   4.636  13.065  0.00  0.00    +0.000 A 
ATOM     17  C   UNL     1      47.349   5.448  13.267  0.00  0.00    +0.000 A 
ATOM     18  C   UNL     1      47.218   6.839  13.300  0.00  0.00    +0.000 A 
ATOM     19  C   UNL     1      45.963   7.418  13.135  0.00  0.00    +0.000 A 
ATOM     20  C   UNL     1      44.843   6.606  12.926  0.00  0.00    +0.000 A 
BRANCH  19  21
ATOM     21  O   UNL     1      45.722   8.768  13.112  0.00  0.00    +0.000 OA
BRANCH  21  22
ATOM     22  C   UNL     1      45.812   9.476  11.854  0.00  0.00    +0.000 C 
ATOM     23  C   UNL     1      46.908  10.560  11.738  0.00  0.00    +0.000 C 
ATOM     24  C   UNL     1      45.861  11.535  11.184  0.00  0.00    +0.000 C 
ATOM     25  C   UNL     1      44.759  10.597  11.692  0.00  0.00    +0.000 C 
ENDBRANCH  21  22
ENDBRANCH  19  21
ENDBRANCH  14  15
ENDBRANCH   1  14
TORSDOF 7
ENDMDL
MODEL 4
REMARK VINA RESULT:    -6.294      3.877      8.655
REMARK INTER + INTRA:          -9.909
REMARK INTER:                  -9.387
REMARK INTRA:                  -0.522
REMARK UNBOUND:                -1.039
REMARK  Name = 
REMARK  7 active torsions:
REMARK  status: ('A' for Active; 'I' for Inactive)
REMARK    1  A    between atoms: C_2  and  C_4
REMARK    2  A    between atoms: C_7  and  O_8
REMARK    3  A    between atoms: O_8  and  C_9
REMARK    4  A    between atoms: C_9  and  C_10
REMARK    5  A    between atoms: C_10  and  C_11
REMARK    6  A    between atoms: C_15  and  O_16
REMARK    7  A    between atoms: O_16  and  C_17
REMARK                            x       y       z     vdW  Elec       q    Type
REMARK                         _______ _______ _______ _____ _____    ______ ____
ROOT
ATOM      1  C   UNL     1      47.203   4.370  14.131  0.00  0.00    +0.000 C 
ENDROOT
BRANCH   1   2
ATOM      2  O   UNL     1      46.619   3.936  15.364  0.00  0.00    +0.000 OA
BRANCH   2   6
ATOM      3  C   UNL     1      49.142   4.427  18.573  0.00  0.00    +0.000 A 
ATOM      4  C   UNL     1      48.433   3.235  18.517  0.00  0.00    +0.000 A 
ATOM      5  C   UNL     1      47.561   3.027  17.450  0.00  0.00    +0.000 A 
ATOM      6  C   UNL     1      47.424   4.008  16.467  0.00  0.00    +0.000 A 
ATOM      7  C   UNL     1      48.177   5.171  16.617  0.00  0.00    +0.000 A 
ATOM      8  N   UNL     1      49.033   5.415  17.642  0.00  0.00    +0.000 NA
BRANCH   3  10
ATOM      9  N   UNL     1      51.371   4.236  19.509  0.00  0.00    +0.000 N 
ATOM     10  C   UNL     1      50.088   4.663  19.709  0.00  0.00    +0.000 C 
ATOM     11  O   UNL     1      49.744   5.204  20.753  0.00  0.00    +0.000 OA
ATOM     12  H   UNL     1      52.058   4.367  20.235  0.00  0.00    +0.000 HD
ATOM     13  H   UNL     1      51.622   3.797  18.628  0.00  0.00    +0.000 HD
ENDBRANCH   3  10
ENDBRANCH   2   6
ENDBRANCH   1   2
BRANCH   1  14
ATOM     14  C   UNL     1      46.389   5.530  13.559  0.00  0.00    +0.000 C 
BRANCH  14  15
ATOM     15  C   UNL     1      45.184   5.021  12.807  0.00  0.00    +0.000 A 
ATOM     16  C   UNL     1      43.932   5.628  12.967  0.00  0.00    +0.000 A 
ATOM     17  C   UNL     1      42.838   5.192  12.217  0.00  0.00    +0.000 A 
ATOM     18  C   UNL     1      42.978   4.148  11.300  0.00  0.00    +0.000 A 
ATOM     19  C   UNL     1      44.217   3.534  11.137  0.00  0.00    +0.000 A 
ATOM     20  C   UNL     1      45.316   3.973  11.883  0.00  0.00    +0.000 A 
BRANCH  19  21
ATOM     21  O   UNL     1      44.480   2.528  10.242  0.00  0.00    +0.000 OA
BRANCH  21  22
ATOM     22  C   UNL     1      44.642   2.857   8.844  0.00  0.00    +0.000 C 
ATOM     23  C   UNL     1      45.887   2.284   8.130  0.00  0.00    +0.000 C 
ATOM     24  C   UNL     1      46.186   3.680   7.568  0.00  0.00    +0.000 C 
ATOM     25  C   UNL     1      45.216   4.271   8.597  0.00  0.00    +0.000 C 
ENDBRANCH  21  22
ENDBRANCH  19  21
ENDBRANCH  14  15
ENDBRANCH   1  14
TORSDOF 7
ENDMDL
MODEL 5
REMARK VINA RESULT:    -6.127      2.005      2.344
REMARK INTER + INTRA:          -9.673
REMARK INTER:                  -8.875
REMARK INTRA:                  -0.798
REMARK UNBOUND:                -1.039
REMARK  Name = 
REMARK  7 active torsions:
REMARK  status: ('A' for Active; 'I' for Inactive)
REMARK    1  A    between atoms: C_2  and  C_4
REMARK    2  A    between atoms: C_7  and  O_8
REMARK    3  A    between atoms: O_8  and  C_9
REMARK    4  A    between atoms: C_9  and  C_10
REMARK    5  A    between atoms: C_10  and  C_11
REMARK    6  A    between atoms: C_15  and  O_16
REMARK    7  A    between atoms: O_16  and  C_17
REMARK                            x       y       z     vdW  Elec       q    Type
REMARK                         _______ _______ _______ _____ _____    ______ ____
ROOT
ATOM      1  C   UNL     1      44.638   3.948  12.185  0.00  0.00    +0.000 C 
ENDROOT
BRANCH   1   2
ATOM      2  O   UNL     1      43.948   3.927  10.931  0.00  0.00    +0.000 OA
BRANCH   2   6
ATOM      3  C   UNL     1      46.230   2.867   7.680  0.00  0.00    +0.000 A 
ATOM      4  C   UNL     1      46.082   4.227   7.918  0.00  0.00    +0.000 A 
ATOM      5  C   UNL     1      45.312   4.633   9.006  0.00  0.00    +0.000 A 
ATOM      6  C   UNL     1      44.717   3.676   9.828  0.00  0.00    +0.000 A 
ATOM      7  C   UNL     1      44.922   2.336   9.501  0.00  0.00    +0.000 A 
ATOM      8  N   UNL     1      45.661   1.899   8.449  0.00  0.00    +0.000 NA
BRANCH   3  10
ATOM      9  N   UNL     1      48.208   1.744   6.839  0.00  0.00    +0.000 N 
ATOM     10  C   UNL     1      47.060   2.414   6.519  0.00  0.00    +0.000 C 
ATOM     11  O   UNL     1      46.739   2.624   5.355  0.00  0.00    +0.000 OA
ATOM     12  H   UNL     1      48.811   1.410   6.102  0.00  0.00    +0.000 HD
ATOM     13  H   UNL     1      48.440   1.583   7.814  0.00  0.00    +0.000 HD
ENDBRANCH   3  10
ENDBRANCH   2   6
ENDBRANCH   1   2
BRANCH   1  14
ATOM     14  C   UNL     1      44.326   5.252  12.920  0.00  0.00    +0.000 C 
BRANCH  14  15
ATOM     15  C   UNL     1      45.452   6.243  12.755  0.00  0.00    +0.000 A 
ATOM     16  C   UNL     1      45.228   7.487  12.153  0.00  0.00    +0.000 A 
ATOM     17  C   UNL     1      46.261   8.423  12.065  0.00  0.00    +0.000 A 
ATOM     18  C   UNL     1      47.527   8.130  12.576  0.00  0.00    +0.000 A 
ATOM     19  C   UNL     1      47.763   6.894  13.171  0.00  0.00    +0.000 A 
ATOM     20  C   UNL     1      46.727   5.957  13.266  0.00  0.00    +0.000 A 
BRANCH  19  21
ATOM     21  O   UNL     1      48.952   6.512  13.739  0.00  0.00    +0.000 OA
BRANCH  21  22
ATOM     22  C   UNL     1      49.194   6.813  15.133  0.00  0.00    +0.000 C 
ATOM     23  C   UNL     1      48.666   8.166  15.659  0.00  0.00    +0.000 C 
ATOM     24  C   UNL     1      50.037   8.437  16.290  0.00  0.00    +0.000 C 
ATOM     25  C   UNL     1      50.626   7.318  15.423  0.00  0.00    +0.000 C 
ENDBRANCH  21  22
ENDBRANCH  19  21
ENDBRANCH  14  15
ENDBRANCH   1  14
TORSDOF 7
ENDMDL
MODEL 6
REMARK VINA RESULT:    -5.884      2.975      4.719
REMARK INTER + INTRA:          -9.331
REMARK INTER:                  -8.119
REMARK INTRA:                  -1.212
REMARK UNBOUND:                -1.039
REMARK  Name = 
REMARK  7 active torsions:
REMARK  status: ('A' for Active; 'I' for Inactive)
REMARK    1  A    between atoms: C_2  and  C_4
REMARK    2  A    between atoms: C_7  and  O_8
REMARK    3  A    between atoms: O_8  and  C_9
REMARK    4  A    between atoms: C_9  and  C_10
REMARK    5  A    between atoms: C_10  and  C_11
REMARK    6  A    between atoms: C_15  and  O_16
REMARK    7  A    between atoms: O_16  and  C_17
REMARK                            x       y       z     vdW  Elec       q    Type
REMARK                         _______ _______ _______ _____ _____    ______ ____
ROOT
ATOM      1  C   UNL     1      48.555   7.662  11.850  0.00  0.00    +0.000 C 
ENDROOT
BRANCH   1   2
ATOM      2  O   UNL     1      47.148   7.766  12.099  0.00  0.00    +0.000 OA
BRANCH   2   6
ATOM      3  C   UNL     1      44.936   4.329  11.653  0.00  0.00    +0.000 A 
ATOM      4  C   UNL     1      45.550   4.518  12.885  0.00  0.00    +0.000 A 
ATOM      5  C   UNL     1      46.315   5.666  13.079  0.00  0.00    +0.000 A 
ATOM      6  C   UNL     1      46.443   6.596  12.046  0.00  0.00    +0.000 A 
ATOM      7  C   UNL     1      45.791   6.311  10.847  0.00  0.00    +0.000 A 
ATOM      8  N   UNL     1      45.041   5.204  10.616  0.00  0.00    +0.000 NA
BRANCH   3  10
ATOM      9  N   UNL     1      43.841   2.358  12.544  0.00  0.00    +0.000 N 
ATOM     10  C   UNL     1      44.105   3.104  11.430  0.00  0.00    +0.000 C 
ATOM     11  O   UNL     1      43.683   2.784  10.325  0.00  0.00    +0.000 OA
ATOM     12  H   UNL     1      43.284   1.521  12.463  0.00  0.00    +0.000 HD
ATOM     13  H   UNL     1      44.201   2.657  13.445  0.00  0.00    +0.000 HD
ENDBRANCH   3  10
ENDBRANCH   2   6
ENDBRANCH   1   2
BRANCH   1  14
ATOM     14  C   UNL     1      49.301   8.699  12.689  0.00  0.00    +0.000 C 
BRANCH  14  15
ATOM     15  C   UNL     1      49.138   8.417  14.163  0.00  0.00    +0.000 A 
ATOM     16  C   UNL     1      48.746   9.429  15.046  0.00  0.00    +0.000 A 
ATOM     17  C   UNL     1      48.534   9.141  16.396  0.00  0.00    +0.000 A 
ATOM     18  C   UNL     1      48.710   7.843  16.880  0.00  0.00    +0.000 A 
ATOM     19  C   UNL     1      49.106   6.830  16.011  0.00  0.00    +0.000 A 
ATOM     20  C   UNL     1      49.313   7.115  14.657  0.00  0.00    +0.000 A 
BRANCH  19  21
ATOM     21  O   UNL     1      49.273   5.515  16.366  0.00  0.00    +0.000 OA
BRANCH  21  22
ATOM     22  C   UNL     1      48.238   4.857  17.130  0.00  0.00    +0.000 C 
ATOM     23  C   UNL     1      48.671   3.669  18.019  0.00  0.00    +0.000 C 
ATOM     24  C   UNL     1      47.523   2.835  17.435  0.00  0.00    +0.000 C 
ATOM     25  C   UNL     1      47.389   3.862  16.305  0.00  0.00    +0.000 C 
ENDBRANCH  21  22
ENDBRANCH  19  21
ENDBRANCH  14  15
ENDBRANCH   1  14
TORSDOF 7
ENDMDL
MODEL 7
REMARK VINA RESULT:    -5.845      4.295      6.087
REMARK INTER + INTRA:          -9.276
REMARK INTER:                  -7.950
REMARK INTRA:                  -1.326
REMARK UNBOUND:                -1.039
REMARK  Name = 
REMARK  7 active torsions:
REMARK  status: ('A' for Active; 'I' for Inactive)
REMARK    1  A    between atoms: C_2  and  C_4
REMARK    2  A    between atoms: C_7  and  O_8
REMARK    3  A    between atoms: O_8  and  C_9
REMARK    4  A    between atoms: C_9  and  C_10
REMARK    5  A    between atoms: C_10  and  C_11
REMARK    6  A    between atoms: C_15  and  O_16
REMARK    7  A    between atoms: O_16  and  C_17
REMARK                            x       y       z     vdW  Elec       q    Type
REMARK                         _______ _______ _______ _____ _____    ______ ____
ROOT
ATOM      1  C   UNL     1      49.338   7.553  14.397  0.00  0.00    +0.000 C 
ENDROOT
BRANCH   1   2
ATOM      2  O   UNL     1      48.488   7.626  13.247  0.00  0.00    +0.000 OA
BRANCH   2   6
ATOM      3  C   UNL     1      45.029   5.405  13.184  0.00  0.00    +0.000 A 
ATOM      4  C   UNL     1      46.174   4.760  13.632  0.00  0.00    +0.000 A 
ATOM      5  C   UNL     1      47.371   5.472  13.665  0.00  0.00    +0.000 A 
ATOM      6  C   UNL     1      47.394   6.806  13.257  0.00  0.00    +0.000 A 
ATOM      7  C   UNL     1      46.192   7.361  12.820  0.00  0.00    +0.000 A 
ATOM      8  N   UNL     1      45.007   6.701  12.768  0.00  0.00    +0.000 NA
BRANCH   3  10
ATOM      9  N   UNL     1      42.613   5.420  12.987  0.00  0.00    +0.000 N 
ATOM     10  C   UNL     1      43.733   4.655  13.149  0.00  0.00    +0.000 C 
ATOM     11  O   UNL     1      43.673   3.436  13.256  0.00  0.00    +0.000 OA
ATOM     12  H   UNL     1      41.708   4.976  12.953  0.00  0.00    +0.000 HD
ATOM     13  H   UNL     1      42.701   6.427  12.895  0.00  0.00    +0.000 HD
ENDBRANCH   3  10
ENDBRANCH   2   6
ENDBRANCH   1   2
BRANCH   1  14
ATOM     14  C   UNL     1      48.999   8.693  15.358  0.00  0.00    +0.000 C 
BRANCH  14  15
ATOM     15  C   UNL     1      48.576   8.154  16.702  0.00  0.00    +0.000 A 
ATOM     16  C   UNL     1      48.010   8.998  17.665  0.00  0.00    +0.000 A 
ATOM     17  C   UNL     1      47.562   8.477  18.881  0.00  0.00    +0.000 A 
ATOM     18  C   UNL     1      47.672   7.111  19.150  0.00  0.00    +0.000 A 
ATOM     19  C   UNL     1      48.239   6.264  18.202  0.00  0.00    +0.000 A 
ATOM     20  C   UNL     1      48.683   6.783  16.981  0.00  0.00    +0.000 A 
BRANCH  19  21
ATOM     21  O   UNL     1      48.365   4.905  18.342  0.00  0.00    +0.000 OA
BRANCH  21  22
ATOM     22  C   UNL     1      48.902   4.132  17.245  0.00  0.00    +0.000 C 
ATOM     23  C   UNL     1      48.178   2.811  16.898  0.00  0.00    +0.000 C 
ATOM     24  C   UNL     1      49.533   2.091  16.891  0.00  0.00    +0.000 C 
ATOM     25  C   UNL     1      50.144   3.293  17.621  0.00  0.00    +0.000 C 
ENDBRANCH  21  22
ENDBRANCH  19  21
ENDBRANCH  14  15
ENDBRANCH   1  14
TORSDOF 7
ENDMDL
MODEL 8
REMARK VINA RESULT:    -5.831      3.906      5.621
REMARK INTER + INTRA:          -9.255
REMARK INTER:                  -8.243
REMARK INTRA:                  -1.012
REMARK UNBOUND:                -1.039
REMARK  Name = 
REMARK  7 active torsions:
REMARK  status: ('A' for Active; 'I' for Inactive)
REMARK    1  A    between atoms: C_2  and  C_4
REMARK    2  A    between atoms: C_7  and  O_8
REMARK    3  A    between atoms: O_8  and  C_9
REMARK    4  A    between atoms: C_9  and  C_10
REMARK    5  A    between atoms: C_10  and  C_11
REMARK    6  A    between atoms: C_15  and  O_16
REMARK    7  A    between atoms: O_16  and  C_17
REMARK                            x       y       z     vdW  Elec       q    Type
REMARK                         _______ _______ _______ _____ _____    ______ ____
ROOT
ATOM      1  C   UNL     1      49.050   7.501  13.159  0.00  0.00    +0.000 C 
ENDROOT
BRANCH   1   2
ATOM      2  O   UNL     1      48.842   6.085  13.182  0.00  0.00    +0.000 OA
BRANCH   2   6
ATOM      3  C   UNL     1      45.008   4.611  12.997  0.00  0.00    +0.000 A 
ATOM      4  C   UNL     1      45.317   5.650  12.129  0.00  0.00    +0.000 A 
ATOM      5  C   UNL     1      46.603   6.185  12.161  0.00  0.00    +0.000 A 
ATOM      6  C   UNL     1      47.546   5.668  13.050  0.00  0.00    +0.000 A 
ATOM      7  C   UNL     1      47.136   4.628  13.882  0.00  0.00    +0.000 A 
ATOM      8  N   UNL     1      45.893   4.082  13.886  0.00  0.00    +0.000 NA
BRANCH   3  10
ATOM      9  N   UNL     1      43.550   2.735  12.514  0.00  0.00    +0.000 N 
ATOM     10  C   UNL     1      43.633   4.020  12.971  0.00  0.00    +0.000 C 
ATOM     11  O   UNL     1      42.641   4.640  13.335  0.00  0.00    +0.000 OA
ATOM     12  H   UNL     1      42.652   2.278  12.473  0.00  0.00    +0.000 HD
ATOM     13  H   UNL     1      44.394   2.249  12.226  0.00  0.00    +0.000 HD
ENDBRANCH   3  10
ENDBRANCH   2   6
ENDBRANCH   1   2
BRANCH   1  14
ATOM     14  C   UNL     1      48.899   8.063  14.573  0.00  0.00    +0.000 C 
BRANCH  14  15
ATOM     15  C   UNL     1      49.695   7.248  15.563  0.00  0.00    +0.000 A 
ATOM     16  C   UNL     1      51.095   7.270  15.546  0.00  0.00    +0.000 A 
ATOM     17  C   UNL     1      51.821   6.565  16.508  0.00  0.00    +0.000 A 
ATOM     18  C   UNL     1      51.162   5.831  17.497  0.00  0.00    +0.000 A 
ATOM     19  C   UNL     1      49.771   5.798  17.519  0.00  0.00    +0.000 A 
ATOM     20  C   UNL     1      49.041   6.509  16.560  0.00  0.00    +0.000 A 
BRANCH  19  21
ATOM     21  O   UNL     1      49.019   5.143  18.462  0.00  0.00    +0.000 OA
BRANCH  21  22
ATOM     22  C   UNL     1      48.748   3.734  18.290  0.00  0.00    +0.000 C 
ATOM     23  C   UNL     1      49.685   2.952  17.342  0.00  0.00    +0.000 C 
ATOM     24  C   UNL     1      48.455   2.355  16.646  0.00  0.00    +0.000 C 
ATOM     25  C   UNL     1      47.591   3.434  17.309  0.00  0.00    +0.000 C 
ENDBRANCH  21  22
ENDBRANCH  19  21
ENDBRANCH  14  15
ENDBRANCH   1  14
TORSDOF 7
ENDMDL
MODEL 9
REMARK VINA RESULT:    -5.762      3.726      6.033
REMARK INTER + INTRA:          -9.158
REMARK INTER:                  -8.271
REMARK INTRA:                  -0.887
REMARK UNBOUND:                -1.039
REMARK  Name = 
REMARK  7 active torsions:
REMARK  status: ('A' for Active; 'I' for Inactive)
REMARK    1  A    between atoms: C_2  and  C_4
REMARK    2  A    between atoms: C_7  and  O_8
REMARK    3  A    between atoms: O_8  and  C_9
REMARK    4  A    between atoms: C_9  and  C_10
REMARK    5  A    between atoms: C_10  and  C_11
REMARK    6  A    between atoms: C_15  and  O_16
REMARK    7  A    between atoms: O_16  and  C_17
REMARK                            x       y       z     vdW  Elec       q    Type
REMARK                         _______ _______ _______ _____ _____    ______ ____
ROOT
ATOM      1  C   UNL     1      48.464   7.085  14.695  0.00  0.00    +0.000 C 
ENDROOT
BRANCH   1   2
ATOM      2  O   UNL     1      48.503   6.205  13.566  0.00  0.00    +0.000 OA
BRANCH   2   6
ATOM      3  C   UNL     1      44.957   4.339  12.645  0.00  0.00    +0.000 A 
ATOM      4  C   UNL     1      45.280   5.463  11.896  0.00  0.00    +0.000 A 
ATOM      5  C   UNL     1      46.471   6.131  12.178  0.00  0.00    +0.000 A 
ATOM      6  C   UNL     1      47.306   5.660  13.190  0.00  0.00    +0.000 A 
ATOM      7  C   UNL     1      46.889   4.526  13.886  0.00  0.00    +0.000 A 
ATOM      8  N   UNL     1      45.737   3.850  13.647  0.00  0.00    +0.000 NA
BRANCH   3  10
ATOM      9  N   UNL     1      42.793   4.265  11.553  0.00  0.00    +0.000 N 
ATOM     10  C   UNL     1      43.685   3.606  12.351  0.00  0.00    +0.000 C 
ATOM     11  O   UNL     1      43.452   2.486  12.790  0.00  0.00    +0.000 OA
ATOM     12  H   UNL     1      41.918   3.825  11.315  0.00  0.00    +0.000 HD
ATOM     13  H   UNL     1      43.023   5.190  11.201  0.00  0.00    +0.000 HD
ENDBRANCH   3  10
ENDBRANCH   2   6
ENDBRANCH   1   2
BRANCH   1  14
ATOM     14  C   UNL     1      49.751   6.933  15.507  0.00  0.00    +0.000 C 
BRANCH  14  15
ATOM     15  C   UNL     1      49.549   5.981  16.661  0.00  0.00    +0.000 A 
ATOM     16  C   UNL     1      48.267   5.729  17.163  0.00  0.00    +0.000 A 
ATOM     17  C   UNL     1      48.084   4.796  18.187  0.00  0.00    +0.000 A 
ATOM     18  C   UNL     1      49.175   4.106  18.720  0.00  0.00    +0.000 A 
ATOM     19  C   UNL     1      50.454   4.354  18.232  0.00  0.00    +0.000 A 
ATOM     20  C   UNL     1      50.639   5.283  17.202  0.00  0.00    +0.000 A 
BRANCH  19  21
ATOM     21  O   UNL     1      51.591   3.711  18.652  0.00  0.00    +0.000 OA
BRANCH  21  22
ATOM     22  C   UNL     1      52.264   2.808  17.745  0.00  0.00    +0.000 C 
ATOM     23  C   UNL     1      51.574   1.454  17.466  0.00  0.00    +0.000 C 
ATOM     24  C   UNL     1      52.904   0.740  17.738  0.00  0.00    +0.000 C 
ATOM     25  C   UNL     1      53.427   2.023  18.394  0.00  0.00    +0.000 C 
ENDBRANCH  21  22
ENDBRANCH  19  21
ENDBRANCH  14  15
ENDBRANCH   1  14
TORSDOF 7
ENDMDL
