MODEL 1
REMARK VINA RESULT:    -7.536      0.000      0.000
REMARK INTER + INTRA:          -9.573
REMARK INTER:                  -8.858
REMARK INTRA:                  -0.715
REMARK UNBOUND:                -0.715
REMARK  Name = 
REMARK  3 active torsions:
REMARK  status: ('A' for Active; 'I' for Inactive)
REMARK    1  A    between atoms: N_5  and  C_6
REMARK    2  A    between atoms: C_6  and  C_7
REMARK    3  A    between atoms: C_11  and  N_12
REMARK                            x       y       z     vdW  Elec       q    Type
REMARK                         _______ _______ _______ _____ _____    ______ ____
ROOT
ATOM      1  C   UNL     1      45.465   4.276  11.967  0.00  0.00    +0.000 A 
ATOM      2  C   UNL     1      45.963   3.392  12.920  0.00  0.00    +0.000 A 
ATOM      3  N   UNL     1      46.838   3.723  13.894  0.00  0.00    +0.000 NA
ATOM      4  C   UNL     1      47.224   5.023  13.931  0.00  0.00    +0.000 A 
ATOM      5  C   UNL     1      46.832   6.016  13.030  0.00  0.00    +0.000 A 
ATOM      6  C   UNL     1      45.979   5.581  12.014  0.00  0.00    +0.000 A 
ENDROOT
BRANCH   5   7
ATOM      7  N   UNL     1      47.203   7.336  13.159  0.00  0.00    +0.000 N 
ATOM      8  C   UNL     1      46.236   8.441  13.247  0.00  0.00    +0.000 C 
ATOM      9  C   UNL     1      46.432   9.417  12.079  0.00  0.00    +0.000 C 
ATOM     10  O   UNL     1      47.795   9.864  11.983  0.00  0.00    +0.000 OA
ATOM     11  C   UNL     1      48.677   8.742  11.799  0.00  0.00    +0.000 C 
ATOM     12  C   UNL     1      48.598   7.760  12.980  0.00  0.00    +0.000 C 
ENDBRANCH   5   7
BRANCH   1  13
ATOM     13  C   UNL     1      44.360   3.908  10.989  0.00  0.00    +0.000 C 
ATOM     14  C   UNL     1      42.925   3.855  11.517  0.00  0.00    +0.000 C 
ATOM     15  C   UNL     1      43.363   5.020  10.701  0.00  0.00    +0.000 C 
BRANCH  13  20
ATOM     16  C   UNL     1      46.929   2.320   6.673  0.00  0.00    +0.000 A 
ATOM     17  C   UNL     1      46.469   3.600   6.968  0.00  0.00    +0.000 A 
ATOM     18  C   UNL     1      45.747   3.817   8.148  0.00  0.00    +0.000 A 
ATOM     19  C   UNL     1      45.490   2.744   8.987  0.00  0.00    +0.000 A 
ATOM     20  N   UNL     1      44.674   2.784  10.110  0.00  0.00    +0.000 N 
ATOM     21  N   UNL     1      45.948   1.503   8.710  0.00  0.00    +0.000 NA
ATOM     22  C   UNL     1      46.654   1.310   7.580  0.00  0.00    +0.000 A 
ATOM     23  H   UNL     1      44.735   1.860  10.529  0.00  0.00    +0.000 HD
ENDBRANCH  13  20
ENDBRANCH   1  13
TORSDOF 3
ENDMDL
MODEL 2
REMARK VINA RESULT:    -6.467      2.340      6.429
REMARK INTER + INTRA:          -8.316
REMARK INTER:                  -7.666
REMARK INTRA:                  -0.650
REMARK UNBOUND:                -0.715
REMARK  Name = 
REMARK  3 active torsions:
REMARK  status: ('A' for Active; 'I' for Inactive)
REMARK    1  A    between atoms: N_5  and  C_6
REMARK    2  A    between atoms: C_6  and  C_7
REMARK    3  A    between atoms: C_11  and  N_12
REMARK                            x       y       z     vdW  Elec       q    Type
REMARK                         _______ _______ _______ _____ _____    ______ ____
ROOT
ATOM      1  C   UNL     1      45.213   5.111  12.596  0.00  0.00    +0.000 A 
ATOM      2  C   UNL     1      43.899   5.246  13.036  0.00  0.00    +0.000 A 
ATOM      3  N   UNL     1      42.809   4.875  12.330  0.00  0.00    +0.000 NA
ATOM      4  C   UNL     1      43.047   4.316  11.117  0.00  0.00    +0.000 A 
ATOM      5  C   UNL     1      44.303   4.141  10.532  0.00  0.00    +0.000 A 
ATOM      6  C   UNL     1      45.375   4.609  11.295  0.00  0.00    +0.000 A 
ENDROOT
BRANCH   5   7
ATOM      7  N   UNL     1      44.487   3.504   9.326  0.00  0.00    +0.000 N 
ATOM      8  C   UNL     1      44.506   2.039   9.182  0.00  0.00    +0.000 C 
ATOM      9  C   UNL     1      45.861   1.574   8.631  0.00  0.00    +0.000 C 
ATOM     10  O   UNL     1      46.208   2.266   7.420  0.00  0.00    +0.000 OA
ATOM     11  C   UNL     1      46.269   3.684   7.656  0.00  0.00    +0.000 C 
ATOM     12  C   UNL     1      44.915   4.238   8.128  0.00  0.00    +0.000 C 
ENDBRANCH   5   7
BRANCH   1  13
ATOM     13  C   UNL     1      46.418   5.388  13.480  0.00  0.00    +0.000 C 
ATOM     14  C   UNL     1      46.587   4.545  14.745  0.00  0.00    +0.000 C 
ATOM     15  C   UNL     1      47.432   4.256  13.554  0.00  0.00    +0.000 C 
BRANCH  13  20
ATOM     16  C   UNL     1      48.818   9.726  11.700  0.00  0.00    +0.000 A 
ATOM     17  C   UNL     1      49.161   8.401  11.452  0.00  0.00    +0.000 A 
ATOM     18  C   UNL     1      48.434   7.374  12.069  0.00  0.00    +0.000 A 
ATOM     19  C   UNL     1      47.400   7.707  12.930  0.00  0.00    +0.000 A 
ATOM     20  N   UNL     1      46.691   6.804  13.712  0.00  0.00    +0.000 N 
ATOM     21  N   UNL     1      47.057   8.992  13.162  0.00  0.00    +0.000 NA
ATOM     22  C   UNL     1      47.753   9.970  12.551  0.00  0.00    +0.000 A 
ATOM     23  H   UNL     1      45.976   7.352  14.185  0.00  0.00    +0.000 HD
ENDBRANCH  13  20
ENDBRANCH   1  13
TORSDOF 3
ENDMDL
MODEL 3
REMARK VINA RESULT:    -6.241      2.939      7.057
REMARK INTER + INTRA:          -8.050
REMARK INTER:                  -7.885
REMARK INTRA:                  -0.165
REMARK UNBOUND:                -0.715
REMARK  Name = 
REMARK  3 active torsions:
REMARK  status: ('A' for Active; 'I' for Inactive)
REMARK    1  A    between atoms: N_5  and  C_6
REMARK    2  A    between atoms: C_6  and  C_7
REMARK    3  A    between atoms: C_11  and  N_12
REMARK                            x       y       z     vdW  Elec       q    Type
REMARK                         _______ _______ _______ _____ _____    ______ ____
ROOT
ATOM      1  C   UNL     1      46.607   7.023  12.957  0.00  0.00    +0.000 A 
ATOM      2  C   UNL     1      46.103   8.309  12.776  0.00  0.00    +0.000 A 
ATOM      3  N   UNL     1      45.037   8.617  12.006  0.00  0.00    +0.000 NA
ATOM      4  C   UNL     1      44.423   7.573  11.394  0.00  0.00    +0.000 A 
ATOM      5  C   UNL     1      44.827   6.238  11.458  0.00  0.00    +0.000 A 
ATOM      6  C   UNL     1      45.975   6.009  12.220  0.00  0.00    +0.000 A 
ENDROOT
BRANCH   5   7
ATOM      7  N   UNL     1      44.123   5.211  10.871  0.00  0.00    +0.000 N 
ATOM      8  C   UNL     1      42.987   4.537  11.520  0.00  0.00    +0.000 C 
ATOM      9  C   UNL     1      43.289   3.044  11.708  0.00  0.00    +0.000 C 
ATOM     10  O   UNL     1      43.685   2.423  10.473  0.00  0.00    +0.000 OA
ATOM     11  C   UNL     1      44.859   3.067   9.945  0.00  0.00    +0.000 C 
ATOM     12  C   UNL     1      44.603   4.554   9.648  0.00  0.00    +0.000 C 
ENDBRANCH   5   7
BRANCH   1  13
ATOM     13  C   UNL     1      47.704   6.694  13.956  0.00  0.00    +0.000 C 
ATOM     14  C   UNL     1      49.142   7.064  13.588  0.00  0.00    +0.000 C 
ATOM     15  C   UNL     1      48.398   7.902  14.567  0.00  0.00    +0.000 C 
BRANCH  13  20
ATOM     16  C   UNL     1      48.086   3.848  18.373  0.00  0.00    +0.000 A 
ATOM     17  C   UNL     1      48.713   5.055  18.080  0.00  0.00    +0.000 A 
ATOM     18  C   UNL     1      48.537   5.635  16.817  0.00  0.00    +0.000 A 
ATOM     19  C   UNL     1      47.753   4.980  15.881  0.00  0.00    +0.000 A 
ATOM     20  N   UNL     1      47.604   5.365  14.554  0.00  0.00    +0.000 N 
ATOM     21  N   UNL     1      47.131   3.816  16.167  0.00  0.00    +0.000 NA
ATOM     22  C   UNL     1      47.297   3.275  17.389  0.00  0.00    +0.000 A 
ATOM     23  H   UNL     1      46.933   4.715  14.152  0.00  0.00    +0.000 HD
ENDBRANCH  13  20
ENDBRANCH   1  13
TORSDOF 3
ENDMDL
MODEL 4
REMARK VINA RESULT:    -6.049      3.212      7.195
REMARK INTER + INTRA:          -7.824
REMARK INTER:                  -6.992
REMARK INTRA:                  -0.832
REMARK UNBOUND:                -0.715
REMARK  Name = 
REMARK  3 active torsions:
REMARK  status: ('A' for Active; 'I' for Inactive)
REMARK    1  A    between atoms: N_5  and  C_6
REMARK    2  A    between atoms: C_6  and  C_7
REMARK    3  A    between atoms: C_11  and  N_12
REMARK                            x       y       z     vdW  Elec       q    Type
REMARK                         _______ _______ _______ _____ _____    ______ ____
ROOT
ATOM      1  C   UNL     1      47.437   7.894  12.156  0.00  0.00    +0.000 A 
ATOM      2  C   UNL     1      46.732   9.094  12.143  0.00  0.00    +0.000 A 
ATOM      3  N   UNL     1      45.399   9.201  11.951  0.00  0.00    +0.000 NA
ATOM      4  C   UNL     1      44.726   8.035  11.782  0.00  0.00    +0.000 A 
ATOM      5  C   UNL     1      45.298   6.761  11.744  0.00  0.00    +0.000 A 
ATOM      6  C   UNL     1      46.687   6.739  11.884  0.00  0.00    +0.000 A 
ENDROOT
BRANCH   5   7
ATOM      7  N   UNL     1      44.555   5.608  11.638  0.00  0.00    +0.000 N 
ATOM      8  C   UNL     1      43.235   5.438  12.267  0.00  0.00    +0.000 C 
ATOM      9  C   UNL     1      43.267   4.277  13.270  0.00  0.00    +0.000 C 
ATOM     10  O   UNL     1      43.767   3.070  12.671  0.00  0.00    +0.000 OA
ATOM     11  C   UNL     1      45.098   3.279  12.166  0.00  0.00    +0.000 C 
ATOM     12  C   UNL     1      45.129   4.374  11.086  0.00  0.00    +0.000 C 
ENDBRANCH   5   7
BRANCH   1  13
ATOM     13  C   UNL     1      48.907   7.798  12.536  0.00  0.00    +0.000 C 
ATOM     14  C   UNL     1      49.933   7.704  11.406  0.00  0.00    +0.000 C 
ATOM     15  C   UNL     1      49.753   8.994  12.126  0.00  0.00    +0.000 C 
BRANCH  13  20
ATOM     16  C   UNL     1      48.652   6.964  17.731  0.00  0.00    +0.000 A 
ATOM     17  C   UNL     1      48.701   8.185  17.065  0.00  0.00    +0.000 A 
ATOM     18  C   UNL     1      48.830   8.205  15.671  0.00  0.00    +0.000 A 
ATOM     19  C   UNL     1      48.925   7.003  14.987  0.00  0.00    +0.000 A 
ATOM     20  N   UNL     1      49.194   6.875  13.631  0.00  0.00    +0.000 N 
ATOM     21  N   UNL     1      48.863   5.817  15.629  0.00  0.00    +0.000 NA
ATOM     22  C   UNL     1      48.724   5.810  16.968  0.00  0.00    +0.000 A 
ATOM     23  H   UNL     1      49.147   5.879  13.433  0.00  0.00    +0.000 HD
ENDBRANCH  13  20
ENDBRANCH   1  13
TORSDOF 3
ENDMDL
MODEL 5
REMARK VINA RESULT:    -5.869      4.056      7.497
REMARK INTER + INTRA:          -7.614
REMARK INTER:                  -7.160
REMARK INTRA:                  -0.453
REMARK UNBOUND:                -0.715
REMARK  Name = 
REMARK  3 active torsions:
REMARK  status: ('A' for Active; 'I' for Inactive)
REMARK    1  A    between atoms: N_5  and  C_6
REMARK    2  A    between atoms: C_6  and  C_7
REMARK    3  A    between atoms: C_11  and  N_12
REMARK                            x       y       z     vdW  Elec       q    Type
REMARK                         _______ _______ _______ _____ _____    ______ ____
ROOT
ATOM      1  C   UNL     1      47.948   5.229  15.468  0.00  0.00    +0.000 A 
ATOM      2  C   UNL     1      48.523   6.470  15.208  0.00  0.00    +0.000 A 
ATOM      3  N   UNL     1      48.299   7.205  14.097  0.00  0.00    +0.000 NA
ATOM      4  C   UNL     1      47.432   6.676  13.199  0.00  0.00    +0.000 A 
ATOM      5  C   UNL     1      46.800   5.435  13.308  0.00  0.00    +0.000 A 
ATOM      6  C   UNL     1      47.133   4.707  14.451  0.00  0.00    +0.000 A 
ENDROOT
BRANCH   5   7
ATOM      7  N   UNL     1      45.875   4.981  12.395  0.00  0.00    +0.000 N 
ATOM      8  C   UNL     1      45.264   5.842  11.370  0.00  0.00    +0.000 C 
ATOM      9  C   UNL     1      43.741   5.900  11.559  0.00  0.00    +0.000 C 
ATOM     10  O   UNL     1      43.162   4.585  11.613  0.00  0.00    +0.000 OA
ATOM     11  C   UNL     1      43.733   3.832  12.698  0.00  0.00    +0.000 C 
ATOM     12  C   UNL     1      45.252   3.658  12.529  0.00  0.00    +0.000 C 
ENDBRANCH   5   7
BRANCH   1  13
ATOM     13  C   UNL     1      48.096   4.507  16.798  0.00  0.00    +0.000 C 
ATOM     14  C   UNL     1      46.976   4.668  17.828  0.00  0.00    +0.000 C 
ATOM     15  C   UNL     1      47.075   3.406  17.045  0.00  0.00    +0.000 C 
BRANCH  13  20
ATOM     16  C   UNL     1      52.654   2.036  17.727  0.00  0.00    +0.000 A 
ATOM     17  C   UNL     1      51.402   1.465  17.517  0.00  0.00    +0.000 A 
ATOM     18  C   UNL     1      50.286   2.294  17.346  0.00  0.00    +0.000 A 
ATOM     19  C   UNL     1      50.454   3.668  17.410  0.00  0.00    +0.000 A 
ATOM     20  N   UNL     1      49.424   4.600  17.397  0.00  0.00    +0.000 N 
ATOM     21  N   UNL     1      51.670   4.225  17.600  0.00  0.00    +0.000 NA
ATOM     22  C   UNL     1      52.737   3.418  17.748  0.00  0.00    +0.000 A 
ATOM     23  H   UNL     1      49.876   5.511  17.406  0.00  0.00    +0.000 HD
ENDBRANCH  13  20
ENDBRANCH   1  13
TORSDOF 3
ENDMDL
MODEL 6
REMARK VINA RESULT:    -5.707      3.168      6.861
REMARK INTER + INTRA:          -7.423
REMARK INTER:                  -7.175
REMARK INTRA:                  -0.248
REMARK UNBOUND:                -0.715
REMARK  Name = 
REMARK  3 active torsions:
REMARK  status: ('A' for Active; 'I' for Inactive)
REMARK    1  A    between atoms: N_5  and  C_6
REMARK    2  A    between atoms: C_6  and  C_7
REMARK    3  A    between atoms: C_11  and  N_12
REMARK                            x       y       z     vdW  Elec       q    Type
REMARK                         _______ _______ _______ _____ _____    ______ ____
ROOT
ATOM      1  C   UNL     1      46.572   8.078  12.704  0.00  0.00    +0.000 A 
ATOM      2  C   UNL     1      47.635   7.354  13.238  0.00  0.00    +0.000 A 
ATOM      3  N   UNL     1      47.640   6.016  13.419  0.00  0.00    +0.000 NA
ATOM      4  C   UNL     1      46.521   5.357  13.025  0.00  0.00    +0.000 A 
ATOM      5  C   UNL     1      45.369   5.948  12.500  0.00  0.00    +0.000 A 
ATOM      6  C   UNL     1      45.417   7.339  12.404  0.00  0.00    +0.000 A 
ENDROOT
BRANCH   5   7
ATOM      7  N   UNL     1      44.290   5.219  12.053  0.00  0.00    +0.000 N 
ATOM      8  C   UNL     1      43.492   4.343  12.924  0.00  0.00    +0.000 C 
ATOM      9  C   UNL     1      43.556   2.892  12.426  0.00  0.00    +0.000 C 
ATOM     10  O   UNL     1      43.196   2.791  11.038  0.00  0.00    +0.000 OA
ATOM     11  C   UNL     1      44.078   3.593  10.233  0.00  0.00    +0.000 C 
ATOM     12  C   UNL     1      44.000   5.080  10.620  0.00  0.00    +0.000 C 
ENDBRANCH   5   7
BRANCH   1  13
ATOM     13  C   UNL     1      46.662   9.557  12.364  0.00  0.00    +0.000 C 
ATOM     14  C   UNL     1      47.852  10.347  12.912  0.00  0.00    +0.000 C 
ATOM     15  C   UNL     1      47.841   9.941  11.480  0.00  0.00    +0.000 C 
BRANCH  13  20
ATOM     16  C   UNL     1      42.262  11.113   9.922  0.00  0.00    +0.000 A 
ATOM     17  C   UNL     1      43.491  10.807   9.348  0.00  0.00    +0.000 A 
ATOM     18  C   UNL     1      44.572  10.468  10.173  0.00  0.00    +0.000 A 
ATOM     19  C   UNL     1      44.393  10.466  11.547  0.00  0.00    +0.000 A 
ATOM     20  N   UNL     1      45.404  10.288  12.484  0.00  0.00    +0.000 N 
ATOM     21  N   UNL     1      43.197  10.750  12.107  0.00  0.00    +0.000 NA
ATOM     22  C   UNL     1      42.162  11.059  11.303  0.00  0.00    +0.000 A 
ATOM     23  H   UNL     1      44.942  10.289  13.390  0.00  0.00    +0.000 HD
ENDBRANCH  13  20
ENDBRANCH   1  13
TORSDOF 3
ENDMDL
MODEL 7
REMARK VINA RESULT:    -5.596      3.104      6.532
REMARK INTER + INTRA:          -7.292
REMARK INTER:                  -6.847
REMARK INTRA:                  -0.445
REMARK UNBOUND:                -0.715
REMARK  Name = 
REMARK  3 active torsions:
REMARK  status: ('A' for Active; 'I' for Inactive)
REMARK    1  A    between atoms: N_5  and  C_6
REMARK    2  A    between atoms: C_6  and  C_7
REMARK    3  A    between atoms: C_11  and  N_12
REMARK                            x       y       z     vdW  Elec       q    Type
REMARK                         _______ _______ _______ _____ _____    ______ ____
ROOT
ATOM      1  C   UNL     1      47.832   7.219  13.019  0.00  0.00    +0.000 A 
ATOM      2  C   UNL     1      48.215   6.611  14.212  0.00  0.00    +0.000 A 
ATOM      3  N   UNL     1      47.742   5.427  14.659  0.00  0.00    +0.000 NA
ATOM      4  C   UNL     1      46.845   4.802  13.855  0.00  0.00    +0.000 A 
ATOM      5  C   UNL     1      46.347   5.299  12.648  0.00  0.00    +0.000 A 
ATOM      6  C   UNL     1      46.834   6.556  12.287  0.00  0.00    +0.000 A 
ENDROOT
BRANCH   5   7
ATOM      7  N   UNL     1      45.489   4.587  11.841  0.00  0.00    +0.000 N 
ATOM      8  C   UNL     1      44.699   5.202  10.763  0.00  0.00    +0.000 C 
ATOM      9  C   UNL     1      43.199   5.013  11.026  0.00  0.00    +0.000 C 
ATOM     10  O   UNL     1      42.869   3.632  11.252  0.00  0.00    +0.000 OA
ATOM     11  C   UNL     1      43.602   3.122  12.380  0.00  0.00    +0.000 C 
ATOM     12  C   UNL     1      45.121   3.199  12.150  0.00  0.00    +0.000 C 
ENDBRANCH   5   7
BRANCH   1  13
ATOM     13  C   UNL     1      48.503   8.468  12.470  0.00  0.00    +0.000 C 
ATOM     14  C   UNL     1      47.626   9.691  12.197  0.00  0.00    +0.000 C 
ATOM     15  C   UNL     1      48.491   9.666  13.408  0.00  0.00    +0.000 C 
BRANCH  13  20
ATOM     16  C   UNL     1      53.578   7.785  11.233  0.00  0.00    +0.000 A 
ATOM     17  C   UNL     1      53.052   8.472  12.322  0.00  0.00    +0.000 A 
ATOM     18  C   UNL     1      51.663   8.600  12.451  0.00  0.00    +0.000 A 
ATOM     19  C   UNL     1      50.844   8.053  11.476  0.00  0.00    +0.000 A 
ATOM     20  N   UNL     1      49.467   8.221  11.401  0.00  0.00    +0.000 N 
ATOM     21  N   UNL     1      51.352   7.373  10.424  0.00  0.00    +0.000 NA
ATOM     22  C   UNL     1      52.688   7.244  10.319  0.00  0.00    +0.000 A 
ATOM     23  H   UNL     1      49.163   7.658  10.611  0.00  0.00    +0.000 HD
ENDBRANCH  13  20
ENDBRANCH   1  13
TORSDOF 3
ENDMDL
MODEL 8
REMARK VINA RESULT:    -5.591      2.954      7.268
REMARK INTER + INTRA:          -7.287
REMARK INTER:                  -7.188
REMARK INTRA:                  -0.099
REMARK UNBOUND:                -0.715
REMARK  Name = 
REMARK  3 active torsions:
REMARK  status: ('A' for Active; 'I' for Inactive)
REMARK    1  A    between atoms: N_5  and  C_6
REMARK    2  A    between atoms: C_6  and  C_7
REMARK    3  A    between atoms: C_11  and  N_12
REMARK                            x       y       z     vdW  Elec       q    Type
REMARK                         _______ _______ _______ _____ _____    ______ ____
ROOT
ATOM      1  C   UNL     1      47.146   6.078  12.981  0.00  0.00    +0.000 A 
ATOM      2  C   UNL     1      46.990   5.151  14.008  0.00  0.00    +0.000 A 
ATOM      3  N   UNL     1      46.206   4.052  13.940  0.00  0.00    +0.000 NA
ATOM      4  C   UNL     1      45.554   3.858  12.766  0.00  0.00    +0.000 A 
ATOM      5  C   UNL     1      45.591   4.712  11.661  0.00  0.00    +0.000 A 
ATOM      6  C   UNL     1      46.370   5.858  11.833  0.00  0.00    +0.000 A 
ENDROOT
BRANCH   5   7
ATOM      7  N   UNL     1      44.961   4.427  10.471  0.00  0.00    +0.000 N 
ATOM      8  C   UNL     1      44.001   3.323  10.311  0.00  0.00    +0.000 C 
ATOM      9  C   UNL     1      44.509   2.320   9.267  0.00  0.00    +0.000 C 
ATOM     10  O   UNL     1      44.841   2.966   8.026  0.00  0.00    +0.000 OA
ATOM     11  C   UNL     1      45.856   3.963   8.238  0.00  0.00    +0.000 C 
ATOM     12  C   UNL     1      45.381   5.055   9.212  0.00  0.00    +0.000 C 
ENDBRANCH   5   7
BRANCH   1  13
ATOM     13  C   UNL     1      48.159   7.211  13.033  0.00  0.00    +0.000 C 
ATOM     14  C   UNL     1      48.595   7.842  11.710  0.00  0.00    +0.000 C 
ATOM     15  C   UNL     1      47.630   8.565  12.582  0.00  0.00    +0.000 C 
BRANCH  13  20
ATOM     16  C   UNL     1      49.993   7.774  17.939  0.00  0.00    +0.000 A 
ATOM     17  C   UNL     1      49.025   8.540  17.298  0.00  0.00    +0.000 A 
ATOM     18  C   UNL     1      48.710   8.275  15.960  0.00  0.00    +0.000 A 
ATOM     19  C   UNL     1      49.389   7.264  15.297  0.00  0.00    +0.000 A 
ATOM     20  N   UNL     1      49.280   6.985  13.941  0.00  0.00    +0.000 N 
ATOM     21  N   UNL     1      50.320   6.510  15.921  0.00  0.00    +0.000 NA
ATOM     22  C   UNL     1      50.603   6.764  17.212  0.00  0.00    +0.000 A 
ATOM     23  H   UNL     1      49.859   6.164  13.782  0.00  0.00    +0.000 HD
ENDBRANCH  13  20
ENDBRANCH   1  13
TORSDOF 3
ENDMDL
MODEL 9
REMARK VINA RESULT:    -5.528      2.413      3.294
REMARK INTER + INTRA:          -7.212
REMARK INTER:                  -7.081
REMARK INTRA:                  -0.131
REMARK UNBOUND:                -0.715
REMARK  Name = 
REMARK  3 active torsions:
REMARK  status: ('A' for Active; 'I' for Inactive)
REMARK    1  A    between atoms: N_5  and  C_6
REMARK    2  A    between atoms: C_6  and  C_7
REMARK    3  A    between atoms: C_11  and  N_12
REMARK                            x       y       z     vdW  Elec       q    Type
REMARK                         _______ _______ _______ _____ _____    ______ ____
ROOT
ATOM      1  C   UNL     1      46.797   5.544  13.709  0.00  0.00    +0.000 A 
ATOM      2  C   UNL     1      46.529   4.391  14.442  0.00  0.00    +0.000 A 
ATOM      3  N   UNL     1      47.129   4.064  15.608  0.00  0.00    +0.000 NA
ATOM      4  C   UNL     1      48.038   4.954  16.080  0.00  0.00    +0.000 A 
ATOM      5  C   UNL     1      48.430   6.134  15.445  0.00  0.00    +0.000 A 
ATOM      6  C   UNL     1      47.814   6.369  14.214  0.00  0.00    +0.000 A 
ENDROOT
BRANCH   5   7
ATOM      7  N   UNL     1      49.308   7.033  16.007  0.00  0.00    +0.000 N 
ATOM      8  C   UNL     1      48.911   8.377  16.454  0.00  0.00    +0.000 C 
ATOM      9  C   UNL     1      49.687   9.450  15.678  0.00  0.00    +0.000 C 
ATOM     10  O   UNL     1      51.107   9.229  15.742  0.00  0.00    +0.000 OA
ATOM     11  C   UNL     1      51.435   7.938  15.197  0.00  0.00    +0.000 C 
ATOM     12  C   UNL     1      50.759   6.803  15.984  0.00  0.00    +0.000 C 
ENDBRANCH   5   7
BRANCH   1  13
ATOM     13  C   UNL     1      45.990   5.959  12.489  0.00  0.00    +0.000 C 
ATOM     14  C   UNL     1      45.309   7.328  12.513  0.00  0.00    +0.000 C 
ATOM     15  C   UNL     1      46.554   7.144  11.720  0.00  0.00    +0.000 C 
BRANCH  13  20
ATOM     16  C   UNL     1      44.823   2.989   8.298  0.00  0.00    +0.000 A 
ATOM     17  C   UNL     1      45.431   4.239   8.313  0.00  0.00    +0.000 A 
ATOM     18  C   UNL     1      45.605   4.908   9.531  0.00  0.00    +0.000 A 
ATOM     19  C   UNL     1      45.146   4.311  10.696  0.00  0.00    +0.000 A 
ATOM     20  N   UNL     1      45.125   4.914  11.947  0.00  0.00    +0.000 N 
ATOM     21  N   UNL     1      44.567   3.091  10.686  0.00  0.00    +0.000 NA
ATOM     22  C   UNL     1      44.420   2.452   9.510  0.00  0.00    +0.000 A 
ATOM     23  H   UNL     1      44.782   4.204  12.589  0.00  0.00    +0.000 HD
ENDBRANCH  13  20
ENDBRANCH   1  13
TORSDOF 3
ENDMDL
