MODEL 1
REMARK VINA RESULT:    -8.194      0.000      0.000
REMARK INTER + INTRA:         -11.631
REMARK INTER:                 -10.589
REMARK INTRA:                  -1.042
REMARK UNBOUND:                -1.042
REMARK  Name = 
REMARK  6 active torsions:
REMARK  status: ('A' for Active; 'I' for Inactive)
REMARK    1  A    between atoms: C_1  and  C_2
REMARK    2  A    between atoms: C_6  and  C_7
REMARK    3  A    between atoms: C_7  and  C_8
REMARK    4  A    between atoms: C_11  and  C_12
REMARK    5  A    between atoms: C_12  and  N_13
REMARK    6  A    between atoms: C_14  and  C_16
REMARK                            x       y       z     vdW  Elec       q    Type
REMARK                         _______ _______ _______ _____ _____    ______ ____
ROOT
ATOM      1  C   UNL     1      46.743   8.020  13.259  0.00  0.00    +0.000 C 
ENDROOT
BRANCH   1   5
ATOM      2  C   UNL     1      44.734   5.278  10.578  0.00  0.00    +0.000 A 
ATOM      3  C   UNL     1      44.130   5.667  11.780  0.00  0.00    +0.000 A 
ATOM      4  C   UNL     1      44.787   6.534  12.660  0.00  0.00    +0.000 A 
ATOM      5  C   UNL     1      46.055   7.037  12.348  0.00  0.00    +0.000 A 
ATOM      6  C   UNL     1      46.682   6.604  11.174  0.00  0.00    +0.000 A 
ATOM      7  C   UNL     1      46.026   5.739  10.293  0.00  0.00    +0.000 A 
BRANCH   2   8
ATOM      8  C   UNL     1      43.996   4.401   9.593  0.00  0.00    +0.000 C 
BRANCH   8  14
ATOM      9  C   UNL     1      46.990   3.127   5.718  0.00  0.00    +0.000 C 
ATOM     10  C   UNL     1      46.313   2.800   7.012  0.00  0.00    +0.000 A 
ATOM     11  C   UNL     1      46.416   1.540   7.586  0.00  0.00    +0.000 A 
ATOM     12  N   UNL     1      45.813   1.181   8.739  0.00  0.00    +0.000 NA
ATOM     13  C   UNL     1      45.064   2.125   9.351  0.00  0.00    +0.000 A 
ATOM     14  C   UNL     1      44.875   3.416   8.866  0.00  0.00    +0.000 A 
ATOM     15  C   UNL     1      45.532   3.751   7.677  0.00  0.00    +0.000 A 
ENDBRANCH   8  14
ENDBRANCH   2   8
ENDBRANCH   1   5
BRANCH   1  16
ATOM     16  N   UNL     1      47.254   7.382  14.443  0.00  0.00    +0.000 N 
ATOM     17  C   UNL     1      48.514   6.838  14.462  0.00  0.00    +0.000 C 
ATOM     18  O   UNL     1      49.273   6.921  13.501  0.00  0.00    +0.000 OA
ATOM     19  H   UNL     1      46.576   7.100  15.141  0.00  0.00    +0.000 HD
BRANCH  17  20
ATOM     20  C   UNL     1      48.937   6.209  15.719  0.00  0.00    +0.000 A 
ATOM     21  C   UNL     1      50.027   6.722  16.411  0.00  0.00    +0.000 A 
ATOM     22  S   UNL     1      50.348   5.913  17.878  0.00  0.00    +0.000 S 
ATOM     23  C   UNL     1      49.074   4.816  17.614  0.00  0.00    +0.000 A 
ATOM     24  N   UNL     1      48.814   3.820  18.503  0.00  0.00    +0.000 NA
ATOM     25  C   UNL     1      47.847   3.040  18.160  0.00  0.00    +0.000 A 
ATOM     26  N   UNL     1      47.113   3.162  17.010  0.00  0.00    +0.000 N 
ATOM     27  C   UNL     1      47.317   4.169  16.098  0.00  0.00    +0.000 A 
ATOM     28  O   UNL     1      46.616   4.277  15.097  0.00  0.00    +0.000 OA
ATOM     29  C   UNL     1      48.406   5.070  16.430  0.00  0.00    +0.000 A 
ATOM     30  H   UNL     1      46.362   2.520  16.802  0.00  0.00    +0.000 HD
ENDBRANCH  17  20
ENDBRANCH   1  16
TORSDOF 5
ENDMDL
MODEL 2
REMARK VINA RESULT:    -7.695      1.851      2.353
REMARK INTER + INTRA:         -10.986
REMARK INTER:                 -10.134
REMARK INTRA:                  -0.852
REMARK UNBOUND:                -1.042
REMARK  Name = 
REMARK  6 active torsions:
REMARK  status: ('A' for Active; 'I' for Inactive)
REMARK    1  A    between atoms: C_1  and  C_2
REMARK    2  A    between atoms: C_6  and  C_7
REMARK    3  A    between atoms: C_7  and  C_8
REMARK    4  A    between atoms: C_11  and  C_12
REMARK    5  A    between atoms: C_12  and  N_13
REMARK    6  A    between atoms: C_14  and  C_16
REMARK                            x       y       z     vdW  Elec       q    Type
REMARK                         _______ _______ _______ _____ _____    ______ ____
ROOT
ATOM      1  C   UNL     1      47.266   6.734  13.442  0.00  0.00    +0.000 C 
ENDROOT
BRANCH   1   5
ATOM      2  C   UNL     1      45.008   4.509  10.493  0.00  0.00    +0.000 A 
ATOM      3  C   UNL     1      45.595   5.737  10.160  0.00  0.00    +0.000 A 
ATOM      4  C   UNL     1      46.304   6.470  11.118  0.00  0.00    +0.000 A 
ATOM      5  C   UNL     1      46.451   5.983  12.422  0.00  0.00    +0.000 A 
ATOM      6  C   UNL     1      45.817   4.783  12.769  0.00  0.00    +0.000 A 
ATOM      7  C   UNL     1      45.109   4.049  11.812  0.00  0.00    +0.000 A 
BRANCH   2   8
ATOM      8  C   UNL     1      44.305   3.681   9.442  0.00  0.00    +0.000 C 
BRANCH   8  14
ATOM      9  C   UNL     1      47.252   3.183   5.359  0.00  0.00    +0.000 C 
ATOM     10  C   UNL     1      46.651   2.634   6.614  0.00  0.00    +0.000 A 
ATOM     11  C   UNL     1      46.875   1.322   7.012  0.00  0.00    +0.000 A 
ATOM     12  N   UNL     1      46.345   0.766   8.122  0.00  0.00    +0.000 NA
ATOM     13  C   UNL     1      45.544   1.555   8.872  0.00  0.00    +0.000 A 
ATOM     14  C   UNL     1      45.235   2.877   8.568  0.00  0.00    +0.000 A 
ATOM     15  C   UNL     1      45.820   3.420   7.419  0.00  0.00    +0.000 A 
ENDBRANCH   8  14
ENDBRANCH   2   8
ENDBRANCH   1   5
BRANCH   1  16
ATOM     16  N   UNL     1      47.315   6.039  14.701  0.00  0.00    +0.000 N 
ATOM     17  C   UNL     1      48.473   5.994  15.435  0.00  0.00    +0.000 C 
ATOM     18  O   UNL     1      49.491   6.584  15.084  0.00  0.00    +0.000 OA
ATOM     19  H   UNL     1      46.580   5.367  14.883  0.00  0.00    +0.000 HD
BRANCH  17  20
ATOM     20  C   UNL     1      48.415   5.257  16.704  0.00  0.00    +0.000 A 
ATOM     21  C   UNL     1      48.357   3.870  16.690  0.00  0.00    +0.000 A 
ATOM     22  S   UNL     1      48.354   3.170  18.245  0.00  0.00    +0.000 S 
ATOM     23  C   UNL     1      48.376   4.698  18.993  0.00  0.00    +0.000 A 
ATOM     24  N   UNL     1      48.357   4.815  20.348  0.00  0.00    +0.000 NA
ATOM     25  C   UNL     1      48.340   6.030  20.777  0.00  0.00    +0.000 A 
ATOM     26  N   UNL     1      48.340   7.142  19.978  0.00  0.00    +0.000 N 
ATOM     27  C   UNL     1      48.390   7.077  18.607  0.00  0.00    +0.000 A 
ATOM     28  O   UNL     1      48.430   8.091  17.919  0.00  0.00    +0.000 OA
ATOM     29  C   UNL     1      48.399   5.728  18.069  0.00  0.00    +0.000 A 
ATOM     30  H   UNL     1      48.331   8.069  20.377  0.00  0.00    +0.000 HD
ENDBRANCH  17  20
ENDBRANCH   1  16
TORSDOF 5
ENDMDL
MODEL 3
REMARK VINA RESULT:    -7.455      2.863      4.626
REMARK INTER + INTRA:         -10.677
REMARK INTER:                 -10.113
REMARK INTRA:                  -0.564
REMARK UNBOUND:                -1.042
REMARK  Name = 
REMARK  6 active torsions:
REMARK  status: ('A' for Active; 'I' for Inactive)
REMARK    1  A    between atoms: C_1  and  C_2
REMARK    2  A    between atoms: C_6  and  C_7
REMARK    3  A    between atoms: C_7  and  C_8
REMARK    4  A    between atoms: C_11  and  C_12
REMARK    5  A    between atoms: C_12  and  N_13
REMARK    6  A    between atoms: C_14  and  C_16
REMARK                            x       y       z     vdW  Elec       q    Type
REMARK                         _______ _______ _______ _____ _____    ______ ____
ROOT
ATOM      1  C   UNL     1      46.134   5.593  13.690  0.00  0.00    +0.000 C 
ENDROOT
BRANCH   1   5
ATOM      2  C   UNL     1      44.862   4.273   9.768  0.00  0.00    +0.000 A 
ATOM      3  C   UNL     1      45.621   5.441   9.913  0.00  0.00    +0.000 A 
ATOM      4  C   UNL     1      46.012   5.884  11.181  0.00  0.00    +0.000 A 
ATOM      5  C   UNL     1      45.663   5.159  12.327  0.00  0.00    +0.000 A 
ATOM      6  C   UNL     1      44.858   4.022  12.186  0.00  0.00    +0.000 A 
ATOM      7  C   UNL     1      44.468   3.578  10.919  0.00  0.00    +0.000 A 
BRANCH   2   8
ATOM      8  C   UNL     1      44.502   3.754   8.395  0.00  0.00    +0.000 C 
BRANCH   8  14
ATOM      9  C   UNL     1      47.816   2.327   4.849  0.00  0.00    +0.000 C 
ATOM     10  C   UNL     1      47.087   2.084   6.132  0.00  0.00    +0.000 A 
ATOM     11  C   UNL     1      47.247   0.902   6.844  0.00  0.00    +0.000 A 
ATOM     12  N   UNL     1      46.602   0.618   7.996  0.00  0.00    +0.000 NA
ATOM     13  C   UNL     1      45.748   1.557   8.460  0.00  0.00    +0.000 A 
ATOM     14  C   UNL     1      45.496   2.771   7.828  0.00  0.00    +0.000 A 
ATOM     15  C   UNL     1      46.198   3.033   6.647  0.00  0.00    +0.000 A 
ENDBRANCH   8  14
ENDBRANCH   2   8
ENDBRANCH   1   5
BRANCH   1  16
ATOM     16  N   UNL     1      46.706   6.913  13.661  0.00  0.00    +0.000 N 
ATOM     17  C   UNL     1      48.045   7.096  13.424  0.00  0.00    +0.000 C 
ATOM     18  O   UNL     1      48.795   6.158  13.173  0.00  0.00    +0.000 OA
ATOM     19  H   UNL     1      46.167   7.656  14.091  0.00  0.00    +0.000 HD
BRANCH  17  20
ATOM     20  C   UNL     1      48.525   8.483  13.417  0.00  0.00    +0.000 A 
ATOM     21  C   UNL     1      49.773   8.781  13.949  0.00  0.00    +0.000 A 
ATOM     22  S   UNL     1      50.202  10.425  13.809  0.00  0.00    +0.000 S 
ATOM     23  C   UNL     1      48.712  10.808  13.082  0.00  0.00    +0.000 A 
ATOM     24  N   UNL     1      48.415  12.087  12.727  0.00  0.00    +0.000 NA
ATOM     25  C   UNL     1      47.239  12.240  12.221  0.00  0.00    +0.000 A 
ATOM     26  N   UNL     1      46.330  11.232  12.036  0.00  0.00    +0.000 N 
ATOM     27  C   UNL     1      46.594   9.921  12.350  0.00  0.00    +0.000 A 
ATOM     28  O   UNL     1      45.775   9.034  12.135  0.00  0.00    +0.000 OA
ATOM     29  C   UNL     1      47.903   9.695  12.936  0.00  0.00    +0.000 A 
ATOM     30  H   UNL     1      45.425  11.416  11.629  0.00  0.00    +0.000 HD
ENDBRANCH  17  20
ENDBRANCH   1  16
TORSDOF 5
ENDMDL
MODEL 4
REMARK VINA RESULT:    -7.267      1.719      2.009
REMARK INTER + INTRA:         -10.434
REMARK INTER:                  -9.489
REMARK INTRA:                  -0.945
REMARK UNBOUND:                -1.042
REMARK  Name = 
REMARK  6 active torsions:
REMARK  status: ('A' for Active; 'I' for Inactive)
REMARK    1  A    between atoms: C_1  and  C_2
REMARK    2  A    between atoms: C_6  and  C_7
REMARK    3  A    between atoms: C_7  and  C_8
REMARK    4  A    between atoms: C_11  and  C_12
REMARK    5  A    between atoms: C_12  and  N_13
REMARK    6  A    between atoms: C_14  and  C_16
REMARK                            x       y       z     vdW  Elec       q    Type
REMARK                         _______ _______ _______ _____ _____    ______ ____
ROOT
ATOM      1  C   UNL     1      48.154   7.790  13.654  0.00  0.00    +0.000 C 
ENDROOT
BRANCH   1   5
ATOM      2  C   UNL     1      45.016   5.779  11.450  0.00  0.00    +0.000 A 
ATOM      3  C   UNL     1      45.148   7.172  11.389  0.00  0.00    +0.000 A 
ATOM      4  C   UNL     1      46.145   7.827  12.119  0.00  0.00    +0.000 A 
ATOM      5  C   UNL     1      47.038   7.100  12.914  0.00  0.00    +0.000 A 
ATOM      6  C   UNL     1      46.872   5.713  13.020  0.00  0.00    +0.000 A 
ATOM      7  C   UNL     1      45.877   5.057  12.289  0.00  0.00    +0.000 A 
BRANCH   2   8
ATOM      8  C   UNL     1      43.988   5.063  10.605  0.00  0.00    +0.000 C 
BRANCH   8  14
ATOM      9  C   UNL     1      46.752   3.580   6.635  0.00  0.00    +0.000 C 
ATOM     10  C   UNL     1      45.887   3.271   7.816  0.00  0.00    +0.000 A 
ATOM     11  C   UNL     1      45.516   1.968   8.123  0.00  0.00    +0.000 A 
ATOM     12  N   UNL     1      44.723   1.631   9.163  0.00  0.00    +0.000 NA
ATOM     13  C   UNL     1      44.270   2.645   9.933  0.00  0.00    +0.000 A 
ATOM     14  C   UNL     1      44.561   3.988   9.717  0.00  0.00    +0.000 A 
ATOM     15  C   UNL     1      45.400   4.292   8.640  0.00  0.00    +0.000 A 
ENDBRANCH   8  14
ENDBRANCH   2   8
ENDBRANCH   1   5
BRANCH   1  16
ATOM     16  N   UNL     1      48.010   7.658  15.080  0.00  0.00    +0.000 N 
ATOM     17  C   UNL     1      49.065   7.259  15.861  0.00  0.00    +0.000 C 
ATOM     18  O   UNL     1      50.180   7.054  15.393  0.00  0.00    +0.000 OA
ATOM     19  H   UNL     1      47.065   7.592  15.441  0.00  0.00    +0.000 HD
BRANCH  17  20
ATOM     20  C   UNL     1      48.809   7.156  17.303  0.00  0.00    +0.000 A 
ATOM     21  C   UNL     1      48.478   8.295  18.025  0.00  0.00    +0.000 A 
ATOM     22  S   UNL     1      48.156   7.992  19.672  0.00  0.00    +0.000 S 
ATOM     23  C   UNL     1      48.500   6.335  19.490  0.00  0.00    +0.000 A 
ATOM     24  N   UNL     1      48.438   5.487  20.552  0.00  0.00    +0.000 NA
ATOM     25  C   UNL     1      48.759   4.269  20.279  0.00  0.00    +0.000 A 
ATOM     26  N   UNL     1      49.136   3.817  19.042  0.00  0.00    +0.000 N 
ATOM     27  C   UNL     1      49.183   4.627  17.934  0.00  0.00    +0.000 A 
ATOM     28  O   UNL     1      49.486   4.185  16.831  0.00  0.00    +0.000 OA
ATOM     29  C   UNL     1      48.843   6.016  18.188  0.00  0.00    +0.000 A 
ATOM     30  H   UNL     1      49.370   2.847  18.892  0.00  0.00    +0.000 HD
ENDBRANCH  17  20
ENDBRANCH   1  16
TORSDOF 5
ENDMDL
MODEL 5
REMARK VINA RESULT:    -7.214      2.642      3.227
REMARK INTER + INTRA:         -10.365
REMARK INTER:                  -9.289
REMARK INTRA:                  -1.076
REMARK UNBOUND:                -1.042
REMARK  Name = 
REMARK  6 active torsions:
REMARK  status: ('A' for Active; 'I' for Inactive)
REMARK    1  A    between atoms: C_1  and  C_2
REMARK    2  A    between atoms: C_6  and  C_7
REMARK    3  A    between atoms: C_7  and  C_8
REMARK    4  A    between atoms: C_11  and  C_12
REMARK    5  A    between atoms: C_12  and  N_13
REMARK    6  A    between atoms: C_14  and  C_16
REMARK                            x       y       z     vdW  Elec       q    Type
REMARK                         _______ _______ _______ _____ _____    ______ ____
ROOT
ATOM      1  C   UNL     1      48.484   7.082  14.064  0.00  0.00    +0.000 C 
ENDROOT
BRANCH   1   5
ATOM      2  C   UNL     1      45.248   5.635  11.578  0.00  0.00    +0.000 A 
ATOM      3  C   UNL     1      45.762   6.926  11.397  0.00  0.00    +0.000 A 
ATOM      4  C   UNL     1      46.790   7.405  12.215  0.00  0.00    +0.000 A 
ATOM      5  C   UNL     1      47.334   6.598  13.221  0.00  0.00    +0.000 A 
ATOM      6  C   UNL     1      46.783   5.330  13.439  0.00  0.00    +0.000 A 
ATOM      7  C   UNL     1      45.756   4.849  12.621  0.00  0.00    +0.000 A 
BRANCH   2   8
ATOM      8  C   UNL     1      44.189   5.090  10.649  0.00  0.00    +0.000 C 
BRANCH   8  14
ATOM      9  C   UNL     1      46.736   3.545   6.559  0.00  0.00    +0.000 C 
ATOM     10  C   UNL     1      45.902   3.258   7.767  0.00  0.00    +0.000 A 
ATOM     11  C   UNL     1      45.485   1.968   8.071  0.00  0.00    +0.000 A 
ATOM     12  N   UNL     1      44.717   1.650   9.134  0.00  0.00    +0.000 NA
ATOM     13  C   UNL     1      44.337   2.671   9.935  0.00  0.00    +0.000 A 
ATOM     14  C   UNL     1      44.681   4.004   9.725  0.00  0.00    +0.000 A 
ATOM     15  C   UNL     1      45.493   4.287   8.622  0.00  0.00    +0.000 A 
ENDBRANCH   8  14
ENDBRANCH   2   8
ENDBRANCH   1   5
BRANCH   1  16
ATOM     16  N   UNL     1      48.150   7.095  15.464  0.00  0.00    +0.000 N 
ATOM     17  C   UNL     1      49.014   6.581  16.399  0.00  0.00    +0.000 C 
ATOM     18  O   UNL     1      50.120   6.146  16.094  0.00  0.00    +0.000 OA
ATOM     19  H   UNL     1      47.174   7.224  15.701  0.00  0.00    +0.000 HD
BRANCH  17  20
ATOM     20  C   UNL     1      48.574   6.642  17.798  0.00  0.00    +0.000 A 
ATOM     21  C   UNL     1      48.594   5.490  18.575  0.00  0.00    +0.000 A 
ATOM     22  S   UNL     1      48.110   5.746  20.190  0.00  0.00    +0.000 S 
ATOM     23  C   UNL     1      47.805   7.394  19.895  0.00  0.00    +0.000 A 
ATOM     24  N   UNL     1      47.332   8.205  20.879  0.00  0.00    +0.000 NA
ATOM     25  C   UNL     1      47.112   9.419  20.508  0.00  0.00    +0.000 A 
ATOM     26  N   UNL     1      47.322   9.901  19.243  0.00  0.00    +0.000 N 
ATOM     27  C   UNL     1      47.827   9.130  18.224  0.00  0.00    +0.000 A 
ATOM     28  O   UNL     1      48.043   9.600  17.112  0.00  0.00    +0.000 OA
ATOM     29  C   UNL     1      48.082   7.747  18.586  0.00  0.00    +0.000 A 
ATOM     30  H   UNL     1      47.134  10.867  19.016  0.00  0.00    +0.000 HD
ENDBRANCH  17  20
ENDBRANCH   1  16
TORSDOF 5
ENDMDL
MODEL 6
REMARK VINA RESULT:    -6.906      2.464      4.086
REMARK INTER + INTRA:          -9.967
REMARK INTER:                  -8.903
REMARK INTRA:                  -1.064
REMARK UNBOUND:                -1.042
REMARK  Name = 
REMARK  6 active torsions:
REMARK  status: ('A' for Active; 'I' for Inactive)
REMARK    1  A    between atoms: C_1  and  C_2
REMARK    2  A    between atoms: C_6  and  C_7
REMARK    3  A    between atoms: C_7  and  C_8
REMARK    4  A    between atoms: C_11  and  C_12
REMARK    5  A    between atoms: C_12  and  N_13
REMARK    6  A    between atoms: C_14  and  C_16
REMARK                            x       y       z     vdW  Elec       q    Type
REMARK                         _______ _______ _______ _____ _____    ______ ____
ROOT
ATOM      1  C   UNL     1      47.022   5.123  15.294  0.00  0.00    +0.000 C 
ENDROOT
BRANCH   1   5
ATOM      2  C   UNL     1      45.008   3.926  11.653  0.00  0.00    +0.000 A 
ATOM      3  C   UNL     1      45.830   3.024  12.341  0.00  0.00    +0.000 A 
ATOM      4  C   UNL     1      46.502   3.415  13.503  0.00  0.00    +0.000 A 
ATOM      5  C   UNL     1      46.353   4.712  14.008  0.00  0.00    +0.000 A 
ATOM      6  C   UNL     1      45.577   5.630  13.291  0.00  0.00    +0.000 A 
ATOM      7  C   UNL     1      44.904   5.239  12.129  0.00  0.00    +0.000 A 
BRANCH   2   8
ATOM      8  C   UNL     1      44.224   3.483  10.439  0.00  0.00    +0.000 C 
BRANCH   8  14
ATOM      9  C   UNL     1      46.946   0.435   7.455  0.00  0.00    +0.000 C 
ATOM     10  C   UNL     1      46.375   1.779   7.781  0.00  0.00    +0.000 A 
ATOM     11  C   UNL     1      46.646   2.892   6.996  0.00  0.00    +0.000 A 
ATOM     12  N   UNL     1      46.176   4.132   7.250  0.00  0.00    +0.000 NA
ATOM     13  C   UNL     1      45.400   4.273   8.347  0.00  0.00    +0.000 A 
ATOM     14  C   UNL     1      45.071   3.236   9.216  0.00  0.00    +0.000 A 
ATOM     15  C   UNL     1      45.564   1.965   8.906  0.00  0.00    +0.000 A 
ENDBRANCH   8  14
ENDBRANCH   2   8
ENDBRANCH   1   5
BRANCH   1  16
ATOM     16  N   UNL     1      47.911   6.239  15.100  0.00  0.00    +0.000 N 
ATOM     17  C   UNL     1      49.129   6.286  15.729  0.00  0.00    +0.000 C 
ATOM     18  O   UNL     1      49.535   5.366  16.431  0.00  0.00    +0.000 OA
ATOM     19  H   UNL     1      47.504   7.089  14.728  0.00  0.00    +0.000 HD
BRANCH  17  20
ATOM     20  C   UNL     1      49.957   7.469  15.463  0.00  0.00    +0.000 A 
ATOM     21  C   UNL     1      50.529   8.160  16.523  0.00  0.00    +0.000 A 
ATOM     22  S   UNL     1      51.506   9.470  16.039  0.00  0.00    +0.000 S 
ATOM     23  C   UNL     1      51.156   9.194  14.396  0.00  0.00    +0.000 A 
ATOM     24  N   UNL     1      51.669   9.999  13.427  0.00  0.00    +0.000 NA
ATOM     25  C   UNL     1      51.293   9.698  12.232  0.00  0.00    +0.000 A 
ATOM     26  N   UNL     1      50.451   8.666  11.912  0.00  0.00    +0.000 N 
ATOM     27  C   UNL     1      49.933   7.807  12.852  0.00  0.00    +0.000 A 
ATOM     28  O   UNL     1      49.215   6.867  12.531  0.00  0.00    +0.000 OA
ATOM     29  C   UNL     1      50.316   8.109  14.219  0.00  0.00    +0.000 A 
ATOM     30  H   UNL     1      50.198   8.478  10.953  0.00  0.00    +0.000 HD
ENDBRANCH  17  20
ENDBRANCH   1  16
TORSDOF 5
ENDMDL
MODEL 7
REMARK VINA RESULT:    -6.901      2.787      4.242
REMARK INTER + INTRA:          -9.960
REMARK INTER:                  -8.933
REMARK INTRA:                  -1.027
REMARK UNBOUND:                -1.042
REMARK  Name = 
REMARK  6 active torsions:
REMARK  status: ('A' for Active; 'I' for Inactive)
REMARK    1  A    between atoms: C_1  and  C_2
REMARK    2  A    between atoms: C_6  and  C_7
REMARK    3  A    between atoms: C_7  and  C_8
REMARK    4  A    between atoms: C_11  and  C_12
REMARK    5  A    between atoms: C_12  and  N_13
REMARK    6  A    between atoms: C_14  and  C_16
REMARK                            x       y       z     vdW  Elec       q    Type
REMARK                         _______ _______ _______ _____ _____    ______ ____
ROOT
ATOM      1  C   UNL     1      46.737   6.604  13.729  0.00  0.00    +0.000 C 
ENDROOT
BRANCH   1   5
ATOM      2  C   UNL     1      45.174   4.650  10.195  0.00  0.00    +0.000 A 
ATOM      3  C   UNL     1      45.036   4.056  11.456  0.00  0.00    +0.000 A 
ATOM      4  C   UNL     1      45.562   4.672  12.596  0.00  0.00    +0.000 A 
ATOM      5  C   UNL     1      46.224   5.902  12.499  0.00  0.00    +0.000 A 
ATOM      6  C   UNL     1      46.411   6.468  11.232  0.00  0.00    +0.000 A 
ATOM      7  C   UNL     1      45.885   5.854  10.092  0.00  0.00    +0.000 A 
BRANCH   2   8
ATOM      8  C   UNL     1      44.544   4.023   8.974  0.00  0.00    +0.000 C 
BRANCH   8  14
ATOM      9  C   UNL     1      47.600   2.649   5.183  0.00  0.00    +0.000 C 
ATOM     10  C   UNL     1      46.888   2.350   6.464  0.00  0.00    +0.000 A 
ATOM     11  C   UNL     1      46.954   1.094   7.054  0.00  0.00    +0.000 A 
ATOM     12  N   UNL     1      46.318   0.759   8.197  0.00  0.00    +0.000 NA
ATOM     13  C   UNL     1      45.573   1.724   8.781  0.00  0.00    +0.000 A 
ATOM     14  C   UNL     1      45.421   3.012   8.278  0.00  0.00    +0.000 A 
ATOM     15  C   UNL     1      46.110   3.323   7.101  0.00  0.00    +0.000 A 
ENDBRANCH   8  14
ENDBRANCH   2   8
ENDBRANCH   1   5
BRANCH   1  16
ATOM     16  N   UNL     1      48.140   6.904  13.624  0.00  0.00    +0.000 N 
ATOM     17  C   UNL     1      48.693   7.944  14.329  0.00  0.00    +0.000 C 
ATOM     18  O   UNL     1      48.035   8.620  15.115  0.00  0.00    +0.000 OA
ATOM     19  H   UNL     1      48.632   6.524  12.824  0.00  0.00    +0.000 HD
BRANCH  17  20
ATOM     20  C   UNL     1      50.133   8.165  14.149  0.00  0.00    +0.000 A 
ATOM     21  C   UNL     1      50.967   8.196  15.258  0.00  0.00    +0.000 A 
ATOM     22  S   UNL     1      52.615   8.403  14.870  0.00  0.00    +0.000 S 
ATOM     23  C   UNL     1      52.265   8.513  13.208  0.00  0.00    +0.000 A 
ATOM     24  N   UNL     1      53.253   8.723  12.298  0.00  0.00    +0.000 NA
ATOM     25  C   UNL     1      52.843   8.822  11.080  0.00  0.00    +0.000 A 
ATOM     26  N   UNL     1      51.534   8.730  10.685  0.00  0.00    +0.000 N 
ATOM     27  C   UNL     1      50.505   8.488  11.562  0.00  0.00    +0.000 A 
ATOM     28  O   UNL     1      49.348   8.371  11.174  0.00  0.00    +0.000 OA
ATOM     29  C   UNL     1      50.912   8.380  12.952  0.00  0.00    +0.000 A 
ATOM     30  H   UNL     1      51.278   8.812   9.712  0.00  0.00    +0.000 HD
ENDBRANCH  17  20
ENDBRANCH   1  16
TORSDOF 5
ENDMDL
MODEL 8
REMARK VINA RESULT:    -6.867      2.948      4.388
REMARK INTER + INTRA:          -9.917
REMARK INTER:                  -9.141
REMARK INTRA:                  -0.776
REMARK UNBOUND:                -1.042
REMARK  Name = 
REMARK  6 active torsions:
REMARK  status: ('A' for Active; 'I' for Inactive)
REMARK    1  A    between atoms: C_1  and  C_2
REMARK    2  A    between atoms: C_6  and  C_7
REMARK    3  A    between atoms: C_7  and  C_8
REMARK    4  A    between atoms: C_11  and  C_12
REMARK    5  A    between atoms: C_12  and  N_13
REMARK    6  A    between atoms: C_14  and  C_16
REMARK                            x       y       z     vdW  Elec       q    Type
REMARK                         _______ _______ _______ _____ _____    ______ ____
ROOT
ATOM      1  C   UNL     1      47.059   6.039  13.844  0.00  0.00    +0.000 C 
ENDROOT
BRANCH   1   5
ATOM      2  C   UNL     1      45.072   4.551  10.296  0.00  0.00    +0.000 A 
ATOM      3  C   UNL     1      45.809   5.742  10.252  0.00  0.00    +0.000 A 
ATOM      4  C   UNL     1      46.430   6.238  11.402  0.00  0.00    +0.000 A 
ATOM      5  C   UNL     1      46.339   5.546  12.616  0.00  0.00    +0.000 A 
ATOM      6  C   UNL     1      45.557   4.386  12.673  0.00  0.00    +0.000 A 
ATOM      7  C   UNL     1      44.936   3.888  11.523  0.00  0.00    +0.000 A 
BRANCH   2   8
ATOM      8  C   UNL     1      44.461   3.976   9.040  0.00  0.00    +0.000 C 
BRANCH   8  14
ATOM      9  C   UNL     1      47.486   2.776   5.165  0.00  0.00    +0.000 C 
ATOM     10  C   UNL     1      46.809   2.429   6.453  0.00  0.00    +0.000 A 
ATOM     11  C   UNL     1      46.927   1.165   7.017  0.00  0.00    +0.000 A 
ATOM     12  N   UNL     1      46.325   0.788   8.165  0.00  0.00    +0.000 NA
ATOM     13  C   UNL     1      45.561   1.716   8.782  0.00  0.00    +0.000 A 
ATOM     14  C   UNL     1      45.357   3.009   8.307  0.00  0.00    +0.000 A 
ATOM     15  C   UNL     1      46.013   3.364   7.124  0.00  0.00    +0.000 A 
ENDBRANCH   8  14
ENDBRANCH   2   8
ENDBRANCH   1   5
BRANCH   1  16
ATOM     16  N   UNL     1      47.960   7.119  13.536  0.00  0.00    +0.000 N 
ATOM     17  C   UNL     1      49.146   7.260  14.211  0.00  0.00    +0.000 C 
ATOM     18  O   UNL     1      49.514   6.451  15.057  0.00  0.00    +0.000 OA
ATOM     19  H   UNL     1      47.575   7.906  13.028  0.00  0.00    +0.000 HD
BRANCH  17  20
ATOM     20  C   UNL     1      49.990   8.396  13.820  0.00  0.00    +0.000 A 
ATOM     21  C   UNL     1      50.592   8.405  12.568  0.00  0.00    +0.000 A 
ATOM     22  S   UNL     1      51.488   9.821  12.251  0.00  0.00    +0.000 S 
ATOM     23  C   UNL     1      51.147  10.448  13.795  0.00  0.00    +0.000 A 
ATOM     24  N   UNL     1      51.649  11.650  14.188  0.00  0.00    +0.000 NA
ATOM     25  C   UNL     1      51.342  11.986  15.394  0.00  0.00    +0.000 A 
ATOM     26  N   UNL     1      50.579  11.232  16.247  0.00  0.00    +0.000 N 
ATOM     27  C   UNL     1      50.025  10.028  15.886  0.00  0.00    +0.000 A 
ATOM     28  O   UNL     1      49.313   9.395  16.657  0.00  0.00    +0.000 OA
ATOM     29  C   UNL     1      50.350   9.596  14.538  0.00  0.00    +0.000 A 
ATOM     30  H   UNL     1      50.370  11.554  17.180  0.00  0.00    +0.000 HD
ENDBRANCH  17  20
ENDBRANCH   1  16
TORSDOF 5
ENDMDL
MODEL 9
REMARK VINA RESULT:    -6.834      3.691      5.061
REMARK INTER + INTRA:          -9.874
REMARK INTER:                  -9.011
REMARK INTRA:                  -0.863
REMARK UNBOUND:                -1.042
REMARK  Name = 
REMARK  6 active torsions:
REMARK  status: ('A' for Active; 'I' for Inactive)
REMARK    1  A    between atoms: C_1  and  C_2
REMARK    2  A    between atoms: C_6  and  C_7
REMARK    3  A    between atoms: C_7  and  C_8
REMARK    4  A    between atoms: C_11  and  C_12
REMARK    5  A    between atoms: C_12  and  N_13
REMARK    6  A    between atoms: C_14  and  C_16
REMARK                            x       y       z     vdW  Elec       q    Type
REMARK                         _______ _______ _______ _____ _____    ______ ____
ROOT
ATOM      1  C   UNL     1      46.293   8.083  13.493  0.00  0.00    +0.000 C 
ENDROOT
BRANCH   1   5
ATOM      2  C   UNL     1      44.750   4.687  11.295  0.00  0.00    +0.000 A 
ATOM      3  C   UNL     1      44.312   5.984  10.998  0.00  0.00    +0.000 A 
ATOM      4  C   UNL     1      44.790   7.080  11.723  0.00  0.00    +0.000 A 
ATOM      5  C   UNL     1      45.725   6.902  12.750  0.00  0.00    +0.000 A 
ATOM      6  C   UNL     1      46.119   5.601  13.083  0.00  0.00    +0.000 A 
ATOM      7  C   UNL     1      45.644   4.504  12.358  0.00  0.00    +0.000 A 
BRANCH   2   8
ATOM      8  C   UNL     1      44.291   3.510  10.465  0.00  0.00    +0.000 C 
BRANCH   8  14
ATOM      9  C   UNL     1      46.922   0.396   7.469  0.00  0.00    +0.000 C 
ATOM     10  C   UNL     1      46.402   1.757   7.807  0.00  0.00    +0.000 A 
ATOM     11  C   UNL     1      46.727   2.869   7.041  0.00  0.00    +0.000 A 
ATOM     12  N   UNL     1      46.305   4.123   7.307  0.00  0.00    +0.000 NA
ATOM     13  C   UNL     1      45.522   4.280   8.398  0.00  0.00    +0.000 A 
ATOM     14  C   UNL     1      45.141   3.246   9.248  0.00  0.00    +0.000 A 
ATOM     15  C   UNL     1      45.586   1.960   8.926  0.00  0.00    +0.000 A 
ENDBRANCH   8  14
ENDBRANCH   2   8
ENDBRANCH   1   5
BRANCH   1  16
ATOM     16  N   UNL     1      47.555   8.501  12.942  0.00  0.00    +0.000 N 
ATOM     17  C   UNL     1      47.619   9.506  12.010  0.00  0.00    +0.000 C 
ATOM     18  O   UNL     1      46.622  10.125  11.650  0.00  0.00    +0.000 OA
ATOM     19  H   UNL     1      48.334   7.861  13.044  0.00  0.00    +0.000 HD
BRANCH  17  20
ATOM     20  C   UNL     1      48.956   9.853  11.513  0.00  0.00    +0.000 A 
ATOM     21  C   UNL     1      49.231  11.162  11.139  0.00  0.00    +0.000 A 
ATOM     22  S   UNL     1      50.844  11.407  10.641  0.00  0.00    +0.000 S 
ATOM     23  C   UNL     1      51.217   9.761  10.856  0.00  0.00    +0.000 A 
ATOM     24  N   UNL     1      52.459   9.283  10.575  0.00  0.00    +0.000 NA
ATOM     25  C   UNL     1      52.592   8.013  10.748  0.00  0.00    +0.000 A 
ATOM     26  N   UNL     1      51.599   7.173  11.177  0.00  0.00    +0.000 N 
ATOM     27  C   UNL     1      50.338   7.613  11.503  0.00  0.00    +0.000 A 
ATOM     28  O   UNL     1      49.481   6.843  11.923  0.00  0.00    +0.000 OA
ATOM     29  C   UNL     1      50.131   9.037  11.314  0.00  0.00    +0.000 A 
ATOM     30  H   UNL     1      51.769   6.186  11.297  0.00  0.00    +0.000 HD
ENDBRANCH  17  20
ENDBRANCH   1  16
TORSDOF 5
ENDMDL
