MODEL 1
REMARK VINA RESULT:    -7.658      0.000      0.000
REMARK INTER + INTRA:         -11.689
REMARK INTER:                 -10.792
REMARK INTRA:                  -0.898
REMARK UNBOUND:                -0.898
REMARK  Name = 
REMARK  7 active torsions:
REMARK  status: ('A' for Active; 'I' for Inactive)
REMARK    1  A    between atoms: C_2  and  C_21
REMARK    2  A    between atoms: N_3  and  C_4
REMARK    3  A    between atoms: C_4  and  C_5
REMARK    4  A    between atoms: C_8  and  C_9
REMARK    5  A    between atoms: C_9  and  N_10
REMARK    6  A    between atoms: N_10  and  C_11
REMARK    7  A    between atoms: C_11  and  C_12
REMARK                            x       y       z     vdW  Elec       q    Type
REMARK                         _______ _______ _______ _____ _____    ______ ____
ROOT
ATOM      1  C   UNL     1      46.180   5.887  12.380  0.00  0.00    +0.000 A 
ATOM      2  C   UNL     1      45.833   4.719  13.053  0.00  0.00    +0.000 A 
ATOM      3  C   UNL     1      45.096   3.748  12.382  0.00  0.00    +0.000 A 
ATOM      4  C   UNL     1      44.696   3.968  11.063  0.00  0.00    +0.000 A 
ATOM      5  C   UNL     1      45.070   5.171  10.479  0.00  0.00    +0.000 A 
ATOM      6  N   UNL     1      45.802   6.124  11.098  0.00  0.00    +0.000 NA
ENDROOT
BRANCH   1   7
ATOM      7  C   UNL     1      46.969   6.968  13.083  0.00  0.00    +0.000 C 
BRANCH   7  10
ATOM      8  O   UNL     1      49.574   6.854  14.000  0.00  0.00    +0.000 OA
ATOM      9  C   UNL     1      48.663   6.647  14.803  0.00  0.00    +0.000 C 
ATOM     10  N   UNL     1      47.347   6.657  14.439  0.00  0.00    +0.000 N 
ATOM     11  H   UNL     1      46.616   6.656  15.147  0.00  0.00    +0.000 HD
BRANCH   9  12
ATOM     12  C   UNL     1      48.942   6.365  16.203  0.00  0.00    +0.000 A 
ATOM     13  C   UNL     1      49.536   7.278  17.063  0.00  0.00    +0.000 A 
ATOM     14  S   UNL     1      49.629   6.701  18.675  0.00  0.00    +0.000 S 
ATOM     15  C   UNL     1      48.888   5.226  18.252  0.00  0.00    +0.000 A 
ATOM     16  N   UNL     1      48.638   4.258  19.173  0.00  0.00    +0.000 NA
ATOM     17  C   UNL     1      48.052   3.208  18.697  0.00  0.00    +0.000 A 
ATOM     18  N   UNL     1      47.701   3.032  17.384  0.00  0.00    +0.000 N 
ATOM     19  C   UNL     1      48.006   3.937  16.397  0.00  0.00    +0.000 A 
ATOM     20  O   UNL     1      47.841   3.661  15.228  0.00  0.00    +0.000 OA
ATOM     21  C   UNL     1      48.605   5.161  16.904  0.00  0.00    +0.000 A 
ATOM     22  H   UNL     1      47.296   2.166  17.064  0.00  0.00    +0.000 HD
ENDBRANCH   9  12
ENDBRANCH   7  10
ENDBRANCH   1   7
BRANCH   4  23
ATOM     23  C   UNL     1      43.879   2.982  10.280  0.00  0.00    +0.000 C 
BRANCH  23  24
ATOM     24  N   UNL     1      44.391   2.732   8.940  0.00  0.00    +0.000 NA
ATOM     25  H   UNL     1      44.538   3.611   8.440  0.00  0.00    +0.000 HD
BRANCH  24  26
ATOM     26  C   UNL     1      45.679   2.025   8.928  0.00  0.00    +0.000 C 
BRANCH  26  27
ATOM     27  C   UNL     1      46.346   2.111   7.563  0.00  0.00    +0.000 A 
ATOM     28  N   UNL     1      46.416   3.351   6.986  0.00  0.00    +0.000 NA
ATOM     29  C   UNL     1      46.989   3.447   5.767  0.00  0.00    +0.000 A 
ATOM     30  C   UNL     1      47.543   2.372   5.096  0.00  0.00    +0.000 A 
ATOM     31  C   UNL     1      47.499   1.122   5.707  0.00  0.00    +0.000 A 
ATOM     32  C   UNL     1      46.895   0.981   6.956  0.00  0.00    +0.000 A 
ATOM     33 CL   UNL     1      46.865  -0.582   7.684  0.00  0.00    +0.000 Cl
ENDBRANCH  26  27
ENDBRANCH  24  26
ENDBRANCH  23  24
ENDBRANCH   4  23
TORSDOF 7
ENDMDL
MODEL 2
REMARK VINA RESULT:    -7.645      1.814      2.304
REMARK INTER + INTRA:         -11.672
REMARK INTER:                 -10.500
REMARK INTRA:                  -1.172
REMARK UNBOUND:                -0.898
REMARK  Name = 
REMARK  7 active torsions:
REMARK  status: ('A' for Active; 'I' for Inactive)
REMARK    1  A    between atoms: C_2  and  C_21
REMARK    2  A    between atoms: N_3  and  C_4
REMARK    3  A    between atoms: C_4  and  C_5
REMARK    4  A    between atoms: C_8  and  C_9
REMARK    5  A    between atoms: C_9  and  N_10
REMARK    6  A    between atoms: N_10  and  C_11
REMARK    7  A    between atoms: C_11  and  C_12
REMARK                            x       y       z     vdW  Elec       q    Type
REMARK                         _______ _______ _______ _____ _____    ______ ____
ROOT
ATOM      1  C   UNL     1      47.483   6.289  13.366  0.00  0.00    +0.000 A 
ATOM      2  C   UNL     1      46.808   6.788  12.256  0.00  0.00    +0.000 A 
ATOM      3  C   UNL     1      45.813   6.012  11.666  0.00  0.00    +0.000 A 
ATOM      4  C   UNL     1      45.527   4.744  12.177  0.00  0.00    +0.000 A 
ATOM      5  C   UNL     1      46.266   4.321  13.274  0.00  0.00    +0.000 A 
ATOM      6  N   UNL     1      47.224   5.060  13.879  0.00  0.00    +0.000 NA
ENDROOT
BRANCH   1   7
ATOM      7  C   UNL     1      48.577   7.100  14.021  0.00  0.00    +0.000 C 
BRANCH   7  10
ATOM      8  O   UNL     1      50.913   7.078  15.499  0.00  0.00    +0.000 OA
ATOM      9  C   UNL     1      49.840   7.009  16.101  0.00  0.00    +0.000 C 
ATOM     10  N   UNL     1      48.637   6.987  15.457  0.00  0.00    +0.000 N 
ATOM     11  H   UNL     1      47.770   7.104  15.979  0.00  0.00    +0.000 HD
BRANCH   9  12
ATOM     12  C   UNL     1      49.795   6.933  17.553  0.00  0.00    +0.000 A 
ATOM     13  C   UNL     1      50.144   7.988  18.385  0.00  0.00    +0.000 A 
ATOM     14  S   UNL     1      49.879   7.637  20.042  0.00  0.00    +0.000 S 
ATOM     15  C   UNL     1      49.302   6.075  19.679  0.00  0.00    +0.000 A 
ATOM     16  N   UNL     1      48.876   5.224  20.650  0.00  0.00    +0.000 NA
ATOM     17  C   UNL     1      48.449   4.084  20.209  0.00  0.00    +0.000 A 
ATOM     18  N   UNL     1      48.418   3.714  18.891  0.00  0.00    +0.000 N 
ATOM     19  C   UNL     1      48.916   4.498  17.878  0.00  0.00    +0.000 A 
ATOM     20  O   UNL     1      49.036   4.059  16.754  0.00  0.00    +0.000 OA
ATOM     21  C   UNL     1      49.343   5.814  18.326  0.00  0.00    +0.000 A 
ATOM     22  H   UNL     1      48.126   2.790  18.615  0.00  0.00    +0.000 HD
ENDBRANCH   9  12
ENDBRANCH   7  10
ENDBRANCH   1   7
BRANCH   4  23
ATOM     23  C   UNL     1      44.489   3.838  11.584  0.00  0.00    +0.000 C 
BRANCH  23  24
ATOM     24  N   UNL     1      45.041   2.638  10.971  0.00  0.00    +0.000 NA
ATOM     25  H   UNL     1      44.840   1.816  11.543  0.00  0.00    +0.000 HD
BRANCH  24  26
ATOM     26  C   UNL     1      44.496   2.360   9.634  0.00  0.00    +0.000 C 
BRANCH  26  27
ATOM     27  C   UNL     1      45.606   2.114   8.624  0.00  0.00    +0.000 A 
ATOM     28  N   UNL     1      45.908   0.807   8.342  0.00  0.00    +0.000 NA
ATOM     29  C   UNL     1      46.901   0.567   7.460  0.00  0.00    +0.000 A 
ATOM     30  C   UNL     1      47.595   1.563   6.799  0.00  0.00    +0.000 A 
ATOM     31  C   UNL     1      47.258   2.887   7.066  0.00  0.00    +0.000 A 
ATOM     32  C   UNL     1      46.252   3.175   7.988  0.00  0.00    +0.000 A 
ATOM     33 CL   UNL     1      45.858   4.826   8.288  0.00  0.00    +0.000 Cl
ENDBRANCH  26  27
ENDBRANCH  24  26
ENDBRANCH  23  24
ENDBRANCH   4  23
TORSDOF 7
ENDMDL
MODEL 3
REMARK VINA RESULT:    -7.372      2.469      3.200
REMARK INTER + INTRA:         -11.286
REMARK INTER:                 -10.307
REMARK INTRA:                  -0.979
REMARK UNBOUND:                -0.898
REMARK  Name = 
REMARK  7 active torsions:
REMARK  status: ('A' for Active; 'I' for Inactive)
REMARK    1  A    between atoms: C_2  and  C_21
REMARK    2  A    between atoms: N_3  and  C_4
REMARK    3  A    between atoms: C_4  and  C_5
REMARK    4  A    between atoms: C_8  and  C_9
REMARK    5  A    between atoms: C_9  and  N_10
REMARK    6  A    between atoms: N_10  and  C_11
REMARK    7  A    between atoms: C_11  and  C_12
REMARK                            x       y       z     vdW  Elec       q    Type
REMARK                         _______ _______ _______ _____ _____    ______ ____
ROOT
ATOM      1  C   UNL     1      47.306   5.575  13.923  0.00  0.00    +0.000 A 
ATOM      2  C   UNL     1      47.185   4.190  13.988  0.00  0.00    +0.000 A 
ATOM      3  C   UNL     1      46.262   3.554  13.163  0.00  0.00    +0.000 A 
ATOM      4  C   UNL     1      45.458   4.310  12.308  0.00  0.00    +0.000 A 
ATOM      5  C   UNL     1      45.634   5.687  12.325  0.00  0.00    +0.000 A 
ATOM      6  N   UNL     1      46.535   6.331  13.101  0.00  0.00    +0.000 NA
ENDROOT
BRANCH   1   7
ATOM      7  C   UNL     1      48.289   6.298  14.815  0.00  0.00    +0.000 C 
BRANCH   7  10
ATOM      8  O   UNL     1      50.194   5.482  16.642  0.00  0.00    +0.000 OA
ATOM      9  C   UNL     1      49.066   5.754  17.057  0.00  0.00    +0.000 C 
ATOM     10  N   UNL     1      48.054   6.142  16.228  0.00  0.00    +0.000 N 
ATOM     11  H   UNL     1      47.191   6.525  16.611  0.00  0.00    +0.000 HD
BRANCH   9  12
ATOM     12  C   UNL     1      48.742   5.667  18.472  0.00  0.00    +0.000 A 
ATOM     13  C   UNL     1      48.901   4.510  19.224  0.00  0.00    +0.000 A 
ATOM     14  S   UNL     1      48.545   4.747  20.884  0.00  0.00    +0.000 S 
ATOM     15  C   UNL     1      48.167   6.389  20.628  0.00  0.00    +0.000 A 
ATOM     16  N   UNL     1      47.796   7.208  21.648  0.00  0.00    +0.000 NA
ATOM     17  C   UNL     1      47.563   8.430  21.293  0.00  0.00    +0.000 A 
ATOM     18  N   UNL     1      47.658   8.907  20.013  0.00  0.00    +0.000 N 
ATOM     19  C   UNL     1      47.944   8.108  18.932  0.00  0.00    +0.000 A 
ATOM     20  O   UNL     1      47.840   8.532  17.801  0.00  0.00    +0.000 OA
ATOM     21  C   UNL     1      48.278   6.741  19.300  0.00  0.00    +0.000 A 
ATOM     22  H   UNL     1      47.410   9.858  19.790  0.00  0.00    +0.000 HD
ENDBRANCH   9  12
ENDBRANCH   7  10
ENDBRANCH   1   7
BRANCH   4  23
ATOM     23  C   UNL     1      44.424   3.703  11.407  0.00  0.00    +0.000 C 
BRANCH  23  24
ATOM     24  N   UNL     1      44.841   2.445  10.803  0.00  0.00    +0.000 NA
ATOM     25  H   UNL     1      44.436   1.652  11.305  0.00  0.00    +0.000 HD
BRANCH  24  26
ATOM     26  C   UNL     1      44.427   2.305   9.399  0.00  0.00    +0.000 C 
BRANCH  26  27
ATOM     27  C   UNL     1      45.628   2.113   8.485  0.00  0.00    +0.000 A 
ATOM     28  N   UNL     1      45.991   0.822   8.204  0.00  0.00    +0.000 NA
ATOM     29  C   UNL     1      47.064   0.629   7.407  0.00  0.00    +0.000 A 
ATOM     30  C   UNL     1      47.783   1.659   6.830  0.00  0.00    +0.000 A 
ATOM     31  C   UNL     1      47.385   2.967   7.093  0.00  0.00    +0.000 A 
ATOM     32  C   UNL     1      46.294   3.206   7.929  0.00  0.00    +0.000 A 
ATOM     33 CL   UNL     1      45.827   4.838   8.227  0.00  0.00    +0.000 Cl
ENDBRANCH  26  27
ENDBRANCH  24  26
ENDBRANCH  23  24
ENDBRANCH   4  23
TORSDOF 7
ENDMDL
MODEL 4
REMARK VINA RESULT:    -7.351      1.721      2.431
REMARK INTER + INTRA:         -11.257
REMARK INTER:                 -10.431
REMARK INTRA:                  -0.826
REMARK UNBOUND:                -0.898
REMARK  Name = 
REMARK  7 active torsions:
REMARK  status: ('A' for Active; 'I' for Inactive)
REMARK    1  A    between atoms: C_2  and  C_21
REMARK    2  A    between atoms: N_3  and  C_4
REMARK    3  A    between atoms: C_4  and  C_5
REMARK    4  A    between atoms: C_8  and  C_9
REMARK    5  A    between atoms: C_9  and  N_10
REMARK    6  A    between atoms: N_10  and  C_11
REMARK    7  A    between atoms: C_11  and  C_12
REMARK                            x       y       z     vdW  Elec       q    Type
REMARK                         _______ _______ _______ _____ _____    ______ ____
ROOT
ATOM      1  C   UNL     1      46.592   5.607  12.753  0.00  0.00    +0.000 A 
ATOM      2  C   UNL     1      46.111   6.135  11.559  0.00  0.00    +0.000 A 
ATOM      3  C   UNL     1      45.222   5.381  10.797  0.00  0.00    +0.000 A 
ATOM      4  C   UNL     1      44.850   4.105  11.225  0.00  0.00    +0.000 A 
ATOM      5  C   UNL     1      45.397   3.653  12.419  0.00  0.00    +0.000 A 
ATOM      6  N   UNL     1      46.246   4.369  13.189  0.00  0.00    +0.000 NA
ENDROOT
BRANCH   1   7
ATOM      7  C   UNL     1      47.568   6.394  13.597  0.00  0.00    +0.000 C 
BRANCH   7  10
ATOM      8  O   UNL     1      49.781   6.617  15.237  0.00  0.00    +0.000 OA
ATOM      9  C   UNL     1      48.731   6.198  15.727  0.00  0.00    +0.000 C 
ATOM     10  N   UNL     1      47.594   6.029  14.991  0.00  0.00    +0.000 N 
ATOM     11  H   UNL     1      46.704   5.850  15.451  0.00  0.00    +0.000 HD
BRANCH   9  12
ATOM     12  C   UNL     1      48.646   5.842  17.135  0.00  0.00    +0.000 A 
ATOM     13  C   UNL     1      48.754   4.539  17.603  0.00  0.00    +0.000 A 
ATOM     14  S   UNL     1      48.729   4.450  19.315  0.00  0.00    +0.000 S 
ATOM     15  C   UNL     1      48.567   6.140  19.460  0.00  0.00    +0.000 A 
ATOM     16  N   UNL     1      48.505   6.754  20.672  0.00  0.00    +0.000 NA
ATOM     17  C   UNL     1      48.404   8.042  20.611  0.00  0.00    +0.000 A 
ATOM     18  N   UNL     1      48.349   8.772  19.454  0.00  0.00    +0.000 N 
ATOM     19  C   UNL     1      48.320   8.200  18.205  0.00  0.00    +0.000 A 
ATOM     20  O   UNL     1      48.088   8.868  17.220  0.00  0.00    +0.000 OA
ATOM     21  C   UNL     1      48.500   6.757  18.229  0.00  0.00    +0.000 A 
ATOM     22  H   UNL     1      48.214   9.771  19.472  0.00  0.00    +0.000 HD
ENDBRANCH   9  12
ENDBRANCH   7  10
ENDBRANCH   1   7
BRANCH   4  23
ATOM     23  C   UNL     1      43.918   3.221  10.450  0.00  0.00    +0.000 C 
BRANCH  23  24
ATOM     24  N   UNL     1      44.352   2.971   9.082  0.00  0.00    +0.000 NA
ATOM     25  H   UNL     1      44.696   3.831   8.650  0.00  0.00    +0.000 HD
BRANCH  24  26
ATOM     26  C   UNL     1      45.442   1.990   8.985  0.00  0.00    +0.000 C 
BRANCH  26  27
ATOM     27  C   UNL     1      46.192   2.125   7.668  0.00  0.00    +0.000 A 
ATOM     28  N   UNL     1      46.244   3.376   7.111  0.00  0.00    +0.000 NA
ATOM     29  C   UNL     1      46.891   3.514   5.934  0.00  0.00    +0.000 A 
ATOM     30  C   UNL     1      47.536   2.475   5.289  0.00  0.00    +0.000 A 
ATOM     31  C   UNL     1      47.508   1.215   5.880  0.00  0.00    +0.000 A 
ATOM     32  C   UNL     1      46.830   1.029   7.085  0.00  0.00    +0.000 A 
ATOM     33 CL   UNL     1      46.822  -0.544   7.790  0.00  0.00    +0.000 Cl
ENDBRANCH  26  27
ENDBRANCH  24  26
ENDBRANCH  23  24
ENDBRANCH   4  23
TORSDOF 7
ENDMDL
MODEL 5
REMARK VINA RESULT:    -7.342      2.142      2.894
REMARK INTER + INTRA:         -11.243
REMARK INTER:                 -10.237
REMARK INTRA:                  -1.006
REMARK UNBOUND:                -0.898
REMARK  Name = 
REMARK  7 active torsions:
REMARK  status: ('A' for Active; 'I' for Inactive)
REMARK    1  A    between atoms: C_2  and  C_21
REMARK    2  A    between atoms: N_3  and  C_4
REMARK    3  A    between atoms: C_4  and  C_5
REMARK    4  A    between atoms: C_8  and  C_9
REMARK    5  A    between atoms: C_9  and  N_10
REMARK    6  A    between atoms: N_10  and  C_11
REMARK    7  A    between atoms: C_11  and  C_12
REMARK                            x       y       z     vdW  Elec       q    Type
REMARK                         _______ _______ _______ _____ _____    ______ ____
ROOT
ATOM      1  C   UNL     1      46.940   4.602  14.161  0.00  0.00    +0.000 A 
ATOM      2  C   UNL     1      45.900   3.894  13.566  0.00  0.00    +0.000 A 
ATOM      3  C   UNL     1      45.340   4.380  12.388  0.00  0.00    +0.000 A 
ATOM      4  C   UNL     1      45.807   5.576  11.840  0.00  0.00    +0.000 A 
ATOM      5  C   UNL     1      46.833   6.225  12.514  0.00  0.00    +0.000 A 
ATOM      6  N   UNL     1      47.410   5.767  13.647  0.00  0.00    +0.000 NA
ENDROOT
BRANCH   1   7
ATOM      7  C   UNL     1      47.562   4.109  15.448  0.00  0.00    +0.000 C 
BRANCH   7  10
ATOM      8  O   UNL     1      49.662   5.641  16.385  0.00  0.00    +0.000 OA
ATOM      9  C   UNL     1      48.564   5.760  16.931  0.00  0.00    +0.000 C 
ATOM     10  N   UNL     1      47.474   5.028  16.554  0.00  0.00    +0.000 N 
ATOM     11  H   UNL     1      46.547   5.268  16.900  0.00  0.00    +0.000 HD
BRANCH   9  12
ATOM     12  C   UNL     1      48.365   6.692  18.030  0.00  0.00    +0.000 A 
ATOM     13  C   UNL     1      48.283   8.068  17.860  0.00  0.00    +0.000 A 
ATOM     14  S   UNL     1      47.932   8.892  19.322  0.00  0.00    +0.000 S 
ATOM     15  C   UNL     1      47.890   7.434  20.203  0.00  0.00    +0.000 A 
ATOM     16  N   UNL     1      47.618   7.407  21.535  0.00  0.00    +0.000 NA
ATOM     17  C   UNL     1      47.603   6.221  22.052  0.00  0.00    +0.000 A 
ATOM     18  N   UNL     1      47.844   5.062  21.364  0.00  0.00    +0.000 N 
ATOM     19  C   UNL     1      48.209   5.035  20.039  0.00  0.00    +0.000 A 
ATOM     20  O   UNL     1      48.590   4.008  19.520  0.00  0.00    +0.000 OA
ATOM     21  C   UNL     1      48.171   6.344  19.406  0.00  0.00    +0.000 A 
ATOM     22  H   UNL     1      47.873   4.171  21.835  0.00  0.00    +0.000 HD
ENDBRANCH   9  12
ENDBRANCH   7  10
ENDBRANCH   1   7
BRANCH   4  23
ATOM     23  C   UNL     1      45.240   6.179  10.589  0.00  0.00    +0.000 C 
BRANCH  23  24
ATOM     24  N   UNL     1      45.818   5.639   9.365  0.00  0.00    +0.000 NA
ATOM     25  H   UNL     1      46.720   5.200   9.556  0.00  0.00    +0.000 HD
BRANCH  24  26
ATOM     26  C   UNL     1      44.980   4.614   8.726  0.00  0.00    +0.000 C 
BRANCH  26  27
ATOM     27  C   UNL     1      45.827   3.493   8.142  0.00  0.00    +0.000 A 
ATOM     28  N   UNL     1      46.836   3.860   7.290  0.00  0.00    +0.000 NA
ATOM     29  C   UNL     1      47.589   2.880   6.747  0.00  0.00    +0.000 A 
ATOM     30  C   UNL     1      47.423   1.538   7.038  0.00  0.00    +0.000 A 
ATOM     31  C   UNL     1      46.419   1.178   7.932  0.00  0.00    +0.000 A 
ATOM     32  C   UNL     1      45.606   2.162   8.496  0.00  0.00    +0.000 A 
ATOM     33 CL   UNL     1      44.376   1.679   9.603  0.00  0.00    +0.000 Cl
ENDBRANCH  26  27
ENDBRANCH  24  26
ENDBRANCH  23  24
ENDBRANCH   4  23
TORSDOF 7
ENDMDL
MODEL 6
REMARK VINA RESULT:    -7.311      4.271      8.639
REMARK INTER + INTRA:         -11.201
REMARK INTER:                  -9.886
REMARK INTRA:                  -1.315
REMARK UNBOUND:                -0.898
REMARK  Name = 
REMARK  7 active torsions:
REMARK  status: ('A' for Active; 'I' for Inactive)
REMARK    1  A    between atoms: C_2  and  C_21
REMARK    2  A    between atoms: N_3  and  C_4
REMARK    3  A    between atoms: C_4  and  C_5
REMARK    4  A    between atoms: C_8  and  C_9
REMARK    5  A    between atoms: C_9  and  N_10
REMARK    6  A    between atoms: N_10  and  C_11
REMARK    7  A    between atoms: C_11  and  C_12
REMARK                            x       y       z     vdW  Elec       q    Type
REMARK                         _______ _______ _______ _____ _____    ______ ____
ROOT
ATOM      1  C   UNL     1      48.369   7.937  13.591  0.00  0.00    +0.000 A 
ATOM      2  C   UNL     1      48.723   6.745  14.217  0.00  0.00    +0.000 A 
ATOM      3  C   UNL     1      48.833   6.719  15.604  0.00  0.00    +0.000 A 
ATOM      4  C   UNL     1      48.616   7.885  16.340  0.00  0.00    +0.000 A 
ATOM      5  C   UNL     1      48.288   9.032  15.629  0.00  0.00    +0.000 A 
ATOM      6  N   UNL     1      48.154   9.083  14.285  0.00  0.00    +0.000 NA
ENDROOT
BRANCH   1   7
ATOM      7  C   UNL     1      48.253   8.003  12.085  0.00  0.00    +0.000 C 
BRANCH   7  10
ATOM      8  O   UNL     1      45.511   7.855  11.768  0.00  0.00    +0.000 OA
ATOM      9  C   UNL     1      46.199   6.922  11.349  0.00  0.00    +0.000 C 
ATOM     10  N   UNL     1      47.557   6.894  11.482  0.00  0.00    +0.000 N 
ATOM     11  H   UNL     1      48.111   6.204  10.978  0.00  0.00    +0.000 HD
BRANCH   9  12
ATOM     12  C   UNL     1      45.593   5.777  10.688  0.00  0.00    +0.000 A 
ATOM     13  C   UNL     1      45.792   5.473   9.348  0.00  0.00    +0.000 A 
ATOM     14  S   UNL     1      45.042   4.002   8.887  0.00  0.00    +0.000 S 
ATOM     15  C   UNL     1      44.435   3.750  10.460  0.00  0.00    +0.000 A 
ATOM     16  N   UNL     1      43.705   2.649  10.779  0.00  0.00    +0.000 NA
ATOM     17  C   UNL     1      43.337   2.596  12.019  0.00  0.00    +0.000 A 
ATOM     18  N   UNL     1      43.622   3.545  12.964  0.00  0.00    +0.000 N 
ATOM     19  C   UNL     1      44.280   4.717  12.678  0.00  0.00    +0.000 A 
ATOM     20  O   UNL     1      44.351   5.606  13.500  0.00  0.00    +0.000 OA
ATOM     21  C   UNL     1      44.770   4.782  11.310  0.00  0.00    +0.000 A 
ATOM     22  H   UNL     1      43.259   3.473  13.902  0.00  0.00    +0.000 HD
ENDBRANCH   9  12
ENDBRANCH   7  10
ENDBRANCH   1   7
BRANCH   4  23
ATOM     23  C   UNL     1      48.740   7.945  17.834  0.00  0.00    +0.000 C 
BRANCH  23  24
ATOM     24  N   UNL     1      47.554   7.479  18.539  0.00  0.00    +0.000 NA
ATOM     25  H   UNL     1      46.826   7.204  17.877  0.00  0.00    +0.000 HD
BRANCH  24  26
ATOM     26  C   UNL     1      47.803   6.311  19.395  0.00  0.00    +0.000 C 
BRANCH  26  27
ATOM     27  C   UNL     1      48.018   5.053  18.567  0.00  0.00    +0.000 A 
ATOM     28  N   UNL     1      46.958   4.620  17.814  0.00  0.00    +0.000 NA
ATOM     29  C   UNL     1      47.123   3.496  17.084  0.00  0.00    +0.000 A 
ATOM     30  C   UNL     1      48.310   2.789  17.025  0.00  0.00    +0.000 A 
ATOM     31  C   UNL     1      49.392   3.257  17.766  0.00  0.00    +0.000 A 
ATOM     32  C   UNL     1      49.252   4.403  18.549  0.00  0.00    +0.000 A 
ATOM     33 CL   UNL     1      50.615   4.956  19.449  0.00  0.00    +0.000 Cl
ENDBRANCH  26  27
ENDBRANCH  24  26
ENDBRANCH  23  24
ENDBRANCH   4  23
TORSDOF 7
ENDMDL
MODEL 7
REMARK VINA RESULT:    -7.272      3.128      4.319
REMARK INTER + INTRA:         -11.146
REMARK INTER:                 -10.120
REMARK INTRA:                  -1.026
REMARK UNBOUND:                -0.898
REMARK  Name = 
REMARK  7 active torsions:
REMARK  status: ('A' for Active; 'I' for Inactive)
REMARK    1  A    between atoms: C_2  and  C_21
REMARK    2  A    between atoms: N_3  and  C_4
REMARK    3  A    between atoms: C_4  and  C_5
REMARK    4  A    between atoms: C_8  and  C_9
REMARK    5  A    between atoms: C_9  and  N_10
REMARK    6  A    between atoms: N_10  and  C_11
REMARK    7  A    between atoms: C_11  and  C_12
REMARK                            x       y       z     vdW  Elec       q    Type
REMARK                         _______ _______ _______ _____ _____    ______ ____
ROOT
ATOM      1  C   UNL     1      48.783   6.513  15.568  0.00  0.00    +0.000 A 
ATOM      2  C   UNL     1      48.658   7.253  14.396  0.00  0.00    +0.000 A 
ATOM      3  C   UNL     1      47.789   6.805  13.405  0.00  0.00    +0.000 A 
ATOM      4  C   UNL     1      47.081   5.616  13.588  0.00  0.00    +0.000 A 
ATOM      5  C   UNL     1      47.285   4.934  14.780  0.00  0.00    +0.000 A 
ATOM      6  N   UNL     1      48.107   5.354  15.768  0.00  0.00    +0.000 NA
ENDROOT
BRANCH   1   7
ATOM      7  C   UNL     1      49.728   6.964  16.658  0.00  0.00    +0.000 C 
BRANCH   7  10
ATOM      8  O   UNL     1      50.263   5.977  19.183  0.00  0.00    +0.000 OA
ATOM      9  C   UNL     1      50.958   5.585  18.244  0.00  0.00    +0.000 C 
ATOM     10  N   UNL     1      50.785   6.034  16.966  0.00  0.00    +0.000 N 
ATOM     11  H   UNL     1      51.251   5.570  16.189  0.00  0.00    +0.000 HD
BRANCH   9  12
ATOM     12  C   UNL     1      52.023   4.615  18.447  0.00  0.00    +0.000 A 
ATOM     13  C   UNL     1      53.219   4.916  19.085  0.00  0.00    +0.000 A 
ATOM     14  S   UNL     1      54.227   3.542  19.276  0.00  0.00    +0.000 S 
ATOM     15  C   UNL     1      53.093   2.529  18.508  0.00  0.00    +0.000 A 
ATOM     16  N   UNL     1      53.312   1.197  18.349  0.00  0.00    +0.000 NA
ATOM     17  C   UNL     1      52.346   0.564  17.765  0.00  0.00    +0.000 A 
ATOM     18  N   UNL     1      51.187   1.140  17.319  0.00  0.00    +0.000 N 
ATOM     19  C   UNL     1      50.949   2.493  17.375  0.00  0.00    +0.000 A 
ATOM     20  O   UNL     1      49.996   2.980  16.806  0.00  0.00    +0.000 OA
ATOM     21  C   UNL     1      51.983   3.229  18.085  0.00  0.00    +0.000 A 
ATOM     22  H   UNL     1      50.494   0.603  16.821  0.00  0.00    +0.000 HD
ENDBRANCH   9  12
ENDBRANCH   7  10
ENDBRANCH   1   7
BRANCH   4  23
ATOM     23  C   UNL     1      46.146   5.054  12.558  0.00  0.00    +0.000 C 
BRANCH  23  24
ATOM     24  N   UNL     1      45.901   5.952  11.438  0.00  0.00    +0.000 NA
ATOM     25  H   UNL     1      46.703   5.968  10.806  0.00  0.00    +0.000 HD
BRANCH  24  26
ATOM     26  C   UNL     1      44.737   5.569  10.625  0.00  0.00    +0.000 C 
BRANCH  26  27
ATOM     27  C   UNL     1      45.089   4.464   9.641  0.00  0.00    +0.000 A 
ATOM     28  N   UNL     1      45.900   4.805   8.591  0.00  0.00    +0.000 NA
ATOM     29  C   UNL     1      46.211   3.842   7.697  0.00  0.00    +0.000 A 
ATOM     30  C   UNL     1      45.791   2.530   7.809  0.00  0.00    +0.000 A 
ATOM     31  C   UNL     1      44.996   2.185   8.899  0.00  0.00    +0.000 A 
ATOM     32  C   UNL     1      44.636   3.158   9.831  0.00  0.00    +0.000 A 
ATOM     33 CL   UNL     1      43.656   2.691  11.171  0.00  0.00    +0.000 Cl
ENDBRANCH  26  27
ENDBRANCH  24  26
ENDBRANCH  23  24
ENDBRANCH   4  23
TORSDOF 7
ENDMDL
MODEL 8
REMARK VINA RESULT:    -6.881      3.696      8.851
REMARK INTER + INTRA:         -10.595
REMARK INTER:                  -9.091
REMARK INTRA:                  -1.504
REMARK UNBOUND:                -0.898
REMARK  Name = 
REMARK  7 active torsions:
REMARK  status: ('A' for Active; 'I' for Inactive)
REMARK    1  A    between atoms: C_2  and  C_21
REMARK    2  A    between atoms: N_3  and  C_4
REMARK    3  A    between atoms: C_4  and  C_5
REMARK    4  A    between atoms: C_8  and  C_9
REMARK    5  A    between atoms: C_9  and  N_10
REMARK    6  A    between atoms: N_10  and  C_11
REMARK    7  A    between atoms: C_11  and  C_12
REMARK                            x       y       z     vdW  Elec       q    Type
REMARK                         _______ _______ _______ _____ _____    ______ ____
ROOT
ATOM      1  C   UNL     1      48.233   7.754  13.779  0.00  0.00    +0.000 A 
ATOM      2  C   UNL     1      47.826   8.671  14.743  0.00  0.00    +0.000 A 
ATOM      3  C   UNL     1      48.490   8.704  15.967  0.00  0.00    +0.000 A 
ATOM      4  C   UNL     1      49.528   7.805  16.217  0.00  0.00    +0.000 A 
ATOM      5  C   UNL     1      49.852   6.912  15.204  0.00  0.00    +0.000 A 
ATOM      6  N   UNL     1      49.239   6.870  14.000  0.00  0.00    +0.000 NA
ENDROOT
BRANCH   1   7
ATOM      7  C   UNL     1      47.526   7.683  12.445  0.00  0.00    +0.000 C 
BRANCH   7  10
ATOM      8  O   UNL     1      44.790   7.297  12.373  0.00  0.00    +0.000 OA
ATOM      9  C   UNL     1      45.522   6.336  12.130  0.00  0.00    +0.000 C 
ATOM     10  N   UNL     1      46.884   6.423  12.166  0.00  0.00    +0.000 N 
ATOM     11  H   UNL     1      47.459   5.669  11.795  0.00  0.00    +0.000 HD
BRANCH   9  12
ATOM     12  C   UNL     1      44.969   5.033  11.797  0.00  0.00    +0.000 A 
ATOM     13  C   UNL     1      44.292   4.233  12.709  0.00  0.00    +0.000 A 
ATOM     14  S   UNL     1      43.659   2.810  11.994  0.00  0.00    +0.000 S 
ATOM     15  C   UNL     1      44.279   3.231  10.464  0.00  0.00    +0.000 A 
ATOM     16  N   UNL     1      44.082   2.448   9.369  0.00  0.00    +0.000 NA
ATOM     17  C   UNL     1      44.599   2.918   8.279  0.00  0.00    +0.000 A 
ATOM     18  N   UNL     1      45.301   4.090   8.185  0.00  0.00    +0.000 N 
ATOM     19  C   UNL     1      45.605   4.875   9.271  0.00  0.00    +0.000 A 
ATOM     20  O   UNL     1      46.379   5.802   9.171  0.00  0.00    +0.000 OA
ATOM     21  C   UNL     1      44.983   4.415  10.504  0.00  0.00    +0.000 A 
ATOM     22  H   UNL     1      45.728   4.375   7.317  0.00  0.00    +0.000 HD
ENDBRANCH   9  12
ENDBRANCH   7  10
ENDBRANCH   1   7
BRANCH   4  23
ATOM     23  C   UNL     1      50.275   7.759  17.517  0.00  0.00    +0.000 C 
BRANCH  23  24
ATOM     24  N   UNL     1      51.048   6.540  17.705  0.00  0.00    +0.000 NA
ATOM     25  H   UNL     1      51.981   6.755  18.061  0.00  0.00    +0.000 HD
BRANCH  24  26
ATOM     26  C   UNL     1      50.442   5.605  18.665  0.00  0.00    +0.000 C 
BRANCH  26  27
ATOM     27  C   UNL     1      49.900   4.367  17.965  0.00  0.00    +0.000 A 
ATOM     28  N   UNL     1      50.807   3.390  17.646  0.00  0.00    +0.000 NA
ATOM     29  C   UNL     1      50.349   2.291  17.010  0.00  0.00    +0.000 A 
ATOM     30  C   UNL     1      49.017   2.083  16.705  0.00  0.00    +0.000 A 
ATOM     31  C   UNL     1      48.098   3.065  17.064  0.00  0.00    +0.000 A 
ATOM     32  C   UNL     1      48.537   4.225  17.703  0.00  0.00    +0.000 A 
ATOM     33 CL   UNL     1      47.370   5.417  18.138  0.00  0.00    +0.000 Cl
ENDBRANCH  26  27
ENDBRANCH  24  26
ENDBRANCH  23  24
ENDBRANCH   4  23
TORSDOF 7
ENDMDL
MODEL 9
REMARK VINA RESULT:    -6.743      4.616      8.437
REMARK INTER + INTRA:         -10.400
REMARK INTER:                  -8.378
REMARK INTRA:                  -2.023
REMARK UNBOUND:                -0.898
REMARK  Name = 
REMARK  7 active torsions:
REMARK  status: ('A' for Active; 'I' for Inactive)
REMARK    1  A    between atoms: C_2  and  C_21
REMARK    2  A    between atoms: N_3  and  C_4
REMARK    3  A    between atoms: C_4  and  C_5
REMARK    4  A    between atoms: C_8  and  C_9
REMARK    5  A    between atoms: C_9  and  N_10
REMARK    6  A    between atoms: N_10  and  C_11
REMARK    7  A    between atoms: C_11  and  C_12
REMARK                            x       y       z     vdW  Elec       q    Type
REMARK                         _______ _______ _______ _____ _____    ______ ____
ROOT
ATOM      1  C   UNL     1      49.076   8.582  15.485  0.00  0.00    +0.000 A 
ATOM      2  C   UNL     1      49.142   8.854  16.848  0.00  0.00    +0.000 A 
ATOM      3  C   UNL     1      50.077   8.177  17.627  0.00  0.00    +0.000 A 
ATOM      4  C   UNL     1      50.910   7.224  17.039  0.00  0.00    +0.000 A 
ATOM      5  C   UNL     1      50.759   7.004  15.676  0.00  0.00    +0.000 A 
ATOM      6  N   UNL     1      49.875   7.660  14.891  0.00  0.00    +0.000 NA
ENDROOT
BRANCH   1   7
ATOM      7  C   UNL     1      48.064   9.290  14.613  0.00  0.00    +0.000 C 
BRANCH   7  10
ATOM      8  O   UNL     1      47.844   8.388  12.010  0.00  0.00    +0.000 OA
ATOM      9  C   UNL     1      46.986   8.040  12.823  0.00  0.00    +0.000 C 
ATOM     10  N   UNL     1      46.997   8.454  14.124  0.00  0.00    +0.000 N 
ATOM     11  H   UNL     1      46.383   8.018  14.810  0.00  0.00    +0.000 HD
BRANCH   9  12
ATOM     12  C   UNL     1      45.891   7.164  12.436  0.00  0.00    +0.000 A 
ATOM     13  C   UNL     1      44.777   7.598  11.731  0.00  0.00    +0.000 A 
ATOM     14  S   UNL     1      43.715   6.316  11.320  0.00  0.00    +0.000 S 
ATOM     15  C   UNL     1      44.717   5.165  12.079  0.00  0.00    +0.000 A 
ATOM     16  N   UNL     1      44.410   3.841  12.087  0.00  0.00    +0.000 NA
ATOM     17  C   UNL     1      45.283   3.096  12.686  0.00  0.00    +0.000 A 
ATOM     18  N   UNL     1      46.427   3.552  13.284  0.00  0.00    +0.000 N 
ATOM     19  C   UNL     1      46.744   4.886  13.382  0.00  0.00    +0.000 A 
ATOM     20  O   UNL     1      47.667   5.256  14.074  0.00  0.00    +0.000 OA
ATOM     21  C   UNL     1      45.821   5.750  12.662  0.00  0.00    +0.000 A 
ATOM     22  H   UNL     1      47.041   2.928  13.783  0.00  0.00    +0.000 HD
ENDBRANCH   9  12
ENDBRANCH   7  10
ENDBRANCH   1   7
BRANCH   4  23
ATOM     23  C   UNL     1      51.924   6.435  17.813  0.00  0.00    +0.000 C 
BRANCH  23  24
ATOM     24  N   UNL     1      51.920   5.012  17.502  0.00  0.00    +0.000 NA
ATOM     25  H   UNL     1      52.871   4.639  17.503  0.00  0.00    +0.000 HD
BRANCH  24  26
ATOM     26  C   UNL     1      51.154   4.205  18.463  0.00  0.00    +0.000 C 
BRANCH  26  27
ATOM     27  C   UNL     1      49.738   3.952  17.968  0.00  0.00    +0.000 A 
ATOM     28  N   UNL     1      49.587   3.019  16.976  0.00  0.00    +0.000 NA
ATOM     29  C   UNL     1      48.340   2.790  16.512  0.00  0.00    +0.000 A 
ATOM     30  C   UNL     1      47.211   3.414  17.012  0.00  0.00    +0.000 A 
ATOM     31  C   UNL     1      47.371   4.335  18.044  0.00  0.00    +0.000 A 
ATOM     32  C   UNL     1      48.647   4.612  18.534  0.00  0.00    +0.000 A 
ATOM     33 CL   UNL     1      48.805   5.754  19.816  0.00  0.00    +0.000 Cl
ENDBRANCH  26  27
ENDBRANCH  24  26
ENDBRANCH  23  24
ENDBRANCH   4  23
TORSDOF 7
ENDMDL
