MODEL 1
REMARK VINA RESULT:    -7.311      0.000      0.000
REMARK INTER + INTRA:         -10.225
REMARK INTER:                  -9.447
REMARK INTRA:                  -0.778
REMARK UNBOUND:                -0.778
REMARK  Name = 
REMARK  5 active torsions:
REMARK  status: ('A' for Active; 'I' for Inactive)
REMARK    1  A    between atoms: C_2  and  C_4
REMARK    2  A    between atoms: C_8  and  O_9
REMARK    3  A    between atoms: O_9  and  C_10
REMARK    4  A    between atoms: C_10  and  C_11
REMARK    5  A    between atoms: C_16  and  C_17
REMARK                            x       y       z     vdW  Elec       q    Type
REMARK                         _______ _______ _______ _____ _____    ______ ____
ROOT
ATOM      1  C   UNL     1      45.668   5.584  11.991  0.00  0.00    +0.000 A 
ATOM      2  C   UNL     1      45.795   4.606  12.980  0.00  0.00    +0.000 A 
ATOM      3  C   UNL     1      46.820   4.700  13.907  0.00  0.00    +0.000 A 
ATOM      4  F   UNL     1      46.942   3.760  14.853  0.00  0.00    +0.000 F 
ATOM      5  C   UNL     1      47.753   5.730  13.845  0.00  0.00    +0.000 A 
ATOM      6  C   UNL     1      47.706   6.675  12.812  0.00  0.00    +0.000 A 
ATOM      7  C   UNL     1      46.598   6.634  11.945  0.00  0.00    +0.000 A 
ENDROOT
BRANCH   6   8
ATOM      8  C   UNL     1      48.832   7.672  12.534  0.00  0.00    +0.000 C 
ATOM      9  C   UNL     1      49.460   8.180  13.853  0.00  0.00    +0.000 C 
ATOM     10  C   UNL     1      48.489   9.095  14.606  0.00  0.00    +0.000 C 
ATOM     11  N   UNL     1      48.123  10.266  13.816  0.00  0.00    +0.000 NA
ATOM     12  C   UNL     1      47.568   9.904  12.510  0.00  0.00    +0.000 C 
ATOM     13  C   UNL     1      48.450   8.927  11.721  0.00  0.00    +0.000 C 
ATOM     14  H   UNL     1      48.948  10.848  13.679  0.00  0.00    +0.000 HD
ENDBRANCH   6   8
BRANCH   1  15
ATOM     15  C   UNL     1      44.553   5.508  10.984  0.00  0.00    +0.000 C 
BRANCH  15  16
ATOM     16  O   UNL     1      45.142   5.413   9.694  0.00  0.00    +0.000 OA
BRANCH  16  21
ATOM     17  C   UNL     1      46.405   2.884   7.440  0.00  0.00    +0.000 A 
ATOM     18  C   UNL     1      45.848   1.708   7.952  0.00  0.00    +0.000 A 
ATOM     19  C   UNL     1      45.044   1.754   9.088  0.00  0.00    +0.000 A 
ATOM     20  C   UNL     1      44.784   2.975   9.712  0.00  0.00    +0.000 A 
ATOM     21  C   UNL     1      45.321   4.155   9.193  0.00  0.00    +0.000 A 
ATOM     22  C   UNL     1      46.121   4.109   8.052  0.00  0.00    +0.000 A 
BRANCH  17  24
ATOM     23  N   UNL     1      48.613   2.567   6.465  0.00  0.00    +0.000 N 
ATOM     24  C   UNL     1      47.283   2.800   6.247  0.00  0.00    +0.000 C 
ATOM     25  O   UNL     1      46.837   2.893   5.111  0.00  0.00    +0.000 OA
ATOM     26  H   UNL     1      49.184   2.409   5.645  0.00  0.00    +0.000 HD
ATOM     27  H   UNL     1      48.973   2.260   7.357  0.00  0.00    +0.000 HD
ENDBRANCH  17  24
ENDBRANCH  16  21
ENDBRANCH  15  16
ENDBRANCH   1  15
TORSDOF 5
ENDMDL
MODEL 2
REMARK VINA RESULT:    -7.152      4.367      7.947
REMARK INTER + INTRA:         -10.020
REMARK INTER:                 -10.043
REMARK INTRA:                   0.023
REMARK UNBOUND:                -0.778
REMARK  Name = 
REMARK  5 active torsions:
REMARK  status: ('A' for Active; 'I' for Inactive)
REMARK    1  A    between atoms: C_2  and  C_4
REMARK    2  A    between atoms: C_8  and  O_9
REMARK    3  A    between atoms: O_9  and  C_10
REMARK    4  A    between atoms: C_10  and  C_11
REMARK    5  A    between atoms: C_16  and  C_17
REMARK                            x       y       z     vdW  Elec       q    Type
REMARK                         _______ _______ _______ _____ _____    ______ ____
ROOT
ATOM      1  C   UNL     1      46.707   4.674  13.373  0.00  0.00    +0.000 A 
ATOM      2  C   UNL     1      47.556   5.750  13.103  0.00  0.00    +0.000 A 
ATOM      3  C   UNL     1      47.196   6.681  12.143  0.00  0.00    +0.000 A 
ATOM      4  F   UNL     1      48.013   7.710  11.883  0.00  0.00    +0.000 F 
ATOM      5  C   UNL     1      46.020   6.543  11.411  0.00  0.00    +0.000 A 
ATOM      6  C   UNL     1      45.192   5.428  11.596  0.00  0.00    +0.000 A 
ATOM      7  C   UNL     1      45.511   4.550  12.649  0.00  0.00    +0.000 A 
ENDROOT
BRANCH   6   8
ATOM      8  C   UNL     1      44.032   5.080  10.662  0.00  0.00    +0.000 C 
ATOM      9  C   UNL     1      42.935   4.290  11.414  0.00  0.00    +0.000 C 
ATOM     10  C   UNL     1      43.416   2.878  11.761  0.00  0.00    +0.000 C 
ATOM     11  N   UNL     1      43.766   2.115  10.567  0.00  0.00    +0.000 NA
ATOM     12  C   UNL     1      44.760   2.800   9.740  0.00  0.00    +0.000 C 
ATOM     13  C   UNL     1      44.386   4.251   9.410  0.00  0.00    +0.000 C 
ATOM     14  H   UNL     1      42.924   1.955  10.014  0.00  0.00    +0.000 HD
ENDBRANCH   6   8
BRANCH   1  15
ATOM     15  C   UNL     1      47.073   3.660  14.422  0.00  0.00    +0.000 C 
BRANCH  15  16
ATOM     16  O   UNL     1      46.557   4.119  15.664  0.00  0.00    +0.000 OA
BRANCH  16  21
ATOM     17  C   UNL     1      49.478   3.176  17.574  0.00  0.00    +0.000 A 
ATOM     18  C   UNL     1      49.342   3.935  18.741  0.00  0.00    +0.000 A 
ATOM     19  C   UNL     1      48.259   4.797  18.890  0.00  0.00    +0.000 A 
ATOM     20  C   UNL     1      47.301   4.898  17.879  0.00  0.00    +0.000 A 
ATOM     21  C   UNL     1      47.420   4.127  16.722  0.00  0.00    +0.000 A 
ATOM     22  C   UNL     1      48.503   3.259  16.576  0.00  0.00    +0.000 A 
BRANCH  17  24
ATOM     23  N   UNL     1      51.742   2.558  18.221  0.00  0.00    +0.000 N 
ATOM     24  C   UNL     1      50.659   2.290  17.430  0.00  0.00    +0.000 C 
ATOM     25  O   UNL     1      50.657   1.333  16.668  0.00  0.00    +0.000 OA
ATOM     26  H   UNL     1      52.500   1.889  18.190  0.00  0.00    +0.000 HD
ATOM     27  H   UNL     1      51.697   3.184  19.012  0.00  0.00    +0.000 HD
ENDBRANCH  17  24
ENDBRANCH  16  21
ENDBRANCH  15  16
ENDBRANCH   1  15
TORSDOF 5
ENDMDL
MODEL 3
REMARK VINA RESULT:    -6.796      4.233      7.791
REMARK INTER + INTRA:          -9.560
REMARK INTER:                  -8.696
REMARK INTRA:                  -0.864
REMARK UNBOUND:                -0.778
REMARK  Name = 
REMARK  5 active torsions:
REMARK  status: ('A' for Active; 'I' for Inactive)
REMARK    1  A    between atoms: C_2  and  C_4
REMARK    2  A    between atoms: C_8  and  O_9
REMARK    3  A    between atoms: O_9  and  C_10
REMARK    4  A    between atoms: C_10  and  C_11
REMARK    5  A    between atoms: C_16  and  C_17
REMARK                            x       y       z     vdW  Elec       q    Type
REMARK                         _______ _______ _______ _____ _____    ______ ____
ROOT
ATOM      1  C   UNL     1      47.232   7.613  12.802  0.00  0.00    +0.000 A 
ATOM      2  C   UNL     1      46.660   8.887  12.761  0.00  0.00    +0.000 A 
ATOM      3  C   UNL     1      45.377   9.044  12.264  0.00  0.00    +0.000 A 
ATOM      4  F   UNL     1      44.831  10.266  12.221  0.00  0.00    +0.000 F 
ATOM      5  C   UNL     1      44.660   7.960  11.766  0.00  0.00    +0.000 A 
ATOM      6  C   UNL     1      45.240   6.686  11.711  0.00  0.00    +0.000 A 
ATOM      7  C   UNL     1      46.498   6.518  12.319  0.00  0.00    +0.000 A 
ENDROOT
BRANCH   6   8
ATOM      8  C   UNL     1      44.619   5.513  10.952  0.00  0.00    +0.000 C 
ATOM      9  C   UNL     1      43.127   5.342  11.322  0.00  0.00    +0.000 C 
ATOM     10  C   UNL     1      42.972   4.830  12.757  0.00  0.00    +0.000 C 
ATOM     11  N   UNL     1      43.619   3.535  12.943  0.00  0.00    +0.000 NA
ATOM     12  C   UNL     1      45.033   3.561  12.564  0.00  0.00    +0.000 C 
ATOM     13  C   UNL     1      45.280   4.134  11.162  0.00  0.00    +0.000 C 
ATOM     14  H   UNL     1      43.135   2.835  12.382  0.00  0.00    +0.000 HD
ENDBRANCH   6   8
BRANCH   1  15
ATOM     15  C   UNL     1      48.619   7.419  13.351  0.00  0.00    +0.000 C 
BRANCH  15  16
ATOM     16  O   UNL     1      48.651   6.159  14.007  0.00  0.00    +0.000 OA
BRANCH  16  21
ATOM     17  C   UNL     1      47.991   4.843  17.309  0.00  0.00    +0.000 A 
ATOM     18  C   UNL     1      48.291   5.926  18.139  0.00  0.00    +0.000 A 
ATOM     19  C   UNL     1      48.742   7.123  17.588  0.00  0.00    +0.000 A 
ATOM     20  C   UNL     1      48.886   7.246  16.205  0.00  0.00    +0.000 A 
ATOM     21  C   UNL     1      48.567   6.174  15.370  0.00  0.00    +0.000 A 
ATOM     22  C   UNL     1      48.109   4.977  15.922  0.00  0.00    +0.000 A 
BRANCH  17  24
ATOM     23  N   UNL     1      48.198   3.157  19.053  0.00  0.00    +0.000 N 
ATOM     24  C   UNL     1      47.543   3.570  17.927  0.00  0.00    +0.000 C 
ATOM     25  O   UNL     1      46.599   2.933  17.477  0.00  0.00    +0.000 OA
ATOM     26  H   UNL     1      47.820   2.346  19.525  0.00  0.00    +0.000 HD
ATOM     27  H   UNL     1      48.815   3.761  19.576  0.00  0.00    +0.000 HD
ENDBRANCH  17  24
ENDBRANCH  16  21
ENDBRANCH  15  16
ENDBRANCH   1  15
TORSDOF 5
ENDMDL
MODEL 4
REMARK VINA RESULT:    -6.781      3.296      7.162
REMARK INTER + INTRA:          -9.541
REMARK INTER:                  -9.200
REMARK INTRA:                  -0.342
REMARK UNBOUND:                -0.778
REMARK  Name = 
REMARK  5 active torsions:
REMARK  status: ('A' for Active; 'I' for Inactive)
REMARK    1  A    between atoms: C_2  and  C_4
REMARK    2  A    between atoms: C_8  and  O_9
REMARK    3  A    between atoms: O_9  and  C_10
REMARK    4  A    between atoms: C_10  and  C_11
REMARK    5  A    between atoms: C_16  and  C_17
REMARK                            x       y       z     vdW  Elec       q    Type
REMARK                         _______ _______ _______ _____ _____    ______ ____
ROOT
ATOM      1  C   UNL     1      47.355   6.613  12.302  0.00  0.00    +0.000 A 
ATOM      2  C   UNL     1      47.443   5.988  13.548  0.00  0.00    +0.000 A 
ATOM      3  C   UNL     1      46.565   4.964  13.863  0.00  0.00    +0.000 A 
ATOM      4  F   UNL     1      46.648   4.369  15.059  0.00  0.00    +0.000 F 
ATOM      5  C   UNL     1      45.567   4.573  12.975  0.00  0.00    +0.000 A 
ATOM      6  C   UNL     1      45.396   5.240  11.755  0.00  0.00    +0.000 A 
ATOM      7  C   UNL     1      46.362   6.201  11.399  0.00  0.00    +0.000 A 
ENDROOT
BRANCH   6   8
ATOM      8  C   UNL     1      44.178   5.040  10.852  0.00  0.00    +0.000 C 
ATOM      9  C   UNL     1      43.047   4.302  11.604  0.00  0.00    +0.000 C 
ATOM     10  C   UNL     1      43.420   2.838  11.857  0.00  0.00    +0.000 C 
ATOM     11  N   UNL     1      43.661   2.117  10.611  0.00  0.00    +0.000 NA
ATOM     12  C   UNL     1      44.680   2.764   9.782  0.00  0.00    +0.000 C 
ATOM     13  C   UNL     1      44.417   4.257   9.545  0.00  0.00    +0.000 C 
ATOM     14  H   UNL     1      42.791   2.057  10.085  0.00  0.00    +0.000 HD
ENDBRANCH   6   8
BRANCH   1  15
ATOM     15  C   UNL     1      48.309   7.717  11.935  0.00  0.00    +0.000 C 
BRANCH  15  16
ATOM     16  O   UNL     1      47.943   8.869  12.683  0.00  0.00    +0.000 OA
BRANCH  16  21
ATOM     17  C   UNL     1      45.049  10.597  11.375  0.00  0.00    +0.000 A 
ATOM     18  C   UNL     1      45.615  11.688  10.710  0.00  0.00    +0.000 A 
ATOM     19  C   UNL     1      46.997  11.865  10.709  0.00  0.00    +0.000 A 
ATOM     20  C   UNL     1      47.819  10.946  11.365  0.00  0.00    +0.000 A 
ATOM     21  C   UNL     1      47.260   9.844  12.013  0.00  0.00    +0.000 A 
ATOM     22  C   UNL     1      45.877   9.665  12.008  0.00  0.00    +0.000 A 
BRANCH  17  24
ATOM     23  N   UNL     1      43.053   9.303  10.858  0.00  0.00    +0.000 N 
ATOM     24  C   UNL     1      43.572  10.453  11.385  0.00  0.00    +0.000 C 
ATOM     25  O   UNL     1      42.845  11.304  11.880  0.00  0.00    +0.000 OA
ATOM     26  H   UNL     1      42.056   9.168  10.962  0.00  0.00    +0.000 HD
ATOM     27  H   UNL     1      43.620   8.492  10.655  0.00  0.00    +0.000 HD
ENDBRANCH  17  24
ENDBRANCH  16  21
ENDBRANCH  15  16
ENDBRANCH   1  15
TORSDOF 5
ENDMDL
MODEL 5
REMARK VINA RESULT:    -6.521      4.453      7.377
REMARK INTER + INTRA:          -9.206
REMARK INTER:                  -8.443
REMARK INTRA:                  -0.763
REMARK UNBOUND:                -0.778
REMARK  Name = 
REMARK  5 active torsions:
REMARK  status: ('A' for Active; 'I' for Inactive)
REMARK    1  A    between atoms: C_2  and  C_4
REMARK    2  A    between atoms: C_8  and  O_9
REMARK    3  A    between atoms: O_9  and  C_10
REMARK    4  A    between atoms: C_10  and  C_11
REMARK    5  A    between atoms: C_16  and  C_17
REMARK                            x       y       z     vdW  Elec       q    Type
REMARK                         _______ _______ _______ _____ _____    ______ ____
ROOT
ATOM      1  C   UNL     1      45.775   8.410  12.400  0.00  0.00    +0.000 A 
ATOM      2  C   UNL     1      47.162   8.308  12.266  0.00  0.00    +0.000 A 
ATOM      3  C   UNL     1      47.760   7.060  12.288  0.00  0.00    +0.000 A 
ATOM      4  F   UNL     1      49.090   6.963  12.164  0.00  0.00    +0.000 F 
ATOM      5  C   UNL     1      47.009   5.905  12.484  0.00  0.00    +0.000 A 
ATOM      6  C   UNL     1      45.629   5.981  12.710  0.00  0.00    +0.000 A 
ATOM      7  C   UNL     1      45.017   7.242  12.574  0.00  0.00    +0.000 A 
ENDROOT
BRANCH   6   8
ATOM      8  C   UNL     1      44.788   4.794  13.181  0.00  0.00    +0.000 C 
ATOM      9  C   UNL     1      45.180   3.503  12.425  0.00  0.00    +0.000 C 
ATOM     10  C   UNL     1      44.735   3.567  10.961  0.00  0.00    +0.000 C 
ATOM     11  N   UNL     1      43.289   3.722  10.841  0.00  0.00    +0.000 NA
ATOM     12  C   UNL     1      42.791   4.888  11.573  0.00  0.00    +0.000 C 
ATOM     13  C   UNL     1      43.259   4.937  13.034  0.00  0.00    +0.000 C 
ATOM     14  H   UNL     1      42.832   2.884  11.196  0.00  0.00    +0.000 HD
ENDBRANCH   6   8
BRANCH   1  15
ATOM     15  C   UNL     1      45.104   9.756  12.363  0.00  0.00    +0.000 C 
BRANCH  15  16
ATOM     16  O   UNL     1      45.466  10.385  11.141  0.00  0.00    +0.000 OA
BRANCH  16  21
ATOM     17  C   UNL     1      42.042  10.904  10.104  0.00  0.00    +0.000 A 
ATOM     18  C   UNL     1      42.177  11.760   9.007  0.00  0.00    +0.000 A 
ATOM     19  C   UNL     1      43.441  12.191   8.611  0.00  0.00    +0.000 A 
ATOM     20  C   UNL     1      44.575  11.761   9.302  0.00  0.00    +0.000 A 
ATOM     21  C   UNL     1      44.447  10.889  10.385  0.00  0.00    +0.000 A 
ATOM     22  C   UNL     1      43.181  10.453  10.777  0.00  0.00    +0.000 A 
BRANCH  17  24
ATOM     23  N   UNL     1      40.585   9.395  11.339  0.00  0.00    +0.000 N 
ATOM     24  C   UNL     1      40.681  10.486  10.522  0.00  0.00    +0.000 C 
ATOM     25  O   UNL     1      39.684  11.113  10.188  0.00  0.00    +0.000 OA
ATOM     26  H   UNL     1      39.665   9.180  11.702  0.00  0.00    +0.000 HD
ATOM     27  H   UNL     1      41.383   8.999  11.815  0.00  0.00    +0.000 HD
ENDBRANCH  17  24
ENDBRANCH  16  21
ENDBRANCH  15  16
ENDBRANCH   1  15
TORSDOF 5
ENDMDL
MODEL 6
REMARK VINA RESULT:    -6.505      4.261      8.568
REMARK INTER + INTRA:          -9.184
REMARK INTER:                  -9.044
REMARK INTRA:                  -0.140
REMARK UNBOUND:                -0.778
REMARK  Name = 
REMARK  5 active torsions:
REMARK  status: ('A' for Active; 'I' for Inactive)
REMARK    1  A    between atoms: C_2  and  C_4
REMARK    2  A    between atoms: C_8  and  O_9
REMARK    3  A    between atoms: O_9  and  C_10
REMARK    4  A    between atoms: C_10  and  C_11
REMARK    5  A    between atoms: C_16  and  C_17
REMARK                            x       y       z     vdW  Elec       q    Type
REMARK                         _______ _______ _______ _____ _____    ______ ____
ROOT
ATOM      1  C   UNL     1      46.538   5.058  13.532  0.00  0.00    +0.000 A 
ATOM      2  C   UNL     1      47.515   5.924  13.036  0.00  0.00    +0.000 A 
ATOM      3  C   UNL     1      47.270   6.637  11.874  0.00  0.00    +0.000 A 
ATOM      4  F   UNL     1      48.210   7.465  11.398  0.00  0.00    +0.000 F 
ATOM      5  C   UNL     1      46.083   6.474  11.166  0.00  0.00    +0.000 A 
ATOM      6  C   UNL     1      45.122   5.547  11.589  0.00  0.00    +0.000 A 
ATOM      7  C   UNL     1      45.333   4.913  12.828  0.00  0.00    +0.000 A 
ENDROOT
BRANCH   6   8
ATOM      8  C   UNL     1      43.923   5.132  10.735  0.00  0.00    +0.000 C 
ATOM      9  C   UNL     1      42.934   4.270  11.553  0.00  0.00    +0.000 C 
ATOM     10  C   UNL     1      43.526   2.889  11.850  0.00  0.00    +0.000 C 
ATOM     11  N   UNL     1      43.836   2.157  10.627  0.00  0.00    +0.000 NA
ATOM     12  C   UNL     1      44.725   2.909   9.739  0.00  0.00    +0.000 C 
ATOM     13  C   UNL     1      44.239   4.336   9.452  0.00  0.00    +0.000 C 
ATOM     14  H   UNL     1      42.970   1.948  10.133  0.00  0.00    +0.000 HD
ENDBRANCH   6   8
BRANCH   1  15
ATOM     15  C   UNL     1      46.779   4.285  14.800  0.00  0.00    +0.000 C 
BRANCH  15  16
ATOM     16  O   UNL     1      48.073   4.630  15.275  0.00  0.00    +0.000 OA
BRANCH  16  21
ATOM     17  C   UNL     1      48.010   5.794  18.698  0.00  0.00    +0.000 A 
ATOM     18  C   UNL     1      48.561   4.719  19.400  0.00  0.00    +0.000 A 
ATOM     19  C   UNL     1      48.950   3.567  18.720  0.00  0.00    +0.000 A 
ATOM     20  C   UNL     1      48.799   3.488  17.334  0.00  0.00    +0.000 A 
ATOM     21  C   UNL     1      48.268   4.568  16.626  0.00  0.00    +0.000 A 
ATOM     22  C   UNL     1      47.884   5.723  17.307  0.00  0.00    +0.000 A 
BRANCH  17  24
ATOM     23  N   UNL     1      47.150   8.071  18.725  0.00  0.00    +0.000 N 
ATOM     24  C   UNL     1      47.576   6.995  19.453  0.00  0.00    +0.000 C 
ATOM     25  O   UNL     1      47.557   7.015  20.676  0.00  0.00    +0.000 OA
ATOM     26  H   UNL     1      46.760   8.845  19.247  0.00  0.00    +0.000 HD
ATOM     27  H   UNL     1      46.935   8.012  17.740  0.00  0.00    +0.000 HD
ENDBRANCH  17  24
ENDBRANCH  16  21
ENDBRANCH  15  16
ENDBRANCH   1  15
TORSDOF 5
ENDMDL
MODEL 7
REMARK VINA RESULT:    -6.477      3.792      5.516
REMARK INTER + INTRA:          -9.148
REMARK INTER:                  -8.527
REMARK INTRA:                  -0.621
REMARK UNBOUND:                -0.778
REMARK  Name = 
REMARK  5 active torsions:
REMARK  status: ('A' for Active; 'I' for Inactive)
REMARK    1  A    between atoms: C_2  and  C_4
REMARK    2  A    between atoms: C_8  and  O_9
REMARK    3  A    between atoms: O_9  and  C_10
REMARK    4  A    between atoms: C_10  and  C_11
REMARK    5  A    between atoms: C_16  and  C_17
REMARK                            x       y       z     vdW  Elec       q    Type
REMARK                         _______ _______ _______ _____ _____    ______ ____
ROOT
ATOM      1  C   UNL     1      48.073   3.837  16.522  0.00  0.00    +0.000 A 
ATOM      2  C   UNL     1      48.728   2.611  16.661  0.00  0.00    +0.000 A 
ATOM      3  C   UNL     1      49.928   2.551  17.351  0.00  0.00    +0.000 A 
ATOM      4  F   UNL     1      50.557   1.376  17.479  0.00  0.00    +0.000 F 
ATOM      5  C   UNL     1      50.515   3.700  17.873  0.00  0.00    +0.000 A 
ATOM      6  C   UNL     1      49.928   4.955  17.673  0.00  0.00    +0.000 A 
ATOM      7  C   UNL     1      48.656   4.989  17.070  0.00  0.00    +0.000 A 
ENDROOT
BRANCH   6   8
ATOM      8  C   UNL     1      50.635   6.273  17.991  0.00  0.00    +0.000 C 
ATOM      9  C   UNL     1      50.215   7.381  16.997  0.00  0.00    +0.000 C 
ATOM     10  C   UNL     1      50.790   7.113  15.603  0.00  0.00    +0.000 C 
ATOM     11  N   UNL     1      52.248   7.067  15.617  0.00  0.00    +0.000 NA
ATOM     12  C   UNL     1      52.765   6.088  16.575  0.00  0.00    +0.000 C 
ATOM     13  C   UNL     1      52.177   6.242  17.984  0.00  0.00    +0.000 C 
ATOM     14  H   UNL     1      52.610   7.989  15.854  0.00  0.00    +0.000 HD
ENDBRANCH   6   8
BRANCH   1  15
ATOM     15  C   UNL     1      46.761   3.920  15.790  0.00  0.00    +0.000 C 
BRANCH  15  16
ATOM     16  O   UNL     1      46.976   3.446  14.467  0.00  0.00    +0.000 OA
BRANCH  16  21
ATOM     17  C   UNL     1      45.052   4.490  11.590  0.00  0.00    +0.000 A 
ATOM     18  C   UNL     1      45.598   5.742  11.291  0.00  0.00    +0.000 A 
ATOM     19  C   UNL     1      46.622   6.262  12.077  0.00  0.00    +0.000 A 
ATOM     20  C   UNL     1      47.114   5.530  13.160  0.00  0.00    +0.000 A 
ATOM     21  C   UNL     1      46.586   4.270  13.450  0.00  0.00    +0.000 A 
ATOM     22  C   UNL     1      45.564   3.747  12.658  0.00  0.00    +0.000 A 
BRANCH  17  24
ATOM     23  N   UNL     1      43.849   4.448   9.473  0.00  0.00    +0.000 N 
ATOM     24  C   UNL     1      43.939   3.976  10.753  0.00  0.00    +0.000 C 
ATOM     25  O   UNL     1      43.157   3.132  11.171  0.00  0.00    +0.000 OA
ATOM     26  H   UNL     1      43.153   4.016   8.880  0.00  0.00    +0.000 HD
ATOM     27  H   UNL     1      44.598   4.958   9.028  0.00  0.00    +0.000 HD
ENDBRANCH  17  24
ENDBRANCH  16  21
ENDBRANCH  15  16
ENDBRANCH   1  15
TORSDOF 5
ENDMDL
MODEL 8
REMARK VINA RESULT:    -6.389      4.560      6.083
REMARK INTER + INTRA:          -9.034
REMARK INTER:                  -8.465
REMARK INTRA:                  -0.569
REMARK UNBOUND:                -0.778
REMARK  Name = 
REMARK  5 active torsions:
REMARK  status: ('A' for Active; 'I' for Inactive)
REMARK    1  A    between atoms: C_2  and  C_4
REMARK    2  A    between atoms: C_8  and  O_9
REMARK    3  A    between atoms: O_9  and  C_10
REMARK    4  A    between atoms: C_10  and  C_11
REMARK    5  A    between atoms: C_16  and  C_17
REMARK                            x       y       z     vdW  Elec       q    Type
REMARK                         _______ _______ _______ _____ _____    ______ ____
ROOT
ATOM      1  C   UNL     1      48.512   3.553  16.636  0.00  0.00    +0.000 A 
ATOM      2  C   UNL     1      49.203   2.339  16.667  0.00  0.00    +0.000 A 
ATOM      3  C   UNL     1      50.416   2.260  17.331  0.00  0.00    +0.000 A 
ATOM      4  F   UNL     1      51.079   1.097  17.356  0.00  0.00    +0.000 F 
ATOM      5  C   UNL     1      50.981   3.379  17.935  0.00  0.00    +0.000 A 
ATOM      6  C   UNL     1      50.356   4.630  17.845  0.00  0.00    +0.000 A 
ATOM      7  C   UNL     1      49.074   4.675  17.266  0.00  0.00    +0.000 A 
ENDROOT
BRANCH   6   8
ATOM      8  C   UNL     1      51.032   5.938  18.257  0.00  0.00    +0.000 C 
ATOM      9  C   UNL     1      51.848   5.753  19.557  0.00  0.00    +0.000 C 
ATOM     10  C   UNL     1      50.924   5.554  20.762  0.00  0.00    +0.000 C 
ATOM     11  N   UNL     1      50.037   6.696  20.960  0.00  0.00    +0.000 NA
ATOM     12  C   UNL     1      49.251   7.004  19.764  0.00  0.00    +0.000 C 
ATOM     13  C   UNL     1      50.101   7.145  18.494  0.00  0.00    +0.000 C 
ATOM     14  H   UNL     1      50.593   7.511  21.214  0.00  0.00    +0.000 HD
ENDBRANCH   6   8
BRANCH   1  15
ATOM     15  C   UNL     1      47.187   3.657  15.932  0.00  0.00    +0.000 C 
BRANCH  15  16
ATOM     16  O   UNL     1      47.377   3.228  14.591  0.00  0.00    +0.000 OA
BRANCH  16  21
ATOM     17  C   UNL     1      45.161   3.954  11.828  0.00  0.00    +0.000 A 
ATOM     18  C   UNL     1      45.448   5.292  11.545  0.00  0.00    +0.000 A 
ATOM     19  C   UNL     1      46.393   5.979  12.304  0.00  0.00    +0.000 A 
ATOM     20  C   UNL     1      47.062   5.328  13.343  0.00  0.00    +0.000 A 
ATOM     21  C   UNL     1      46.793   3.986  13.616  0.00  0.00    +0.000 A 
ATOM     22  C   UNL     1      45.851   3.297  12.851  0.00  0.00    +0.000 A 
BRANCH  17  24
ATOM     23  N   UNL     1      44.549   2.257  10.193  0.00  0.00    +0.000 N 
ATOM     24  C   UNL     1      44.127   3.258  11.023  0.00  0.00    +0.000 C 
ATOM     25  O   UNL     1      42.939   3.534  11.123  0.00  0.00    +0.000 OA
ATOM     26  H   UNL     1      43.829   1.721   9.727  0.00  0.00    +0.000 HD
ATOM     27  H   UNL     1      45.472   1.852  10.255  0.00  0.00    +0.000 HD
ENDBRANCH  17  24
ENDBRANCH  16  21
ENDBRANCH  15  16
ENDBRANCH   1  15
TORSDOF 5
ENDMDL
MODEL 9
REMARK VINA RESULT:    -6.171      3.455      5.100
REMARK INTER + INTRA:          -8.753
REMARK INTER:                  -8.153
REMARK INTRA:                  -0.600
REMARK UNBOUND:                -0.778
REMARK  Name = 
REMARK  5 active torsions:
REMARK  status: ('A' for Active; 'I' for Inactive)
REMARK    1  A    between atoms: C_2  and  C_4
REMARK    2  A    between atoms: C_8  and  O_9
REMARK    3  A    between atoms: O_9  and  C_10
REMARK    4  A    between atoms: C_10  and  C_11
REMARK    5  A    between atoms: C_16  and  C_17
REMARK                            x       y       z     vdW  Elec       q    Type
REMARK                         _______ _______ _______ _____ _____    ______ ____
ROOT
ATOM      1  C   UNL     1      48.194   6.527  13.991  0.00  0.00    +0.000 A 
ATOM      2  C   UNL     1      49.282   7.394  13.863  0.00  0.00    +0.000 A 
ATOM      3  C   UNL     1      50.201   7.493  14.894  0.00  0.00    +0.000 A 
ATOM      4  F   UNL     1      51.241   8.328  14.773  0.00  0.00    +0.000 F 
ATOM      5  C   UNL     1      50.039   6.774  16.075  0.00  0.00    +0.000 A 
ATOM      6  C   UNL     1      48.912   5.964  16.268  0.00  0.00    +0.000 A 
ATOM      7  C   UNL     1      48.046   5.786  15.173  0.00  0.00    +0.000 A 
ENDROOT
BRANCH   6   8
ATOM      8  C   UNL     1      48.540   5.352  17.619  0.00  0.00    +0.000 C 
ATOM      9  C   UNL     1      49.805   4.993  18.432  0.00  0.00    +0.000 C 
ATOM     10  C   UNL     1      50.540   3.804  17.807  0.00  0.00    +0.000 C 
ATOM     11  N   UNL     1      49.699   2.612  17.757  0.00  0.00    +0.000 NA
ATOM     12  C   UNL     1      48.436   2.852  17.057  0.00  0.00    +0.000 C 
ATOM     13  C   UNL     1      47.672   4.077  17.577  0.00  0.00    +0.000 C 
ATOM     14  H   UNL     1      49.501   2.302  18.707  0.00  0.00    +0.000 HD
ENDBRANCH   6   8
BRANCH   1  15
ATOM     15  C   UNL     1      47.192   6.394  12.876  0.00  0.00    +0.000 C 
BRANCH  15  16
ATOM     16  O   UNL     1      45.956   5.998  13.454  0.00  0.00    +0.000 OA
BRANCH  16  21
ATOM     17  C   UNL     1      44.585   4.650  10.391  0.00  0.00    +0.000 A 
ATOM     18  C   UNL     1      43.209   4.667  10.635  0.00  0.00    +0.000 A 
ATOM     19  C   UNL     1      42.722   5.123  11.857  0.00  0.00    +0.000 A 
ATOM     20  C   UNL     1      43.608   5.574  12.838  0.00  0.00    +0.000 A 
ATOM     21  C   UNL     1      44.982   5.579  12.592  0.00  0.00    +0.000 A 
ATOM     22  C   UNL     1      45.468   5.127  11.365  0.00  0.00    +0.000 A 
BRANCH  17  24
ATOM     23  N   UNL     1      44.778   2.831   8.786  0.00  0.00    +0.000 N 
ATOM     24  C   UNL     1      45.076   4.130   9.091  0.00  0.00    +0.000 C 
ATOM     25  O   UNL     1      45.686   4.839   8.302  0.00  0.00    +0.000 OA
ATOM     26  H   UNL     1      45.027   2.516   7.857  0.00  0.00    +0.000 HD
ATOM     27  H   UNL     1      44.092   2.295   9.297  0.00  0.00    +0.000 HD
ENDBRANCH  17  24
ENDBRANCH  16  21
ENDBRANCH  15  16
ENDBRANCH   1  15
TORSDOF 5
ENDMDL
