MODEL 1
REMARK VINA RESULT:    -8.404      0.000      0.000
REMARK INTER + INTRA:         -12.465
REMARK INTER:                 -11.351
REMARK INTRA:                  -1.114
REMARK UNBOUND:                -1.114
REMARK  Name = 
REMARK  7 active torsions:
REMARK  status: ('A' for Active; 'I' for Inactive)
REMARK    1  A    between atoms: C_1  and  N_2
REMARK    2  A    between atoms: N_2  and  C_3
REMARK    3  A    between atoms: C_3  and  C_4
REMARK    4  A    between atoms: C_7  and  C_8
REMARK    5  A    between atoms: C_8  and  N_9
REMARK    6  A    between atoms: C_10  and  C_12
REMARK    7  A    between atoms: C_24  and  C_26
REMARK                            x       y       z     vdW  Elec       q    Type
REMARK                         _______ _______ _______ _____ _____    ______ ____
ROOT
ATOM      1  C   UNL     1      46.625   4.702  13.518  0.00  0.00    +0.000 A 
ATOM      2  C   UNL     1      46.824   4.253  14.836  0.00  0.00    +0.000 A 
ATOM      3  C   UNL     1      47.676   4.940  15.698  0.00  0.00    +0.000 A 
ATOM      4  C   UNL     1      48.330   6.099  15.267  0.00  0.00    +0.000 A 
ATOM      5  C   UNL     1      48.131   6.546  13.954  0.00  0.00    +0.000 A 
ATOM      6  C   UNL     1      47.281   5.857  13.088  0.00  0.00    +0.000 A 
ENDROOT
BRANCH   1   7
ATOM      7  C   UNL     1      45.742   3.915  12.582  0.00  0.00    +0.000 C 
BRANCH   7   9
ATOM      8  C   UNL     1      43.630   5.276  12.910  0.00  0.00    +0.000 C 
ATOM      9  N   UNL     1      44.545   4.553  12.035  0.00  0.00    +0.000 N 
ATOM     10  C   UNL     1      44.134   4.448  10.691  0.00  0.00    +0.000 C 
ATOM     11  O   UNL     1      43.102   5.003  10.301  0.00  0.00    +0.000 OA
BRANCH  10  12
ATOM     12  C   UNL     1      44.926   3.716   9.650  0.00  0.00    +0.000 A 
ATOM     13  C   UNL     1      44.974   2.325   9.507  0.00  0.00    +0.000 A 
ATOM     14  C   UNL     1      45.764   1.728   8.520  0.00  0.00    +0.000 A 
ATOM     15  C   UNL     1      46.453   2.516   7.605  0.00  0.00    +0.000 A 
ATOM     16  C   UNL     1      46.351   3.904   7.677  0.00  0.00    +0.000 A 
ATOM     17  C   UNL     1      45.599   4.497   8.695  0.00  0.00    +0.000 A 
ENDBRANCH  10  12
ENDBRANCH   7   9
ENDBRANCH   1   7
BRANCH   4  18
ATOM     18  C   UNL     1      49.292   6.820  16.174  0.00  0.00    +0.000 C 
BRANCH  18  19
ATOM     19  N   UNL     1      50.338   5.932  16.614  0.00  0.00    +0.000 N 
ATOM     20  C   UNL     1      50.449   5.566  17.928  0.00  0.00    +0.000 C 
ATOM     21  O   UNL     1      49.648   5.950  18.778  0.00  0.00    +0.000 OA
ATOM     22  H   UNL     1      51.116   5.783  15.980  0.00  0.00    +0.000 HD
BRANCH  20  23
ATOM     23  C   UNL     1      51.535   4.637  18.264  0.00  0.00    +0.000 A 
ATOM     24  C   UNL     1      52.636   5.103  18.971  0.00  0.00    +0.000 A 
ATOM     25  S   UNL     1      53.780   3.893  19.332  0.00  0.00    +0.000 S 
ATOM     26  C   UNL     1      52.870   2.712  18.511  0.00  0.00    +0.000 A 
ATOM     27  N   UNL     1      53.312   1.428  18.424  0.00  0.00    +0.000 NA
ATOM     28  C   UNL     1      52.542   0.645  17.747  0.00  0.00    +0.000 A 
ATOM     29  N   UNL     1      51.366   1.028  17.153  0.00  0.00    +0.000 N 
ATOM     30  C   UNL     1      50.864   2.304  17.243  0.00  0.00    +0.000 A 
ATOM     31  O   UNL     1      49.786   2.602  16.738  0.00  0.00    +0.000 OA
ATOM     32  C   UNL     1      51.701   3.230  17.983  0.00  0.00    +0.000 A 
ATOM     33  H   UNL     1      50.805   0.362  16.642  0.00  0.00    +0.000 HD
ENDBRANCH  20  23
ENDBRANCH  18  19
ENDBRANCH   4  18
TORSDOF 6
ENDMDL
MODEL 2
REMARK VINA RESULT:    -8.154      2.559      3.251
REMARK INTER + INTRA:         -12.129
REMARK INTER:                 -11.316
REMARK INTRA:                  -0.813
REMARK UNBOUND:                -1.114
REMARK  Name = 
REMARK  7 active torsions:
REMARK  status: ('A' for Active; 'I' for Inactive)
REMARK    1  A    between atoms: C_1  and  N_2
REMARK    2  A    between atoms: N_2  and  C_3
REMARK    3  A    between atoms: C_3  and  C_4
REMARK    4  A    between atoms: C_7  and  C_8
REMARK    5  A    between atoms: C_8  and  N_9
REMARK    6  A    between atoms: C_10  and  C_12
REMARK    7  A    between atoms: C_24  and  C_26
REMARK                            x       y       z     vdW  Elec       q    Type
REMARK                         _______ _______ _______ _____ _____    ______ ____
ROOT
ATOM      1  C   UNL     1      45.367   6.724  11.391  0.00  0.00    +0.000 A 
ATOM      2  C   UNL     1      45.010   7.947  11.987  0.00  0.00    +0.000 A 
ATOM      3  C   UNL     1      45.854   8.557  12.913  0.00  0.00    +0.000 A 
ATOM      4  C   UNL     1      47.078   7.967  13.246  0.00  0.00    +0.000 A 
ATOM      5  C   UNL     1      47.433   6.749  12.652  0.00  0.00    +0.000 A 
ATOM      6  C   UNL     1      46.588   6.136  11.726  0.00  0.00    +0.000 A 
ENDROOT
BRANCH   1   7
ATOM      7  C   UNL     1      44.416   6.051  10.432  0.00  0.00    +0.000 C 
BRANCH   7   9
ATOM      8  C   UNL     1      42.748   4.912  11.964  0.00  0.00    +0.000 C 
ATOM      9  N   UNL     1      43.709   4.847  10.867  0.00  0.00    +0.000 N 
ATOM     10  C   UNL     1      43.951   3.556  10.358  0.00  0.00    +0.000 C 
ATOM     11  O   UNL     1      43.324   2.580  10.783  0.00  0.00    +0.000 OA
BRANCH  10  12
ATOM     12  C   UNL     1      44.927   3.285   9.253  0.00  0.00    +0.000 A 
ATOM     13  C   UNL     1      45.547   4.264   8.470  0.00  0.00    +0.000 A 
ATOM     14  C   UNL     1      46.427   3.914   7.440  0.00  0.00    +0.000 A 
ATOM     15  C   UNL     1      46.765   2.582   7.233  0.00  0.00    +0.000 A 
ATOM     16  C   UNL     1      46.224   1.598   8.057  0.00  0.00    +0.000 A 
ATOM     17  C   UNL     1      45.308   1.947   9.054  0.00  0.00    +0.000 A 
ENDBRANCH  10  12
ENDBRANCH   7   9
ENDBRANCH   1   7
BRANCH   4  18
ATOM     18  C   UNL     1      47.973   8.593  14.283  0.00  0.00    +0.000 C 
BRANCH  18  19
ATOM     19  N   UNL     1      48.187   7.687  15.382  0.00  0.00    +0.000 N 
ATOM     20  C   UNL     1      49.385   7.046  15.548  0.00  0.00    +0.000 C 
ATOM     21  O   UNL     1      50.334   7.238  14.790  0.00  0.00    +0.000 OA
ATOM     22  H   UNL     1      47.365   7.359  15.880  0.00  0.00    +0.000 HD
BRANCH  20  23
ATOM     23  C   UNL     1      49.505   6.164  16.716  0.00  0.00    +0.000 A 
ATOM     24  C   UNL     1      50.485   6.419  17.665  0.00  0.00    +0.000 A 
ATOM     25  S   UNL     1      50.458   5.343  18.985  0.00  0.00    +0.000 S 
ATOM     26  C   UNL     1      49.166   4.464  18.311  0.00  0.00    +0.000 A 
ATOM     27  N   UNL     1      48.659   3.373  18.946  0.00  0.00    +0.000 NA
ATOM     28  C   UNL     1      47.704   2.782  18.310  0.00  0.00    +0.000 A 
ATOM     29  N   UNL     1      47.206   3.187  17.098  0.00  0.00    +0.000 N 
ATOM     30  C   UNL     1      47.664   4.301  16.435  0.00  0.00    +0.000 A 
ATOM     31  O   UNL     1      47.166   4.661  15.373  0.00  0.00    +0.000 OA
ATOM     32  C   UNL     1      48.750   4.995  17.103  0.00  0.00    +0.000 A 
ATOM     33  H   UNL     1      46.451   2.683  16.655  0.00  0.00    +0.000 HD
ENDBRANCH  20  23
ENDBRANCH  18  19
ENDBRANCH   4  18
TORSDOF 6
ENDMDL
MODEL 3
REMARK VINA RESULT:    -7.807      3.168      4.273
REMARK INTER + INTRA:         -11.659
REMARK INTER:                 -11.033
REMARK INTRA:                  -0.626
REMARK UNBOUND:                -1.114
REMARK  Name = 
REMARK  7 active torsions:
REMARK  status: ('A' for Active; 'I' for Inactive)
REMARK    1  A    between atoms: C_1  and  N_2
REMARK    2  A    between atoms: N_2  and  C_3
REMARK    3  A    between atoms: C_3  and  C_4
REMARK    4  A    between atoms: C_7  and  C_8
REMARK    5  A    between atoms: C_8  and  N_9
REMARK    6  A    between atoms: C_10  and  C_12
REMARK    7  A    between atoms: C_24  and  C_26
REMARK                            x       y       z     vdW  Elec       q    Type
REMARK                         _______ _______ _______ _____ _____    ______ ____
ROOT
ATOM      1  C   UNL     1      45.467   6.757  11.609  0.00  0.00    +0.000 A 
ATOM      2  C   UNL     1      45.214   7.966  12.281  0.00  0.00    +0.000 A 
ATOM      3  C   UNL     1      46.147   8.490  13.174  0.00  0.00    +0.000 A 
ATOM      4  C   UNL     1      47.357   7.826  13.397  0.00  0.00    +0.000 A 
ATOM      5  C   UNL     1      47.609   6.621  12.728  0.00  0.00    +0.000 A 
ATOM      6  C   UNL     1      46.675   6.094  11.836  0.00  0.00    +0.000 A 
ENDROOT
BRANCH   1   7
ATOM      7  C   UNL     1      44.422   6.177  10.689  0.00  0.00    +0.000 C 
BRANCH   7   9
ATOM      8  C   UNL     1      42.723   5.129  12.251  0.00  0.00    +0.000 C 
ATOM      9  N   UNL     1      43.655   5.013  11.134  0.00  0.00    +0.000 N 
ATOM     10  C   UNL     1      43.812   3.713  10.615  0.00  0.00    +0.000 C 
ATOM     11  O   UNL     1      43.139   2.773  11.050  0.00  0.00    +0.000 OA
BRANCH  10  12
ATOM     12  C   UNL     1      44.748   3.391   9.489  0.00  0.00    +0.000 A 
ATOM     13  C   UNL     1      45.358   4.336   8.657  0.00  0.00    +0.000 A 
ATOM     14  C   UNL     1      46.199   3.940   7.611  0.00  0.00    +0.000 A 
ATOM     15  C   UNL     1      46.509   2.596   7.435  0.00  0.00    +0.000 A 
ATOM     16  C   UNL     1      45.980   1.647   8.307  0.00  0.00    +0.000 A 
ATOM     17  C   UNL     1      45.101   2.042   9.320  0.00  0.00    +0.000 A 
ENDBRANCH  10  12
ENDBRANCH   7   9
ENDBRANCH   1   7
BRANCH   4  18
ATOM     18  C   UNL     1      48.350   8.358  14.398  0.00  0.00    +0.000 C 
BRANCH  18  19
ATOM     19  N   UNL     1      48.173   7.719  15.677  0.00  0.00    +0.000 N 
ATOM     20  C   UNL     1      49.073   6.796  16.137  0.00  0.00    +0.000 C 
ATOM     21  O   UNL     1      50.081   6.498  15.498  0.00  0.00    +0.000 OA
ATOM     22  H   UNL     1      47.257   7.791  16.109  0.00  0.00    +0.000 HD
BRANCH  20  23
ATOM     23  C   UNL     1      48.812   6.225  17.464  0.00  0.00    +0.000 A 
ATOM     24  C   UNL     1      49.045   4.874  17.682  0.00  0.00    +0.000 A 
ATOM     25  S   UNL     1      48.748   4.377  19.285  0.00  0.00    +0.000 S 
ATOM     26  C   UNL     1      48.249   5.941  19.734  0.00  0.00    +0.000 A 
ATOM     27  N   UNL     1      47.833   6.203  21.002  0.00  0.00    +0.000 NA
ATOM     28  C   UNL     1      47.452   7.420  21.198  0.00  0.00    +0.000 A 
ATOM     29  N   UNL     1      47.454   8.402  20.240  0.00  0.00    +0.000 N 
ATOM     30  C   UNL     1      47.896   8.193  18.955  0.00  0.00    +0.000 A 
ATOM     31  O   UNL     1      47.926   9.106  18.136  0.00  0.00    +0.000 OA
ATOM     32  C   UNL     1      48.323   6.834  18.679  0.00  0.00    +0.000 A 
ATOM     33  H   UNL     1      47.149   9.339  20.461  0.00  0.00    +0.000 HD
ENDBRANCH  20  23
ENDBRANCH  18  19
ENDBRANCH   4  18
TORSDOF 6
ENDMDL
MODEL 4
REMARK VINA RESULT:    -7.698      3.704      8.815
REMARK INTER + INTRA:         -11.512
REMARK INTER:                  -9.558
REMARK INTRA:                  -1.954
REMARK UNBOUND:                -1.114
REMARK  Name = 
REMARK  7 active torsions:
REMARK  status: ('A' for Active; 'I' for Inactive)
REMARK    1  A    between atoms: C_1  and  N_2
REMARK    2  A    between atoms: N_2  and  C_3
REMARK    3  A    between atoms: C_3  and  C_4
REMARK    4  A    between atoms: C_7  and  C_8
REMARK    5  A    between atoms: C_8  and  N_9
REMARK    6  A    between atoms: C_10  and  C_12
REMARK    7  A    between atoms: C_24  and  C_26
REMARK                            x       y       z     vdW  Elec       q    Type
REMARK                         _______ _______ _______ _____ _____    ______ ____
ROOT
ATOM      1  C   UNL     1      49.144   7.841  16.110  0.00  0.00    +0.000 A 
ATOM      2  C   UNL     1      49.613   6.896  15.180  0.00  0.00    +0.000 A 
ATOM      3  C   UNL     1      49.131   6.890  13.872  0.00  0.00    +0.000 A 
ATOM      4  C   UNL     1      48.190   7.839  13.463  0.00  0.00    +0.000 A 
ATOM      5  C   UNL     1      47.723   8.781  14.390  0.00  0.00    +0.000 A 
ATOM      6  C   UNL     1      48.201   8.786  15.701  0.00  0.00    +0.000 A 
ENDROOT
BRANCH   1   7
ATOM      7  C   UNL     1      49.634   7.798  17.536  0.00  0.00    +0.000 C 
BRANCH   7   9
ATOM      8  C   UNL     1      48.297   8.727  19.478  0.00  0.00    +0.000 C 
ATOM      9  N   UNL     1      48.662   7.611  18.612  0.00  0.00    +0.000 N 
ATOM     10  C   UNL     1      48.090   6.370  18.958  0.00  0.00    +0.000 C 
ATOM     11  O   UNL     1      47.284   6.284  19.891  0.00  0.00    +0.000 OA
BRANCH  10  12
ATOM     12  C   UNL     1      48.370   5.104  18.207  0.00  0.00    +0.000 A 
ATOM     13  C   UNL     1      49.481   4.279  18.410  0.00  0.00    +0.000 A 
ATOM     14  C   UNL     1      49.675   3.127  17.641  0.00  0.00    +0.000 A 
ATOM     15  C   UNL     1      48.714   2.736  16.714  0.00  0.00    +0.000 A 
ATOM     16  C   UNL     1      47.559   3.498  16.557  0.00  0.00    +0.000 A 
ATOM     17  C   UNL     1      47.392   4.676  17.293  0.00  0.00    +0.000 A 
ENDBRANCH  10  12
ENDBRANCH   7   9
ENDBRANCH   1   7
BRANCH   4  18
ATOM     18  C   UNL     1      47.627   7.809  12.067  0.00  0.00    +0.000 C 
BRANCH  18  19
ATOM     19  N   UNL     1      46.944   6.565  11.821  0.00  0.00    +0.000 N 
ATOM     20  C   UNL     1      45.584   6.466  11.951  0.00  0.00    +0.000 C 
ATOM     21  O   UNL     1      44.890   7.436  12.251  0.00  0.00    +0.000 OA
ATOM     22  H   UNL     1      47.510   5.723  11.786  0.00  0.00    +0.000 HD
BRANCH  20  23
ATOM     23  C   UNL     1      44.987   5.159  11.653  0.00  0.00    +0.000 A 
ATOM     24  C   UNL     1      44.295   4.482  12.649  0.00  0.00    +0.000 A 
ATOM     25  S   UNL     1      43.614   3.010  12.130  0.00  0.00    +0.000 S 
ATOM     26  C   UNL     1      44.261   3.198  10.567  0.00  0.00    +0.000 A 
ATOM     27  N   UNL     1      44.062   2.251   9.611  0.00  0.00    +0.000 NA
ATOM     28  C   UNL     1      44.635   2.504   8.483  0.00  0.00    +0.000 A 
ATOM     29  N   UNL     1      45.386   3.622   8.222  0.00  0.00    +0.000 N 
ATOM     30  C   UNL     1      45.588   4.620   9.146  0.00  0.00    +0.000 A 
ATOM     31  O   UNL     1      46.227   5.628   8.865  0.00  0.00    +0.000 OA
ATOM     32  C   UNL     1      44.974   4.377  10.439  0.00  0.00    +0.000 A 
ATOM     33  H   UNL     1      45.803   3.763   7.313  0.00  0.00    +0.000 HD
ENDBRANCH  20  23
ENDBRANCH  18  19
ENDBRANCH   4  18
TORSDOF 6
ENDMDL
MODEL 5
REMARK VINA RESULT:    -7.598      3.756      8.764
REMARK INTER + INTRA:         -11.378
REMARK INTER:                  -9.194
REMARK INTRA:                  -2.184
REMARK UNBOUND:                -1.114
REMARK  Name = 
REMARK  7 active torsions:
REMARK  status: ('A' for Active; 'I' for Inactive)
REMARK    1  A    between atoms: C_1  and  N_2
REMARK    2  A    between atoms: N_2  and  C_3
REMARK    3  A    between atoms: C_3  and  C_4
REMARK    4  A    between atoms: C_7  and  C_8
REMARK    5  A    between atoms: C_8  and  N_9
REMARK    6  A    between atoms: C_10  and  C_12
REMARK    7  A    between atoms: C_24  and  C_26
REMARK                            x       y       z     vdW  Elec       q    Type
REMARK                         _______ _______ _______ _____ _____    ______ ____
ROOT
ATOM      1  C   UNL     1      50.250   6.792  18.283  0.00  0.00    +0.000 A 
ATOM      2  C   UNL     1      50.744   6.389  17.030  0.00  0.00    +0.000 A 
ATOM      3  C   UNL     1      50.196   6.900  15.854  0.00  0.00    +0.000 A 
ATOM      4  C   UNL     1      49.161   7.838  15.910  0.00  0.00    +0.000 A 
ATOM      5  C   UNL     1      48.669   8.240  17.159  0.00  0.00    +0.000 A 
ATOM      6  C   UNL     1      49.214   7.726  18.337  0.00  0.00    +0.000 A 
ENDROOT
BRANCH   1   7
ATOM      7  C   UNL     1      50.817   6.186  19.543  0.00  0.00    +0.000 C 
BRANCH   7   9
ATOM      8  C   UNL     1      50.033   6.079  21.951  0.00  0.00    +0.000 C 
ATOM      9  N   UNL     1      49.896   5.672  20.557  0.00  0.00    +0.000 N 
ATOM     10  C   UNL     1      48.901   4.706  20.309  0.00  0.00    +0.000 C 
ATOM     11  O   UNL     1      48.166   4.307  21.218  0.00  0.00    +0.000 OA
BRANCH  10  12
ATOM     12  C   UNL     1      48.633   4.142  18.946  0.00  0.00    +0.000 A 
ATOM     13  C   UNL     1      49.370   3.120  18.340  0.00  0.00    +0.000 A 
ATOM     14  C   UNL     1      49.062   2.675  17.050  0.00  0.00    +0.000 A 
ATOM     15  C   UNL     1      47.957   3.188  16.379  0.00  0.00    +0.000 A 
ATOM     16  C   UNL     1      47.159   4.146  17.000  0.00  0.00    +0.000 A 
ATOM     17  C   UNL     1      47.499   4.623  18.270  0.00  0.00    +0.000 A 
ENDBRANCH  10  12
ENDBRANCH   7   9
ENDBRANCH   1   7
BRANCH   4  18
ATOM     18  C   UNL     1      48.529   8.359  14.645  0.00  0.00    +0.000 C 
BRANCH  18  19
ATOM     19  N   UNL     1      47.489   7.470  14.194  0.00  0.00    +0.000 N 
ATOM     20  C   UNL     1      47.744   6.493  13.270  0.00  0.00    +0.000 C 
ATOM     21  O   UNL     1      48.870   6.313  12.811  0.00  0.00    +0.000 OA
ATOM     22  H   UNL     1      46.530   7.738  14.395  0.00  0.00    +0.000 HD
BRANCH  20  23
ATOM     23  C   UNL     1      46.619   5.627  12.899  0.00  0.00    +0.000 A 
ATOM     24  C   UNL     1      46.717   4.257  13.104  0.00  0.00    +0.000 A 
ATOM     25  S   UNL     1      45.310   3.398  12.676  0.00  0.00    +0.000 S 
ATOM     26  C   UNL     1      44.535   4.820  12.153  0.00  0.00    +0.000 A 
ATOM     27  N   UNL     1      43.276   4.779  11.639  0.00  0.00    +0.000 NA
ATOM     28  C   UNL     1      42.821   5.923  11.252  0.00  0.00    +0.000 A 
ATOM     29  N   UNL     1      43.510   7.106  11.338  0.00  0.00    +0.000 N 
ATOM     30  C   UNL     1      44.770   7.201  11.880  0.00  0.00    +0.000 A 
ATOM     31  O   UNL     1      45.339   8.283  11.982  0.00  0.00    +0.000 OA
ATOM     32  C   UNL     1      45.333   5.938  12.318  0.00  0.00    +0.000 A 
ATOM     33  H   UNL     1      43.093   7.970  11.022  0.00  0.00    +0.000 HD
ENDBRANCH  20  23
ENDBRANCH  18  19
ENDBRANCH   4  18
TORSDOF 6
ENDMDL
MODEL 6
REMARK VINA RESULT:    -7.575      3.883      8.611
REMARK INTER + INTRA:         -11.346
REMARK INTER:                  -9.593
REMARK INTRA:                  -1.754
REMARK UNBOUND:                -1.114
REMARK  Name = 
REMARK  7 active torsions:
REMARK  status: ('A' for Active; 'I' for Inactive)
REMARK    1  A    between atoms: C_1  and  N_2
REMARK    2  A    between atoms: N_2  and  C_3
REMARK    3  A    between atoms: C_3  and  C_4
REMARK    4  A    between atoms: C_7  and  C_8
REMARK    5  A    between atoms: C_8  and  N_9
REMARK    6  A    between atoms: C_10  and  C_12
REMARK    7  A    between atoms: C_24  and  C_26
REMARK                            x       y       z     vdW  Elec       q    Type
REMARK                         _______ _______ _______ _____ _____    ______ ____
ROOT
ATOM      1  C   UNL     1      49.035   7.694  16.214  0.00  0.00    +0.000 A 
ATOM      2  C   UNL     1      48.287   8.807  15.791  0.00  0.00    +0.000 A 
ATOM      3  C   UNL     1      47.974   8.980  14.443  0.00  0.00    +0.000 A 
ATOM      4  C   UNL     1      48.385   8.036  13.498  0.00  0.00    +0.000 A 
ATOM      5  C   UNL     1      49.131   6.927  13.920  0.00  0.00    +0.000 A 
ATOM      6  C   UNL     1      49.447   6.753  15.268  0.00  0.00    +0.000 A 
ENDROOT
BRANCH   1   7
ATOM      7  C   UNL     1      49.411   7.551  17.667  0.00  0.00    +0.000 C 
BRANCH   7   9
ATOM      8  C   UNL     1      47.919   8.383  19.540  0.00  0.00    +0.000 C 
ATOM      9  N   UNL     1      48.356   7.311  18.651  0.00  0.00    +0.000 N 
ATOM     10  C   UNL     1      47.761   6.056  18.887  0.00  0.00    +0.000 C 
ATOM     11  O   UNL     1      46.883   5.924  19.746  0.00  0.00    +0.000 OA
BRANCH  10  12
ATOM     12  C   UNL     1      48.105   4.829  18.098  0.00  0.00    +0.000 A 
ATOM     13  C   UNL     1      47.358   4.327  17.028  0.00  0.00    +0.000 A 
ATOM     14  C   UNL     1      47.743   3.156  16.366  0.00  0.00    +0.000 A 
ATOM     15  C   UNL     1      48.928   2.516  16.710  0.00  0.00    +0.000 A 
ATOM     16  C   UNL     1      49.731   3.048  17.716  0.00  0.00    +0.000 A 
ATOM     17  C   UNL     1      49.318   4.191  18.409  0.00  0.00    +0.000 A 
ENDBRANCH  10  12
ENDBRANCH   7   9
ENDBRANCH   1   7
BRANCH   4  18
ATOM     18  C   UNL     1      48.096   8.240  12.034  0.00  0.00    +0.000 C 
BRANCH  18  19
ATOM     19  N   UNL     1      47.462   7.074  11.474  0.00  0.00    +0.000 N 
ATOM     20  C   UNL     1      46.099   6.979  11.393  0.00  0.00    +0.000 C 
ATOM     21  O   UNL     1      45.362   7.892  11.763  0.00  0.00    +0.000 OA
ATOM     22  H   UNL     1      48.033   6.242  11.366  0.00  0.00    +0.000 HD
BRANCH  20  23
ATOM     23  C   UNL     1      45.558   5.759  10.782  0.00  0.00    +0.000 A 
ATOM     24  C   UNL     1      45.781   5.515   9.434  0.00  0.00    +0.000 A 
ATOM     25  S   UNL     1      45.139   4.034   8.890  0.00  0.00    +0.000 S 
ATOM     26  C   UNL     1      44.495   3.687  10.426  0.00  0.00    +0.000 A 
ATOM     27  N   UNL     1      43.788   2.545  10.644  0.00  0.00    +0.000 NA
ATOM     28  C   UNL     1      43.330   2.422  11.845  0.00  0.00    +0.000 A 
ATOM     29  N   UNL     1      43.520   3.337  12.849  0.00  0.00    +0.000 N 
ATOM     30  C   UNL     1      44.254   4.488  12.685  0.00  0.00    +0.000 A 
ATOM     31  O   UNL     1      44.441   5.262  13.618  0.00  0.00    +0.000 OA
ATOM     32  C   UNL     1      44.780   4.680  11.346  0.00  0.00    +0.000 A 
ATOM     33  H   UNL     1      43.139   3.177  13.771  0.00  0.00    +0.000 HD
ENDBRANCH  20  23
ENDBRANCH  18  19
ENDBRANCH   4  18
TORSDOF 6
ENDMDL
MODEL 7
REMARK VINA RESULT:    -7.547      3.568     10.062
REMARK INTER + INTRA:         -11.309
REMARK INTER:                  -9.600
REMARK INTRA:                  -1.709
REMARK UNBOUND:                -1.114
REMARK  Name = 
REMARK  7 active torsions:
REMARK  status: ('A' for Active; 'I' for Inactive)
REMARK    1  A    between atoms: C_1  and  N_2
REMARK    2  A    between atoms: N_2  and  C_3
REMARK    3  A    between atoms: C_3  and  C_4
REMARK    4  A    between atoms: C_7  and  C_8
REMARK    5  A    between atoms: C_8  and  N_9
REMARK    6  A    between atoms: C_10  and  C_12
REMARK    7  A    between atoms: C_24  and  C_26
REMARK                            x       y       z     vdW  Elec       q    Type
REMARK                         _______ _______ _______ _____ _____    ______ ____
ROOT
ATOM      1  C   UNL     1      51.299   4.241  17.734  0.00  0.00    +0.000 A 
ATOM      2  C   UNL     1      50.775   2.936  17.727  0.00  0.00    +0.000 A 
ATOM      3  C   UNL     1      49.440   2.709  17.399  0.00  0.00    +0.000 A 
ATOM      4  C   UNL     1      48.608   3.779  17.052  0.00  0.00    +0.000 A 
ATOM      5  C   UNL     1      49.131   5.080  17.060  0.00  0.00    +0.000 A 
ATOM      6  C   UNL     1      50.467   5.308  17.391  0.00  0.00    +0.000 A 
ENDROOT
BRANCH   1   7
ATOM      7  C   UNL     1      52.731   4.473  18.147  0.00  0.00    +0.000 C 
BRANCH   7   9
ATOM      8  C   UNL     1      54.220   2.963  19.535  0.00  0.00    +0.000 C 
ATOM      9  N   UNL     1      53.180   3.983  19.450  0.00  0.00    +0.000 N 
ATOM     10  C   UNL     1      52.607   4.361  20.680  0.00  0.00    +0.000 C 
ATOM     11  O   UNL     1      53.029   3.895  21.744  0.00  0.00    +0.000 OA
BRANCH  10  12
ATOM     12  C   UNL     1      51.505   5.371  20.791  0.00  0.00    +0.000 A 
ATOM     13  C   UNL     1      51.655   6.748  20.598  0.00  0.00    +0.000 A 
ATOM     14  C   UNL     1      50.572   7.620  20.750  0.00  0.00    +0.000 A 
ATOM     15  C   UNL     1      49.302   7.118  21.014  0.00  0.00    +0.000 A 
ATOM     16  C   UNL     1      49.116   5.742  21.125  0.00  0.00    +0.000 A 
ATOM     17  C   UNL     1      50.210   4.877  21.021  0.00  0.00    +0.000 A 
ENDBRANCH  10  12
ENDBRANCH   7   9
ENDBRANCH   1   7
BRANCH   4  18
ATOM     18  C   UNL     1      47.152   3.550  16.745  0.00  0.00    +0.000 C 
BRANCH  18  19
ATOM     19  N   UNL     1      46.686   4.495  15.762  0.00  0.00    +0.000 N 
ATOM     20  C   UNL     1      46.801   4.238  14.423  0.00  0.00    +0.000 C 
ATOM     21  O   UNL     1      47.275   3.183  14.003  0.00  0.00    +0.000 OA
ATOM     22  H   UNL     1      46.495   5.440  16.080  0.00  0.00    +0.000 HD
BRANCH  20  23
ATOM     23  C   UNL     1      46.271   5.256  13.508  0.00  0.00    +0.000 A 
ATOM     24  C   UNL     1      47.058   6.352  13.178  0.00  0.00    +0.000 A 
ATOM     25  S   UNL     1      46.325   7.411  12.064  0.00  0.00    +0.000 S 
ATOM     26  C   UNL     1      44.907   6.470  12.019  0.00  0.00    +0.000 A 
ATOM     27  N   UNL     1      43.847   6.843  11.253  0.00  0.00    +0.000 NA
ATOM     28  C   UNL     1      42.826   6.058  11.338  0.00  0.00    +0.000 A 
ATOM     29  N   UNL     1      42.771   4.930  12.117  0.00  0.00    +0.000 N 
ATOM     30  C   UNL     1      43.829   4.497  12.881  0.00  0.00    +0.000 A 
ATOM     31  O   UNL     1      43.761   3.458  13.531  0.00  0.00    +0.000 OA
ATOM     32  C   UNL     1      44.999   5.354  12.832  0.00  0.00    +0.000 A 
ATOM     33  H   UNL     1      41.942   4.353  12.133  0.00  0.00    +0.000 HD
ENDBRANCH  20  23
ENDBRANCH  18  19
ENDBRANCH   4  18
TORSDOF 6
ENDMDL
MODEL 8
REMARK VINA RESULT:    -7.489      3.532      4.099
REMARK INTER + INTRA:         -11.230
REMARK INTER:                 -10.199
REMARK INTRA:                  -1.031
REMARK UNBOUND:                -1.114
REMARK  Name = 
REMARK  7 active torsions:
REMARK  status: ('A' for Active; 'I' for Inactive)
REMARK    1  A    between atoms: C_1  and  N_2
REMARK    2  A    between atoms: N_2  and  C_3
REMARK    3  A    between atoms: C_3  and  C_4
REMARK    4  A    between atoms: C_7  and  C_8
REMARK    5  A    between atoms: C_8  and  N_9
REMARK    6  A    between atoms: C_10  and  C_12
REMARK    7  A    between atoms: C_24  and  C_26
REMARK                            x       y       z     vdW  Elec       q    Type
REMARK                         _______ _______ _______ _____ _____    ______ ____
ROOT
ATOM      1  C   UNL     1      46.450   4.790  13.310  0.00  0.00    +0.000 A 
ATOM      2  C   UNL     1      46.894   4.474  14.607  0.00  0.00    +0.000 A 
ATOM      3  C   UNL     1      47.849   5.266  15.241  0.00  0.00    +0.000 A 
ATOM      4  C   UNL     1      48.363   6.399  14.602  0.00  0.00    +0.000 A 
ATOM      5  C   UNL     1      47.919   6.714  13.311  0.00  0.00    +0.000 A 
ATOM      6  C   UNL     1      46.966   5.920  12.673  0.00  0.00    +0.000 A 
ENDROOT
BRANCH   1   7
ATOM      7  C   UNL     1      45.457   3.891  12.617  0.00  0.00    +0.000 C 
BRANCH   7   9
ATOM      8  C   UNL     1      43.274   5.153  12.875  0.00  0.00    +0.000 C 
ATOM      9  N   UNL     1      44.256   4.484  12.028  0.00  0.00    +0.000 N 
ATOM     10  C   UNL     1      43.906   4.381  10.668  0.00  0.00    +0.000 C 
ATOM     11  O   UNL     1      42.867   4.896  10.242  0.00  0.00    +0.000 OA
BRANCH  10  12
ATOM     12  C   UNL     1      44.772   3.700   9.651  0.00  0.00    +0.000 A 
ATOM     13  C   UNL     1      44.861   2.316   9.469  0.00  0.00    +0.000 A 
ATOM     14  C   UNL     1      45.719   1.768   8.510  0.00  0.00    +0.000 A 
ATOM     15  C   UNL     1      46.438   2.600   7.659  0.00  0.00    +0.000 A 
ATOM     16  C   UNL     1      46.297   3.982   7.766  0.00  0.00    +0.000 A 
ATOM     17  C   UNL     1      45.476   4.526   8.759  0.00  0.00    +0.000 A 
ENDBRANCH  10  12
ENDBRANCH   7   9
ENDBRANCH   1   7
BRANCH   4  18
ATOM     18  C   UNL     1      49.431   7.232  15.260  0.00  0.00    +0.000 C 
BRANCH  18  19
ATOM     19  N   UNL     1      49.147   7.409  16.661  0.00  0.00    +0.000 N 
ATOM     20  C   UNL     1      48.425   8.484  17.106  0.00  0.00    +0.000 C 
ATOM     21  O   UNL     1      47.965   9.321  16.332  0.00  0.00    +0.000 OA
ATOM     22  H   UNL     1      49.690   6.858  17.318  0.00  0.00    +0.000 HD
BRANCH  20  23
ATOM     23  C   UNL     1      48.171   8.554  18.550  0.00  0.00    +0.000 A 
ATOM     24  C   UNL     1      48.235   9.783  19.194  0.00  0.00    +0.000 A 
ATOM     25  S   UNL     1      47.860   9.707  20.854  0.00  0.00    +0.000 S 
ATOM     26  C   UNL     1      47.648   8.020  20.784  0.00  0.00    +0.000 A 
ATOM     27  N   UNL     1      47.327   7.310  21.900  0.00  0.00    +0.000 NA
ATOM     28  C   UNL     1      47.229   6.037  21.712  0.00  0.00    +0.000 A 
ATOM     29  N   UNL     1      47.416   5.409  20.507  0.00  0.00    +0.000 N 
ATOM     30  C   UNL     1      47.709   6.087  19.347  0.00  0.00    +0.000 A 
ATOM     31  O   UNL     1      47.825   5.498  18.277  0.00  0.00    +0.000 OA
ATOM     32  C   UNL     1      47.844   7.523  19.507  0.00  0.00    +0.000 A 
ATOM     33  H   UNL     1      47.317   4.408  20.426  0.00  0.00    +0.000 HD
ENDBRANCH  20  23
ENDBRANCH  18  19
ENDBRANCH   4  18
TORSDOF 6
ENDMDL
MODEL 9
REMARK VINA RESULT:    -7.345      3.934      8.505
REMARK INTER + INTRA:         -11.035
REMARK INTER:                  -8.966
REMARK INTRA:                  -2.069
REMARK UNBOUND:                -1.114
REMARK  Name = 
REMARK  7 active torsions:
REMARK  status: ('A' for Active; 'I' for Inactive)
REMARK    1  A    between atoms: C_1  and  N_2
REMARK    2  A    between atoms: N_2  and  C_3
REMARK    3  A    between atoms: C_3  and  C_4
REMARK    4  A    between atoms: C_7  and  C_8
REMARK    5  A    between atoms: C_8  and  N_9
REMARK    6  A    between atoms: C_10  and  C_12
REMARK    7  A    between atoms: C_24  and  C_26
REMARK                            x       y       z     vdW  Elec       q    Type
REMARK                         _______ _______ _______ _____ _____    ______ ____
ROOT
ATOM      1  C   UNL     1      50.044   6.995  17.575  0.00  0.00    +0.000 A 
ATOM      2  C   UNL     1      49.167   8.074  17.788  0.00  0.00    +0.000 A 
ATOM      3  C   UNL     1      48.518   8.681  16.715  0.00  0.00    +0.000 A 
ATOM      4  C   UNL     1      48.717   8.211  15.413  0.00  0.00    +0.000 A 
ATOM      5  C   UNL     1      49.590   7.136  15.201  0.00  0.00    +0.000 A 
ATOM      6  C   UNL     1      50.243   6.528  16.275  0.00  0.00    +0.000 A 
ENDROOT
BRANCH   1   7
ATOM      7  C   UNL     1      50.780   6.385  18.742  0.00  0.00    +0.000 C 
BRANCH   7   9
ATOM      8  C   UNL     1      50.303   6.537  21.227  0.00  0.00    +0.000 C 
ATOM      9  N   UNL     1      50.018   5.962  19.916  0.00  0.00    +0.000 N 
ATOM     10  C   UNL     1      49.052   4.937  19.908  0.00  0.00    +0.000 C 
ATOM     11  O   UNL     1      48.455   4.621  20.943  0.00  0.00    +0.000 OA
BRANCH  10  12
ATOM     12  C   UNL     1      48.648   4.205  18.663  0.00  0.00    +0.000 A 
ATOM     13  C   UNL     1      47.516   4.491  17.895  0.00  0.00    +0.000 A 
ATOM     14  C   UNL     1      47.203   3.735  16.760  0.00  0.00    +0.000 A 
ATOM     15  C   UNL     1      48.067   2.734  16.329  0.00  0.00    +0.000 A 
ATOM     16  C   UNL     1      49.244   2.490  17.032  0.00  0.00    +0.000 A 
ATOM     17  C   UNL     1      49.528   3.215  18.193  0.00  0.00    +0.000 A 
ENDBRANCH  10  12
ENDBRANCH   7   9
ENDBRANCH   1   7
BRANCH   4  18
ATOM     18  C   UNL     1      48.059   8.893  14.242  0.00  0.00    +0.000 C 
BRANCH  18  19
ATOM     19  N   UNL     1      46.909   8.146  13.800  0.00  0.00    +0.000 N 
ATOM     20  C   UNL     1      46.930   7.444  12.625  0.00  0.00    +0.000 C 
ATOM     21  O   UNL     1      47.934   7.396  11.917  0.00  0.00    +0.000 OA
ATOM     22  H   UNL     1      46.023   8.347  14.252  0.00  0.00    +0.000 HD
BRANCH  20  23
ATOM     23  C   UNL     1      45.714   6.698  12.281  0.00  0.00    +0.000 A 
ATOM     24  C   UNL     1      44.622   7.377  11.759  0.00  0.00    +0.000 A 
ATOM     25  S   UNL     1      43.312   6.365  11.359  0.00  0.00    +0.000 S 
ATOM     26  C   UNL     1      44.138   4.985  11.916  0.00  0.00    +0.000 A 
ATOM     27  N   UNL     1      43.553   3.758  11.876  0.00  0.00    +0.000 NA
ATOM     28  C   UNL     1      44.277   2.805  12.359  0.00  0.00    +0.000 A 
ATOM     29  N   UNL     1      45.538   2.968  12.874  0.00  0.00    +0.000 N 
ATOM     30  C   UNL     1      46.182   4.183  12.906  0.00  0.00    +0.000 A 
ATOM     31  O   UNL     1      47.328   4.285  13.333  0.00  0.00    +0.000 OA
ATOM     32  C   UNL     1      45.403   5.291  12.386  0.00  0.00    +0.000 A 
ATOM     33  H   UNL     1      46.055   2.178  13.231  0.00  0.00    +0.000 HD
ENDBRANCH  20  23
ENDBRANCH  18  19
ENDBRANCH   4  18
TORSDOF 6
ENDMDL
