MODEL 1
REMARK VINA RESULT:    -8.304      0.000      0.000
REMARK INTER + INTRA:         -11.817
REMARK INTER:                 -10.731
REMARK INTRA:                  -1.085
REMARK UNBOUND:                -1.085
REMARK  Name = 
REMARK  6 active torsions:
REMARK  status: ('A' for Active; 'I' for Inactive)
REMARK    1  A    between atoms: C_1  and  C_2
REMARK    2  A    between atoms: C_2  and  N_3
REMARK    3  A    between atoms: C_2  and  C_16
REMARK    4  A    between atoms: C_4  and  C_6
REMARK    5  A    between atoms: C_19  and  O_20
REMARK    6  A    between atoms: O_20  and  C_21
REMARK                            x       y       z     vdW  Elec       q    Type
REMARK                         _______ _______ _______ _____ _____    ______ ____
ROOT
ATOM      1  C   UNL     1      43.841   2.748  11.060  0.00  0.00    +0.000 C 
ATOM      2  C   UNL     1      44.183   3.842  10.039  0.00  0.00    +0.000 C 
ENDROOT
BRANCH   2   3
ATOM      3  C   UNL     1      45.054   3.254   8.938  0.00  0.00    +0.000 A 
ATOM      4  C   UNL     1      45.362   1.887   8.947  0.00  0.00    +0.000 A 
ATOM      5  C   UNL     1      46.223   1.348   7.990  0.00  0.00    +0.000 A 
ATOM      6  C   UNL     1      46.754   2.153   6.979  0.00  0.00    +0.000 A 
ATOM      7  C   UNL     1      46.450   3.514   6.956  0.00  0.00    +0.000 A 
ATOM      8  C   UNL     1      45.598   4.058   7.923  0.00  0.00    +0.000 A 
BRANCH   6   9
ATOM      9  O   UNL     1      47.644   1.709   6.026  0.00  0.00    +0.000 OA
BRANCH   9  10
ATOM     10  C   UNL     1      47.158   0.976   4.955  0.00  0.00    +0.000 A 
ATOM     11  C   UNL     1      46.463   1.679   3.978  0.00  0.00    +0.000 A 
ATOM     12  C   UNL     1      45.978   0.976   2.881  0.00  0.00    +0.000 A 
ATOM     13  C   UNL     1      46.199  -0.395   2.794  0.00  0.00    +0.000 A 
ATOM     14  C   UNL     1      46.880  -1.014   3.828  0.00  0.00    +0.000 A 
ATOM     15  N   UNL     1      47.345  -0.364   4.911  0.00  0.00    +0.000 NA
ENDBRANCH   9  10
ENDBRANCH   6   9
ENDBRANCH   2   3
BRANCH   2  16
ATOM     16  N   UNL     1      44.842   4.987  10.643  0.00  0.00    +0.000 N 
ATOM     17  C   UNL     1      44.136   5.992  11.260  0.00  0.00    +0.000 C 
ATOM     18  O   UNL     1      42.916   5.962  11.394  0.00  0.00    +0.000 OA
ATOM     19  H   UNL     1      45.762   5.216  10.275  0.00  0.00    +0.000 HD
BRANCH  17  20
ATOM     20  C   UNL     1      44.922   7.092  11.824  0.00  0.00    +0.000 A 
ATOM     21  C   UNL     1      44.671   8.395  11.414  0.00  0.00    +0.000 A 
ATOM     22  S   UNL     1      45.674   9.550  12.166  0.00  0.00    +0.000 S 
ATOM     23  C   UNL     1      46.506   8.344  13.032  0.00  0.00    +0.000 A 
ATOM     24  N   UNL     1      47.544   8.659  13.851  0.00  0.00    +0.000 NA
ATOM     25  C   UNL     1      48.103   7.642  14.417  0.00  0.00    +0.000 A 
ATOM     26  N   UNL     1      47.708   6.338  14.249  0.00  0.00    +0.000 N 
ATOM     27  C   UNL     1      46.642   5.977  13.460  0.00  0.00    +0.000 A 
ATOM     28  O   UNL     1      46.271   4.811  13.374  0.00  0.00    +0.000 OA
ATOM     29  C   UNL     1      46.001   7.082  12.777  0.00  0.00    +0.000 A 
ATOM     30  H   UNL     1      48.176   5.589  14.738  0.00  0.00    +0.000 HD
ENDBRANCH  17  20
ENDBRANCH   2  16
TORSDOF 5
ENDMDL
MODEL 2
REMARK VINA RESULT:    -7.842      2.819      4.791
REMARK INTER + INTRA:         -11.220
REMARK INTER:                 -10.924
REMARK INTRA:                  -0.296
REMARK UNBOUND:                -1.085
REMARK  Name = 
REMARK  6 active torsions:
REMARK  status: ('A' for Active; 'I' for Inactive)
REMARK    1  A    between atoms: C_1  and  C_2
REMARK    2  A    between atoms: C_2  and  N_3
REMARK    3  A    between atoms: C_2  and  C_16
REMARK    4  A    between atoms: C_4  and  C_6
REMARK    5  A    between atoms: C_19  and  O_20
REMARK    6  A    between atoms: O_20  and  C_21
REMARK                            x       y       z     vdW  Elec       q    Type
REMARK                         _______ _______ _______ _____ _____    ______ ____
ROOT
ATOM      1  C   UNL     1      45.096   8.643  12.535  0.00  0.00    +0.000 C 
ATOM      2  C   UNL     1      46.228   7.618  12.377  0.00  0.00    +0.000 C 
ENDROOT
BRANCH   2   3
ATOM      3  C   UNL     1      45.720   6.419  11.590  0.00  0.00    +0.000 A 
ATOM      4  C   UNL     1      44.888   5.478  12.211  0.00  0.00    +0.000 A 
ATOM      5  C   UNL     1      44.479   4.331  11.528  0.00  0.00    +0.000 A 
ATOM      6  C   UNL     1      44.852   4.128  10.198  0.00  0.00    +0.000 A 
ATOM      7  C   UNL     1      45.674   5.061   9.566  0.00  0.00    +0.000 A 
ATOM      8  C   UNL     1      46.097   6.202  10.254  0.00  0.00    +0.000 A 
BRANCH   6   9
ATOM      9  O   UNL     1      44.529   3.005   9.468  0.00  0.00    +0.000 OA
BRANCH   9  10
ATOM     10  C   UNL     1      45.410   2.574   8.488  0.00  0.00    +0.000 A 
ATOM     11  C   UNL     1      45.660   3.451   7.440  0.00  0.00    +0.000 A 
ATOM     12  C   UNL     1      46.555   3.057   6.451  0.00  0.00    +0.000 A 
ATOM     13  C   UNL     1      47.164   1.809   6.537  0.00  0.00    +0.000 A 
ATOM     14  C   UNL     1      46.833   0.992   7.605  0.00  0.00    +0.000 A 
ATOM     15  N   UNL     1      45.958   1.338   8.567  0.00  0.00    +0.000 NA
ENDBRANCH   9  10
ENDBRANCH   6   9
ENDBRANCH   2   3
BRANCH   2  16
ATOM     16  N   UNL     1      46.778   7.188  13.650  0.00  0.00    +0.000 N 
ATOM     17  C   UNL     1      48.079   6.766  13.777  0.00  0.00    +0.000 C 
ATOM     18  O   UNL     1      48.876   6.780  12.843  0.00  0.00    +0.000 OA
ATOM     19  H   UNL     1      46.105   6.848  14.333  0.00  0.00    +0.000 HD
BRANCH  17  20
ATOM     20  C   UNL     1      48.506   6.354  15.116  0.00  0.00    +0.000 A 
ATOM     21  C   UNL     1      49.459   7.104  15.792  0.00  0.00    +0.000 A 
ATOM     22  S   UNL     1      49.842   6.487  17.335  0.00  0.00    +0.000 S 
ATOM     23  C   UNL     1      48.778   5.174  17.133  0.00  0.00    +0.000 A 
ATOM     24  N   UNL     1      48.657   4.217  18.091  0.00  0.00    +0.000 NA
ATOM     25  C   UNL     1      47.841   3.263  17.789  0.00  0.00    +0.000 A 
ATOM     26  N   UNL     1      47.123   3.187  16.622  0.00  0.00    +0.000 N 
ATOM     27  C   UNL     1      47.187   4.150  15.643  0.00  0.00    +0.000 A 
ATOM     28  O   UNL     1      46.490   4.089  14.635  0.00  0.00    +0.000 OA
ATOM     29  C   UNL     1      48.116   5.226  15.920  0.00  0.00    +0.000 A 
ATOM     30  H   UNL     1      46.485   2.423  16.456  0.00  0.00    +0.000 HD
ENDBRANCH  17  20
ENDBRANCH   2  16
TORSDOF 5
ENDMDL
MODEL 3
REMARK VINA RESULT:    -7.738      3.562      5.284
REMARK INTER + INTRA:         -11.085
REMARK INTER:                 -10.399
REMARK INTRA:                  -0.685
REMARK UNBOUND:                -1.085
REMARK  Name = 
REMARK  6 active torsions:
REMARK  status: ('A' for Active; 'I' for Inactive)
REMARK    1  A    between atoms: C_1  and  C_2
REMARK    2  A    between atoms: C_2  and  N_3
REMARK    3  A    between atoms: C_2  and  C_16
REMARK    4  A    between atoms: C_4  and  C_6
REMARK    5  A    between atoms: C_19  and  O_20
REMARK    6  A    between atoms: O_20  and  C_21
REMARK                            x       y       z     vdW  Elec       q    Type
REMARK                         _______ _______ _______ _____ _____    ______ ____
ROOT
ATOM      1  C   UNL     1      45.928   8.009  13.098  0.00  0.00    +0.000 C 
ATOM      2  C   UNL     1      46.741   6.712  12.992  0.00  0.00    +0.000 C 
ENDROOT
BRANCH   2   3
ATOM      3  C   UNL     1      46.099   5.794  11.961  0.00  0.00    +0.000 A 
ATOM      4  C   UNL     1      45.582   4.554  12.357  0.00  0.00    +0.000 A 
ATOM      5  C   UNL     1      45.062   3.667  11.412  0.00  0.00    +0.000 A 
ATOM      6  C   UNL     1      45.006   4.023  10.063  0.00  0.00    +0.000 A 
ATOM      7  C   UNL     1      45.511   5.257   9.657  0.00  0.00    +0.000 A 
ATOM      8  C   UNL     1      46.045   6.140  10.601  0.00  0.00    +0.000 A 
BRANCH   6   9
ATOM      9  O   UNL     1      44.550   3.190   9.063  0.00  0.00    +0.000 OA
BRANCH   9  10
ATOM     10  C   UNL     1      45.479   2.580   8.234  0.00  0.00    +0.000 A 
ATOM     11  C   UNL     1      45.876   3.292   7.108  0.00  0.00    +0.000 A 
ATOM     12  C   UNL     1      46.821   2.717   6.266  0.00  0.00    +0.000 A 
ATOM     13  C   UNL     1      47.334   1.460   6.569  0.00  0.00    +0.000 A 
ATOM     14  C   UNL     1      46.859   0.815   7.699  0.00  0.00    +0.000 A 
ATOM     15  N   UNL     1      45.932   1.338   8.523  0.00  0.00    +0.000 NA
ENDBRANCH   9  10
ENDBRANCH   6   9
ENDBRANCH   2   3
BRANCH   2  16
ATOM     16  N   UNL     1      46.870   6.024  14.265  0.00  0.00    +0.000 N 
ATOM     17  C   UNL     1      48.080   5.894  14.903  0.00  0.00    +0.000 C 
ATOM     18  O   UNL     1      49.115   6.397  14.475  0.00  0.00    +0.000 OA
ATOM     19  H   UNL     1      46.152   5.334  14.473  0.00  0.00    +0.000 HD
BRANCH  17  20
ATOM     20  C   UNL     1      48.072   5.174  16.179  0.00  0.00    +0.000 A 
ATOM     21  C   UNL     1      47.647   3.853  16.218  0.00  0.00    +0.000 A 
ATOM     22  S   UNL     1      47.699   3.167  17.778  0.00  0.00    +0.000 S 
ATOM     23  C   UNL     1      48.250   4.625  18.460  0.00  0.00    +0.000 A 
ATOM     24  N   UNL     1      48.460   4.737  19.799  0.00  0.00    +0.000 NA
ATOM     25  C   UNL     1      48.844   5.910  20.181  0.00  0.00    +0.000 A 
ATOM     26  N   UNL     1      49.052   6.976  19.342  0.00  0.00    +0.000 N 
ATOM     27  C   UNL     1      48.888   6.898  17.980  0.00  0.00    +0.000 A 
ATOM     28  O   UNL     1      49.139   7.848  17.246  0.00  0.00    +0.000 OA
ATOM     29  C   UNL     1      48.425   5.610  17.505  0.00  0.00    +0.000 A 
ATOM     30  H   UNL     1      49.373   7.863  19.703  0.00  0.00    +0.000 HD
ENDBRANCH  17  20
ENDBRANCH   2  16
TORSDOF 5
ENDMDL
MODEL 4
REMARK VINA RESULT:    -7.408      2.718      4.086
REMARK INTER + INTRA:         -10.659
REMARK INTER:                  -9.555
REMARK INTRA:                  -1.104
REMARK UNBOUND:                -1.085
REMARK  Name = 
REMARK  6 active torsions:
REMARK  status: ('A' for Active; 'I' for Inactive)
REMARK    1  A    between atoms: C_1  and  C_2
REMARK    2  A    between atoms: C_2  and  N_3
REMARK    3  A    between atoms: C_2  and  C_16
REMARK    4  A    between atoms: C_4  and  C_6
REMARK    5  A    between atoms: C_19  and  O_20
REMARK    6  A    between atoms: O_20  and  C_21
REMARK                            x       y       z     vdW  Elec       q    Type
REMARK                         _______ _______ _______ _____ _____    ______ ____
ROOT
ATOM      1  C   UNL     1      46.419   4.726  14.313  0.00  0.00    +0.000 C 
ATOM      2  C   UNL     1      46.125   5.802  13.259  0.00  0.00    +0.000 C 
ENDROOT
BRANCH   2   3
ATOM      3  C   UNL     1      45.665   5.137  11.970  0.00  0.00    +0.000 A 
ATOM      4  C   UNL     1      45.099   3.856  12.009  0.00  0.00    +0.000 A 
ATOM      5  C   UNL     1      44.745   3.200  10.828  0.00  0.00    +0.000 A 
ATOM      6  C   UNL     1      44.905   3.831   9.592  0.00  0.00    +0.000 A 
ATOM      7  C   UNL     1      45.461   5.108   9.540  0.00  0.00    +0.000 A 
ATOM      8  C   UNL     1      45.829   5.760  10.721  0.00  0.00    +0.000 A 
BRANCH   6   9
ATOM      9  O   UNL     1      44.623   3.237   8.380  0.00  0.00    +0.000 OA
BRANCH   9  10
ATOM     10  C   UNL     1      45.678   2.787   7.601  0.00  0.00    +0.000 A 
ATOM     11  C   UNL     1      46.302   1.614   8.009  0.00  0.00    +0.000 A 
ATOM     12  C   UNL     1      47.351   1.125   7.239  0.00  0.00    +0.000 A 
ATOM     13  C   UNL     1      47.743   1.817   6.097  0.00  0.00    +0.000 A 
ATOM     14  C   UNL     1      47.079   2.991   5.784  0.00  0.00    +0.000 A 
ATOM     15  N   UNL     1      46.073   3.499   6.520  0.00  0.00    +0.000 NA
ENDBRANCH   9  10
ENDBRANCH   6   9
ENDBRANCH   2   3
BRANCH   2  16
ATOM     16  N   UNL     1      47.266   6.663  13.000  0.00  0.00    +0.000 N 
ATOM     17  C   UNL     1      47.171   8.033  13.049  0.00  0.00    +0.000 C 
ATOM     18  O   UNL     1      46.139   8.617  13.369  0.00  0.00    +0.000 OA
ATOM     19  H   UNL     1      48.004   6.263  12.427  0.00  0.00    +0.000 HD
BRANCH  17  20
ATOM     20  C   UNL     1      48.396   8.784  12.764  0.00  0.00    +0.000 A 
ATOM     21  C   UNL     1      48.360   9.839  11.862  0.00  0.00    +0.000 A 
ATOM     22  S   UNL     1      49.869  10.602  11.646  0.00  0.00    +0.000 S 
ATOM     23  C   UNL     1      50.630   9.520  12.717  0.00  0.00    +0.000 A 
ATOM     24  N   UNL     1      51.967   9.594  12.954  0.00  0.00    +0.000 NA
ATOM     25  C   UNL     1      52.414   8.690  13.762  0.00  0.00    +0.000 A 
ATOM     26  N   UNL     1      51.642   7.729  14.365  0.00  0.00    +0.000 N 
ATOM     27  C   UNL     1      50.283   7.641  14.183  0.00  0.00    +0.000 A 
ATOM     28  O   UNL     1      49.606   6.810  14.781  0.00  0.00    +0.000 OA
ATOM     29  C   UNL     1      49.737   8.613  13.259  0.00  0.00    +0.000 A 
ATOM     30  H   UNL     1      52.052   7.063  15.003  0.00  0.00    +0.000 HD
ENDBRANCH  17  20
ENDBRANCH   2  16
TORSDOF 5
ENDMDL
MODEL 5
REMARK VINA RESULT:    -7.210      3.882      6.707
REMARK INTER + INTRA:         -10.403
REMARK INTER:                  -9.244
REMARK INTRA:                  -1.159
REMARK UNBOUND:                -1.085
REMARK  Name = 
REMARK  6 active torsions:
REMARK  status: ('A' for Active; 'I' for Inactive)
REMARK    1  A    between atoms: C_1  and  C_2
REMARK    2  A    between atoms: C_2  and  N_3
REMARK    3  A    between atoms: C_2  and  C_16
REMARK    4  A    between atoms: C_4  and  C_6
REMARK    5  A    between atoms: C_19  and  O_20
REMARK    6  A    between atoms: O_20  and  C_21
REMARK                            x       y       z     vdW  Elec       q    Type
REMARK                         _______ _______ _______ _____ _____    ______ ____
ROOT
ATOM      1  C   UNL     1      47.993   9.026  14.062  0.00  0.00    +0.000 C 
ATOM      2  C   UNL     1      48.169   7.503  14.127  0.00  0.00    +0.000 C 
ENDROOT
BRANCH   2   3
ATOM      3  C   UNL     1      47.150   6.835  13.216  0.00  0.00    +0.000 A 
ATOM      4  C   UNL     1      46.876   5.468  13.358  0.00  0.00    +0.000 A 
ATOM      5  C   UNL     1      46.004   4.823  12.479  0.00  0.00    +0.000 A 
ATOM      6  C   UNL     1      45.352   5.541  11.475  0.00  0.00    +0.000 A 
ATOM      7  C   UNL     1      45.610   6.904  11.327  0.00  0.00    +0.000 A 
ATOM      8  C   UNL     1      46.495   7.547  12.197  0.00  0.00    +0.000 A 
BRANCH   6   9
ATOM      9  O   UNL     1      44.512   4.973  10.541  0.00  0.00    +0.000 OA
BRANCH   9  10
ATOM     10  C   UNL     1      45.061   4.150   9.570  0.00  0.00    +0.000 A 
ATOM     11  C   UNL     1      44.912   2.780   9.753  0.00  0.00    +0.000 A 
ATOM     12  C   UNL     1      45.434   1.926   8.788  0.00  0.00    +0.000 A 
ATOM     13  C   UNL     1      46.085   2.462   7.681  0.00  0.00    +0.000 A 
ATOM     14  C   UNL     1      46.207   3.838   7.597  0.00  0.00    +0.000 A 
ATOM     15  N   UNL     1      45.729   4.689   8.523  0.00  0.00    +0.000 NA
ENDBRANCH   9  10
ENDBRANCH   6   9
ENDBRANCH   2   3
BRANCH   2  16
ATOM     16  N   UNL     1      48.054   6.980  15.477  0.00  0.00    +0.000 N 
ATOM     17  C   UNL     1      49.134   6.469  16.156  0.00  0.00    +0.000 C 
ATOM     18  O   UNL     1      50.271   6.473  15.694  0.00  0.00    +0.000 OA
ATOM     19  H   UNL     1      47.129   6.655  15.751  0.00  0.00    +0.000 HD
BRANCH  17  20
ATOM     20  C   UNL     1      48.879   5.971  17.510  0.00  0.00    +0.000 A 
ATOM     21  C   UNL     1      49.096   4.631  17.800  0.00  0.00    +0.000 A 
ATOM     22  S   UNL     1      48.750   4.219  19.418  0.00  0.00    +0.000 S 
ATOM     23  C   UNL     1      48.257   5.809  19.774  0.00  0.00    +0.000 A 
ATOM     24  N   UNL     1      47.788   6.138  21.007  0.00  0.00    +0.000 NA
ATOM     25  C   UNL     1      47.420   7.370  21.124  0.00  0.00    +0.000 A 
ATOM     26  N   UNL     1      47.492   8.307  20.124  0.00  0.00    +0.000 N 
ATOM     27  C   UNL     1      47.992   8.028  18.875  0.00  0.00    +0.000 A 
ATOM     28  O   UNL     1      48.102   8.898  18.017  0.00  0.00    +0.000 OA
ATOM     29  C   UNL     1      48.389   6.649  18.682  0.00  0.00    +0.000 A 
ATOM     30  H   UNL     1      47.205   9.261  20.288  0.00  0.00    +0.000 HD
ENDBRANCH  17  20
ENDBRANCH   2  16
TORSDOF 5
ENDMDL
MODEL 6
REMARK VINA RESULT:    -7.187      5.006     11.590
REMARK INTER + INTRA:         -10.374
REMARK INTER:                  -9.157
REMARK INTRA:                  -1.216
REMARK UNBOUND:                -1.085
REMARK  Name = 
REMARK  6 active torsions:
REMARK  status: ('A' for Active; 'I' for Inactive)
REMARK    1  A    between atoms: C_1  and  C_2
REMARK    2  A    between atoms: C_2  and  N_3
REMARK    3  A    between atoms: C_2  and  C_16
REMARK    4  A    between atoms: C_4  and  C_6
REMARK    5  A    between atoms: C_19  and  O_20
REMARK    6  A    between atoms: O_20  and  C_21
REMARK                            x       y       z     vdW  Elec       q    Type
REMARK                         _______ _______ _______ _____ _____    ______ ____
ROOT
ATOM      1  C   UNL     1      47.664   3.173  16.977  0.00  0.00    +0.000 C 
ATOM      2  C   UNL     1      47.988   4.511  16.297  0.00  0.00    +0.000 C 
ENDROOT
BRANCH   2   3
ATOM      3  C   UNL     1      48.102   5.602  17.352  0.00  0.00    +0.000 A 
ATOM      4  C   UNL     1      48.995   6.665  17.163  0.00  0.00    +0.000 A 
ATOM      5  C   UNL     1      49.169   7.631  18.156  0.00  0.00    +0.000 A 
ATOM      6  C   UNL     1      48.420   7.579  19.334  0.00  0.00    +0.000 A 
ATOM      7  C   UNL     1      47.523   6.530  19.531  0.00  0.00    +0.000 A 
ATOM      8  C   UNL     1      47.358   5.554  18.543  0.00  0.00    +0.000 A 
BRANCH   6   9
ATOM      9  O   UNL     1      48.563   8.466  20.379  0.00  0.00    +0.000 OA
BRANCH   9  10
ATOM     10  C   UNL     1      47.476   9.245  20.742  0.00  0.00    +0.000 A 
ATOM     11  C   UNL     1      46.997  10.136  19.789  0.00  0.00    +0.000 A 
ATOM     12  C   UNL     1      45.895  10.919  20.114  0.00  0.00    +0.000 A 
ATOM     13  C   UNL     1      45.312  10.791  21.370  0.00  0.00    +0.000 A 
ATOM     14  C   UNL     1      45.874   9.895  22.264  0.00  0.00    +0.000 A 
ATOM     15  N   UNL     1      46.951   9.138  21.985  0.00  0.00    +0.000 NA
ENDBRANCH   9  10
ENDBRANCH   6   9
ENDBRANCH   2   3
BRANCH   2  16
ATOM     16  N   UNL     1      47.006   4.884  15.294  0.00  0.00    +0.000 N 
ATOM     17  C   UNL     1      47.358   5.533  14.135  0.00  0.00    +0.000 C 
ATOM     18  O   UNL     1      48.524   5.788  13.844  0.00  0.00    +0.000 OA
ATOM     19  H   UNL     1      46.052   5.000  15.627  0.00  0.00    +0.000 HD
BRANCH  17  20
ATOM     20  C   UNL     1      46.270   5.855  13.209  0.00  0.00    +0.000 A 
ATOM     21  C   UNL     1      45.983   7.183  12.923  0.00  0.00    +0.000 A 
ATOM     22  S   UNL     1      44.689   7.380  11.830  0.00  0.00    +0.000 S 
ATOM     23  C   UNL     1      44.441   5.699  11.737  0.00  0.00    +0.000 A 
ATOM     24  N   UNL     1      43.433   5.180  10.987  0.00  0.00    +0.000 NA
ATOM     25  C   UNL     1      43.342   3.892  11.036  0.00  0.00    +0.000 A 
ATOM     26  N   UNL     1      44.178   3.076  11.755  0.00  0.00    +0.000 N 
ATOM     27  C   UNL     1      45.231   3.554  12.497  0.00  0.00    +0.000 A 
ATOM     28  O   UNL     1      46.001   2.799  13.083  0.00  0.00    +0.000 OA
ATOM     29  C   UNL     1      45.356   4.997  12.501  0.00  0.00    +0.000 A 
ATOM     30  H   UNL     1      44.064   2.073  11.735  0.00  0.00    +0.000 HD
ENDBRANCH  17  20
ENDBRANCH   2  16
TORSDOF 5
ENDMDL
MODEL 7
REMARK VINA RESULT:    -7.087      3.928      6.775
REMARK INTER + INTRA:         -10.243
REMARK INTER:                  -9.492
REMARK INTRA:                  -0.751
REMARK UNBOUND:                -1.085
REMARK  Name = 
REMARK  6 active torsions:
REMARK  status: ('A' for Active; 'I' for Inactive)
REMARK    1  A    between atoms: C_1  and  C_2
REMARK    2  A    between atoms: C_2  and  N_3
REMARK    3  A    between atoms: C_2  and  C_16
REMARK    4  A    between atoms: C_4  and  C_6
REMARK    5  A    between atoms: C_19  and  O_20
REMARK    6  A    between atoms: O_20  and  C_21
REMARK                            x       y       z     vdW  Elec       q    Type
REMARK                         _______ _______ _______ _____ _____    ______ ____
ROOT
ATOM      1  C   UNL     1      49.425   8.169  13.476  0.00  0.00    +0.000 C 
ATOM      2  C   UNL     1      48.852   6.893  14.107  0.00  0.00    +0.000 C 
ENDROOT
BRANCH   2   3
ATOM      3  C   UNL     1      47.645   6.428  13.306  0.00  0.00    +0.000 A 
ATOM      4  C   UNL     1      46.980   5.248  13.667  0.00  0.00    +0.000 A 
ATOM      5  C   UNL     1      45.921   4.766  12.896  0.00  0.00    +0.000 A 
ATOM      6  C   UNL     1      45.476   5.478  11.779  0.00  0.00    +0.000 A 
ATOM      7  C   UNL     1      46.125   6.656  11.414  0.00  0.00    +0.000 A 
ATOM      8  C   UNL     1      47.196   7.133  12.177  0.00  0.00    +0.000 A 
BRANCH   6   9
ATOM      9  O   UNL     1      44.469   5.049  10.941  0.00  0.00    +0.000 OA
BRANCH   9  10
ATOM     10  C   UNL     1      44.773   4.112   9.966  0.00  0.00    +0.000 A 
ATOM     11  C   UNL     1      45.458   4.572   8.847  0.00  0.00    +0.000 A 
ATOM     12  C   UNL     1      45.795   3.654   7.858  0.00  0.00    +0.000 A 
ATOM     13  C   UNL     1      45.439   2.318   8.015  0.00  0.00    +0.000 A 
ATOM     14  C   UNL     1      44.734   1.958   9.151  0.00  0.00    +0.000 A 
ATOM     15  N   UNL     1      44.378   2.826  10.116  0.00  0.00    +0.000 NA
ENDBRANCH   9  10
ENDBRANCH   6   9
ENDBRANCH   2   3
BRANCH   2  16
ATOM     16  N   UNL     1      48.491   7.069  15.503  0.00  0.00    +0.000 N 
ATOM     17  C   UNL     1      49.250   6.551  16.524  0.00  0.00    +0.000 C 
ATOM     18  O   UNL     1      50.308   5.959  16.331  0.00  0.00    +0.000 OA
ATOM     19  H   UNL     1      47.505   7.239  15.689  0.00  0.00    +0.000 HD
BRANCH  17  20
ATOM     20  C   UNL     1      48.771   6.799  17.886  0.00  0.00    +0.000 A 
ATOM     21  C   UNL     1      48.430   8.089  18.269  0.00  0.00    +0.000 A 
ATOM     22  S   UNL     1      47.894   8.201  19.884  0.00  0.00    +0.000 S 
ATOM     23  C   UNL     1      48.141   6.536  20.138  0.00  0.00    +0.000 A 
ATOM     24  N   UNL     1      47.911   5.972  21.353  0.00  0.00    +0.000 NA
ATOM     25  C   UNL     1      48.173   4.708  21.410  0.00  0.00    +0.000 A 
ATOM     26  N   UNL     1      48.629   3.955  20.358  0.00  0.00    +0.000 N 
ATOM     27  C   UNL     1      48.840   4.476  19.103  0.00  0.00    +0.000 A 
ATOM     28  O   UNL     1      49.191   3.770  18.164  0.00  0.00    +0.000 OA
ATOM     29  C   UNL     1      48.592   5.899  18.996  0.00  0.00    +0.000 A 
ATOM     30  H   UNL     1      48.795   2.965  20.464  0.00  0.00    +0.000 HD
ENDBRANCH  17  20
ENDBRANCH   2  16
TORSDOF 5
ENDMDL
MODEL 8
REMARK VINA RESULT:    -7.084      4.565      9.259
REMARK INTER + INTRA:         -10.240
REMARK INTER:                  -9.249
REMARK INTRA:                  -0.991
REMARK UNBOUND:                -1.085
REMARK  Name = 
REMARK  6 active torsions:
REMARK  status: ('A' for Active; 'I' for Inactive)
REMARK    1  A    between atoms: C_1  and  C_2
REMARK    2  A    between atoms: C_2  and  N_3
REMARK    3  A    between atoms: C_2  and  C_16
REMARK    4  A    between atoms: C_4  and  C_6
REMARK    5  A    between atoms: C_19  and  O_20
REMARK    6  A    between atoms: O_20  and  C_21
REMARK                            x       y       z     vdW  Elec       q    Type
REMARK                         _______ _______ _______ _____ _____    ______ ____
ROOT
ATOM      1  C   UNL     1      49.712   8.049  11.741  0.00  0.00    +0.000 C 
ATOM      2  C   UNL     1      48.456   7.629  12.516  0.00  0.00    +0.000 C 
ENDROOT
BRANCH   2   3
ATOM      3  C   UNL     1      48.852   7.156  13.907  0.00  0.00    +0.000 A 
ATOM      4  C   UNL     1      50.080   7.551  14.455  0.00  0.00    +0.000 A 
ATOM      5  C   UNL     1      50.493   7.063  15.696  0.00  0.00    +0.000 A 
ATOM      6  C   UNL     1      49.666   6.212  16.433  0.00  0.00    +0.000 A 
ATOM      7  C   UNL     1      48.439   5.817  15.902  0.00  0.00    +0.000 A 
ATOM      8  C   UNL     1      48.030   6.294  14.653  0.00  0.00    +0.000 A 
BRANCH   6   9
ATOM      9  O   UNL     1      50.018   5.652  17.643  0.00  0.00    +0.000 OA
BRANCH   9  10
ATOM     10  C   UNL     1      50.701   4.446  17.641  0.00  0.00    +0.000 A 
ATOM     11  C   UNL     1      52.045   4.487  17.995  0.00  0.00    +0.000 A 
ATOM     12  C   UNL     1      52.755   3.292  18.022  0.00  0.00    +0.000 A 
ATOM     13  C   UNL     1      52.108   2.104  17.696  0.00  0.00    +0.000 A 
ATOM     14  C   UNL     1      50.774   2.165  17.331  0.00  0.00    +0.000 A 
ATOM     15  N   UNL     1      50.066   3.307  17.277  0.00  0.00    +0.000 NA
ENDBRANCH   9  10
ENDBRANCH   6   9
ENDBRANCH   2   3
BRANCH   2  16
ATOM     16  N   UNL     1      47.694   6.598  11.834  0.00  0.00    +0.000 N 
ATOM     17  C   UNL     1      46.358   6.747  11.548  0.00  0.00    +0.000 C 
ATOM     18  O   UNL     1      45.737   7.778  11.794  0.00  0.00    +0.000 OA
ATOM     19  H   UNL     1      48.053   5.650  11.917  0.00  0.00    +0.000 HD
BRANCH  17  20
ATOM     20  C   UNL     1      45.707   5.630  10.860  0.00  0.00    +0.000 A 
ATOM     21  C   UNL     1      45.780   5.541   9.476  0.00  0.00    +0.000 A 
ATOM     22  S   UNL     1      44.970   4.183   8.837  0.00  0.00    +0.000 S 
ATOM     23  C   UNL     1      44.458   3.694  10.385  0.00  0.00    +0.000 A 
ATOM     24  N   UNL     1      43.668   2.599  10.547  0.00  0.00    +0.000 NA
ATOM     25  C   UNL     1      43.329   2.365  11.771  0.00  0.00    +0.000 A 
ATOM     26  N   UNL     1      43.720   3.119  12.849  0.00  0.00    +0.000 N 
ATOM     27  C   UNL     1      44.546   4.211  12.735  0.00  0.00    +0.000 A 
ATOM     28  O   UNL     1      44.930   4.833  13.721  0.00  0.00    +0.000 OA
ATOM     29  C   UNL     1      44.929   4.535  11.376  0.00  0.00    +0.000 A 
ATOM     30  H   UNL     1      43.435   2.870  13.785  0.00  0.00    +0.000 HD
ENDBRANCH  17  20
ENDBRANCH   2  16
TORSDOF 5
ENDMDL
MODEL 9
REMARK VINA RESULT:    -6.651      5.700     11.605
REMARK INTER + INTRA:          -9.680
REMARK INTER:                  -8.456
REMARK INTRA:                  -1.225
REMARK UNBOUND:                -1.085
REMARK  Name = 
REMARK  6 active torsions:
REMARK  status: ('A' for Active; 'I' for Inactive)
REMARK    1  A    between atoms: C_1  and  C_2
REMARK    2  A    between atoms: C_2  and  N_3
REMARK    3  A    between atoms: C_2  and  C_16
REMARK    4  A    between atoms: C_4  and  C_6
REMARK    5  A    between atoms: C_19  and  O_20
REMARK    6  A    between atoms: O_20  and  C_21
REMARK                            x       y       z     vdW  Elec       q    Type
REMARK                         _______ _______ _______ _____ _____    ______ ____
ROOT
ATOM      1  C   UNL     1      47.344   3.011  17.358  0.00  0.00    +0.000 C 
ATOM      2  C   UNL     1      47.751   4.279  16.595  0.00  0.00    +0.000 C 
ENDROOT
BRANCH   2   3
ATOM      3  C   UNL     1      47.917   5.430  17.576  0.00  0.00    +0.000 A 
ATOM      4  C   UNL     1      48.716   6.530  17.234  0.00  0.00    +0.000 A 
ATOM      5  C   UNL     1      48.942   7.556  18.153  0.00  0.00    +0.000 A 
ATOM      6  C   UNL     1      48.336   7.527  19.411  0.00  0.00    +0.000 A 
ATOM      7  C   UNL     1      47.534   6.442  19.761  0.00  0.00    +0.000 A 
ATOM      8  C   UNL     1      47.318   5.406  18.847  0.00  0.00    +0.000 A 
BRANCH   6   9
ATOM      9  O   UNL     1      48.543   8.476  20.389  0.00  0.00    +0.000 OA
BRANCH   9  10
ATOM     10  C   UNL     1      47.483   9.288  20.760  0.00  0.00    +0.000 A 
ATOM     11  C   UNL     1      47.043  10.213  19.820  0.00  0.00    +0.000 A 
ATOM     12  C   UNL     1      45.969  11.030  20.154  0.00  0.00    +0.000 A 
ATOM     13  C   UNL     1      45.373  10.901  21.405  0.00  0.00    +0.000 A 
ATOM     14  C   UNL     1      45.896   9.969  22.285  0.00  0.00    +0.000 A 
ATOM     15  N   UNL     1      46.946   9.178  21.998  0.00  0.00    +0.000 NA
ENDBRANCH   9  10
ENDBRANCH   6   9
ENDBRANCH   2   3
BRANCH   2  16
ATOM     16  N   UNL     1      46.803   4.639  15.555  0.00  0.00    +0.000 N 
ATOM     17  C   UNL     1      46.891   4.130  14.281  0.00  0.00    +0.000 C 
ATOM     18  O   UNL     1      47.733   3.299  13.954  0.00  0.00    +0.000 OA
ATOM     19  H   UNL     1      46.330   5.531  15.674  0.00  0.00    +0.000 HD
BRANCH  17  20
ATOM     20  C   UNL     1      45.874   4.578  13.327  0.00  0.00    +0.000 A 
ATOM     21  C   UNL     1      44.998   3.653  12.774  0.00  0.00    +0.000 A 
ATOM     22  S   UNL     1      43.881   4.339  11.685  0.00  0.00    +0.000 S 
ATOM     23  C   UNL     1      44.557   5.888  11.883  0.00  0.00    +0.000 A 
ATOM     24  N   UNL     1      44.085   6.953  11.183  0.00  0.00    +0.000 NA
ATOM     25  C   UNL     1      44.714   8.059  11.408  0.00  0.00    +0.000 A 
ATOM     26  N   UNL     1      45.764   8.198  12.281  0.00  0.00    +0.000 N 
ATOM     27  C   UNL     1      46.250   7.157  13.035  0.00  0.00    +0.000 A 
ATOM     28  O   UNL     1      47.150   7.320  13.853  0.00  0.00    +0.000 OA
ATOM     29  C   UNL     1      45.598   5.886  12.794  0.00  0.00    +0.000 A 
ATOM     30  H   UNL     1      46.200   9.096  12.426  0.00  0.00    +0.000 HD
ENDBRANCH  17  20
ENDBRANCH   2  16
TORSDOF 5
ENDMDL
