MODEL 1
REMARK VINA RESULT:    -8.065      0.000      0.000
REMARK INTER + INTRA:         -12.677
REMARK INTER:                 -11.601
REMARK INTRA:                  -1.077
REMARK UNBOUND:                -1.077
REMARK  Name = 
REMARK  8 active torsions:
REMARK  status: ('A' for Active; 'I' for Inactive)
REMARK    1  A    between atoms: C_2  and  C_20
REMARK    2  A    between atoms: N_3  and  C_4
REMARK    3  A    between atoms: C_4  and  C_5
REMARK    4  A    between atoms: C_8  and  C_9
REMARK    5  A    between atoms: C_9  and  O_10
REMARK    6  A    between atoms: O_10  and  C_11
REMARK    7  A    between atoms: C_11  and  C_12
REMARK    8  A    between atoms: C_27  and  O_28
REMARK                            x       y       z     vdW  Elec       q    Type
REMARK                         _______ _______ _______ _____ _____    ______ ____
ROOT
ATOM      1  C   UNL     1      46.833   7.790  13.044  0.00  0.00    +0.000 C 
ENDROOT
BRANCH   1   2
ATOM      2  C   UNL     1      46.022   6.677  12.437  0.00  0.00    +0.000 A 
ATOM      3  C   UNL     1      45.970   6.508  11.047  0.00  0.00    +0.000 A 
ATOM      4  C   UNL     1      45.234   5.456  10.489  0.00  0.00    +0.000 A 
ATOM      5  C   UNL     1      44.526   4.565  11.306  0.00  0.00    +0.000 A 
ATOM      6  C   UNL     1      44.564   4.749  12.695  0.00  0.00    +0.000 A 
ATOM      7  C   UNL     1      45.297   5.799  13.254  0.00  0.00    +0.000 A 
BRANCH   5   8
ATOM      8  C   UNL     1      43.718   3.444  10.703  0.00  0.00    +0.000 C 
BRANCH   8   9
ATOM      9  O   UNL     1      44.188   3.183   9.386  0.00  0.00    +0.000 OA
BRANCH   9  10
ATOM     10  C   UNL     1      45.140   2.121   9.363  0.00  0.00    +0.000 C 
BRANCH  10  11
ATOM     11  C   UNL     1      45.947   2.171   8.090  0.00  0.00    +0.000 A 
ATOM     12  C   UNL     1      46.001   3.338   7.313  0.00  0.00    +0.000 A 
ATOM     13  C   UNL     1      46.789   3.393   6.162  0.00  0.00    +0.000 A 
ATOM     14  C   UNL     1      47.541   2.286   5.779  0.00  0.00    +0.000 A 
ATOM     15  C   UNL     1      47.505   1.122   6.545  0.00  0.00    +0.000 A 
ATOM     16  C   UNL     1      46.715   1.065   7.696  0.00  0.00    +0.000 A 
ENDBRANCH  10  11
ENDBRANCH   9  10
ENDBRANCH   8   9
ENDBRANCH   5   8
ENDBRANCH   1   2
BRANCH   1  19
ATOM     17  O   UNL     1      49.226   6.504  13.506  0.00  0.00    +0.000 OA
ATOM     18  C   UNL     1      48.548   6.807  14.483  0.00  0.00    +0.000 C 
ATOM     19  N   UNL     1      47.340   7.438  14.345  0.00  0.00    +0.000 N 
ATOM     20  H   UNL     1      46.765   7.643  15.155  0.00  0.00    +0.000 HD
BRANCH  18  21
ATOM     21  C   UNL     1      49.005   6.505  15.848  0.00  0.00    +0.000 A 
ATOM     22  C   UNL     1      49.909   7.363  16.460  0.00  0.00    +0.000 A 
ATOM     23  S   UNL     1      50.346   6.891  18.036  0.00  0.00    +0.000 S 
ATOM     24  C   UNL     1      49.354   5.516  17.947  0.00  0.00    +0.000 A 
ATOM     25  N   UNL     1      49.296   4.663  18.987  0.00  0.00    +0.000 NA
ATOM     26  C   UNL     1      48.479   3.633  18.767  0.00  0.00    +0.000 A 
ATOM     27  N   UNL     1      47.746   3.397  17.670  0.00  0.00    +0.000 NA
ATOM     28  C   UNL     1      47.849   4.282  16.677  0.00  0.00    +0.000 A 
ATOM     29  C   UNL     1      48.670   5.407  16.741  0.00  0.00    +0.000 A 
BRANCH  28  30
ATOM     30  O   UNL     1      47.078   3.970  15.594  0.00  0.00    +0.000 OA
ATOM     31  H   UNL     1      46.673   4.837  15.405  0.00  0.00    +0.000 HD
ENDBRANCH  28  30
ENDBRANCH  18  21
ENDBRANCH   1  19
TORSDOF 8
ENDMDL
MODEL 2
REMARK VINA RESULT:    -7.735      1.108      1.711
REMARK INTER + INTRA:         -12.203
REMARK INTER:                 -10.836
REMARK INTRA:                  -1.367
REMARK UNBOUND:                -1.077
REMARK  Name = 
REMARK  8 active torsions:
REMARK  status: ('A' for Active; 'I' for Inactive)
REMARK    1  A    between atoms: C_2  and  C_20
REMARK    2  A    between atoms: N_3  and  C_4
REMARK    3  A    between atoms: C_4  and  C_5
REMARK    4  A    between atoms: C_8  and  C_9
REMARK    5  A    between atoms: C_9  and  O_10
REMARK    6  A    between atoms: O_10  and  C_11
REMARK    7  A    between atoms: C_11  and  C_12
REMARK    8  A    between atoms: C_27  and  O_28
REMARK                            x       y       z     vdW  Elec       q    Type
REMARK                         _______ _______ _______ _____ _____    ______ ____
ROOT
ATOM      1  C   UNL     1      48.279   6.715  13.171  0.00  0.00    +0.000 C 
ENDROOT
BRANCH   1   2
ATOM      2  C   UNL     1      47.024   6.074  12.643  0.00  0.00    +0.000 A 
ATOM      3  C   UNL     1      46.410   5.025  13.340  0.00  0.00    +0.000 A 
ATOM      4  C   UNL     1      45.229   4.450  12.857  0.00  0.00    +0.000 A 
ATOM      5  C   UNL     1      44.649   4.900  11.664  0.00  0.00    +0.000 A 
ATOM      6  C   UNL     1      45.277   5.935  10.959  0.00  0.00    +0.000 A 
ATOM      7  C   UNL     1      46.457   6.510  11.439  0.00  0.00    +0.000 A 
BRANCH   5   8
ATOM      8  C   UNL     1      43.388   4.266  11.134  0.00  0.00    +0.000 C 
BRANCH   8   9
ATOM      9  O   UNL     1      43.629   3.764   9.825  0.00  0.00    +0.000 OA
BRANCH   9  10
ATOM     10  C   UNL     1      44.348   2.532   9.854  0.00  0.00    +0.000 C 
BRANCH  10  11
ATOM     11  C   UNL     1      45.389   2.511   8.763  0.00  0.00    +0.000 A 
ATOM     12  C   UNL     1      46.044   1.321   8.410  0.00  0.00    +0.000 A 
ATOM     13  C   UNL     1      46.971   1.299   7.367  0.00  0.00    +0.000 A 
ATOM     14  C   UNL     1      47.247   2.464   6.656  0.00  0.00    +0.000 A 
ATOM     15  C   UNL     1      46.598   3.653   6.988  0.00  0.00    +0.000 A 
ATOM     16  C   UNL     1      45.672   3.676   8.034  0.00  0.00    +0.000 A 
ENDBRANCH  10  11
ENDBRANCH   9  10
ENDBRANCH   8   9
ENDBRANCH   5   8
ENDBRANCH   1   2
BRANCH   1  19
ATOM     17  O   UNL     1      50.386   7.648  14.682  0.00  0.00    +0.000 OA
ATOM     18  C   UNL     1      49.441   7.142  15.279  0.00  0.00    +0.000 C 
ATOM     19  N   UNL     1      48.357   6.643  14.607  0.00  0.00    +0.000 N 
ATOM     20  H   UNL     1      47.602   6.184  15.105  0.00  0.00    +0.000 HD
BRANCH  18  21
ATOM     21  C   UNL     1      49.432   7.050  16.747  0.00  0.00    +0.000 A 
ATOM     22  C   UNL     1      49.788   8.167  17.493  0.00  0.00    +0.000 A 
ATOM     23  S   UNL     1      49.730   7.917  19.175  0.00  0.00    +0.000 S 
ATOM     24  C   UNL     1      49.240   6.305  18.963  0.00  0.00    +0.000 A 
ATOM     25  N   UNL     1      49.036   5.520  20.038  0.00  0.00    +0.000 NA
ATOM     26  C   UNL     1      48.660   4.283  19.711  0.00  0.00    +0.000 A 
ATOM     27  N   UNL     1      48.468   3.791  18.480  0.00  0.00    +0.000 NA
ATOM     28  C   UNL     1      48.687   4.622  17.460  0.00  0.00    +0.000 A 
ATOM     29  C   UNL     1      49.099   5.943  17.629  0.00  0.00    +0.000 A 
BRANCH  28  30
ATOM     30  O   UNL     1      48.476   4.045  16.240  0.00  0.00    +0.000 OA
ATOM     31  H   UNL     1      49.374   4.088  15.862  0.00  0.00    +0.000 HD
ENDBRANCH  28  30
ENDBRANCH  18  21
ENDBRANCH   1  19
TORSDOF 8
ENDMDL
MODEL 3
REMARK VINA RESULT:    -7.715      1.947      2.356
REMARK INTER + INTRA:         -12.175
REMARK INTER:                 -10.957
REMARK INTRA:                  -1.218
REMARK UNBOUND:                -1.077
REMARK  Name = 
REMARK  8 active torsions:
REMARK  status: ('A' for Active; 'I' for Inactive)
REMARK    1  A    between atoms: C_2  and  C_20
REMARK    2  A    between atoms: N_3  and  C_4
REMARK    3  A    between atoms: C_4  and  C_5
REMARK    4  A    between atoms: C_8  and  C_9
REMARK    5  A    between atoms: C_9  and  O_10
REMARK    6  A    between atoms: O_10  and  C_11
REMARK    7  A    between atoms: C_11  and  C_12
REMARK    8  A    between atoms: C_27  and  O_28
REMARK                            x       y       z     vdW  Elec       q    Type
REMARK                         _______ _______ _______ _____ _____    ______ ____
ROOT
ATOM      1  C   UNL     1      47.694   7.296  13.407  0.00  0.00    +0.000 C 
ENDROOT
BRANCH   1   2
ATOM      2  C   UNL     1      46.640   6.428  12.775  0.00  0.00    +0.000 A 
ATOM      3  C   UNL     1      46.198   6.678  11.469  0.00  0.00    +0.000 A 
ATOM      4  C   UNL     1      45.236   5.852  10.877  0.00  0.00    +0.000 A 
ATOM      5  C   UNL     1      44.687   4.772  11.581  0.00  0.00    +0.000 A 
ATOM      6  C   UNL     1      45.117   4.537  12.894  0.00  0.00    +0.000 A 
ATOM      7  C   UNL     1      46.077   5.361  13.487  0.00  0.00    +0.000 A 
BRANCH   5   8
ATOM      8  C   UNL     1      43.637   3.895  10.950  0.00  0.00    +0.000 C 
BRANCH   8   9
ATOM      9  O   UNL     1      44.030   3.575   9.621  0.00  0.00    +0.000 OA
BRANCH   9  10
ATOM     10  C   UNL     1      44.783   2.364   9.568  0.00  0.00    +0.000 C 
BRANCH  10  11
ATOM     11  C   UNL     1      45.699   2.371   8.370  0.00  0.00    +0.000 A 
ATOM     12  C   UNL     1      45.892   3.537   7.613  0.00  0.00    +0.000 A 
ATOM     13  C   UNL     1      46.779   3.549   6.535  0.00  0.00    +0.000 A 
ATOM     14  C   UNL     1      47.491   2.399   6.207  0.00  0.00    +0.000 A 
ATOM     15  C   UNL     1      47.317   1.234   6.954  0.00  0.00    +0.000 A 
ATOM     16  C   UNL     1      46.428   1.221   8.031  0.00  0.00    +0.000 A 
ENDBRANCH  10  11
ENDBRANCH   9  10
ENDBRANCH   8   9
ENDBRANCH   5   8
ENDBRANCH   1   2
BRANCH   1  19
ATOM     17  O   UNL     1      50.017   6.785  14.798  0.00  0.00    +0.000 OA
ATOM     18  C   UNL     1      48.975   6.857  15.442  0.00  0.00    +0.000 C 
ATOM     19  N   UNL     1      47.773   7.097  14.830  0.00  0.00    +0.000 N 
ATOM     20  H   UNL     1      46.911   7.107  15.364  0.00  0.00    +0.000 HD
BRANCH  18  21
ATOM     21  C   UNL     1      48.972   6.688  16.903  0.00  0.00    +0.000 A 
ATOM     22  C   UNL     1      49.540   5.544  17.450  0.00  0.00    +0.000 A 
ATOM     23  S   UNL     1      49.467   5.485  19.149  0.00  0.00    +0.000 S 
ATOM     24  C   UNL     1      48.662   6.978  19.210  0.00  0.00    +0.000 A 
ATOM     25  N   UNL     1      48.290   7.490  20.399  0.00  0.00    +0.000 NA
ATOM     26  C   UNL     1      47.666   8.664  20.284  0.00  0.00    +0.000 A 
ATOM     27  N   UNL     1      47.406   9.339  19.157  0.00  0.00    +0.000 NA
ATOM     28  C   UNL     1      47.802   8.776  18.015  0.00  0.00    +0.000 A 
ATOM     29  C   UNL     1      48.455   7.545  17.958  0.00  0.00    +0.000 A 
BRANCH  28  30
ATOM     30  O   UNL     1      47.497   9.521  16.911  0.00  0.00    +0.000 OA
ATOM     31  H   UNL     1      47.520   8.836  16.218  0.00  0.00    +0.000 HD
ENDBRANCH  28  30
ENDBRANCH  18  21
ENDBRANCH   1  19
TORSDOF 8
ENDMDL
MODEL 4
REMARK VINA RESULT:    -7.595      3.357      5.354
REMARK INTER + INTRA:         -12.002
REMARK INTER:                 -11.094
REMARK INTRA:                  -0.908
REMARK UNBOUND:                -1.077
REMARK  Name = 
REMARK  8 active torsions:
REMARK  status: ('A' for Active; 'I' for Inactive)
REMARK    1  A    between atoms: C_2  and  C_20
REMARK    2  A    between atoms: N_3  and  C_4
REMARK    3  A    between atoms: C_4  and  C_5
REMARK    4  A    between atoms: C_8  and  C_9
REMARK    5  A    between atoms: C_9  and  O_10
REMARK    6  A    between atoms: O_10  and  C_11
REMARK    7  A    between atoms: C_11  and  C_12
REMARK    8  A    between atoms: C_27  and  O_28
REMARK                            x       y       z     vdW  Elec       q    Type
REMARK                         _______ _______ _______ _____ _____    ______ ____
ROOT
ATOM      1  C   UNL     1      47.563   6.473  13.788  0.00  0.00    +0.000 C 
ENDROOT
BRANCH   1   2
ATOM      2  C   UNL     1      46.474   5.563  13.289  0.00  0.00    +0.000 A 
ATOM      3  C   UNL     1      45.228   6.081  12.910  0.00  0.00    +0.000 A 
ATOM      4  C   UNL     1      44.227   5.234  12.422  0.00  0.00    +0.000 A 
ATOM      5  C   UNL     1      44.446   3.854  12.318  0.00  0.00    +0.000 A 
ATOM      6  C   UNL     1      45.685   3.336  12.716  0.00  0.00    +0.000 A 
ATOM      7  C   UNL     1      46.685   4.181  13.205  0.00  0.00    +0.000 A 
BRANCH   5   8
ATOM      8  C   UNL     1      43.359   2.939  11.811  0.00  0.00    +0.000 C 
BRANCH   8   9
ATOM      9  O   UNL     1      43.715   2.458  10.520  0.00  0.00    +0.000 OA
BRANCH   9  10
ATOM     10  C   UNL     1      44.074   3.521   9.639  0.00  0.00    +0.000 C 
BRANCH  10  11
ATOM     11  C   UNL     1      45.158   3.068   8.692  0.00  0.00    +0.000 A 
ATOM     12  C   UNL     1      45.810   3.981   7.849  0.00  0.00    +0.000 A 
ATOM     13  C   UNL     1      46.845   3.564   7.010  0.00  0.00    +0.000 A 
ATOM     14  C   UNL     1      47.248   2.232   7.012  0.00  0.00    +0.000 A 
ATOM     15  C   UNL     1      46.617   1.314   7.850  0.00  0.00    +0.000 A 
ATOM     16  C   UNL     1      45.579   1.730   8.688  0.00  0.00    +0.000 A 
ENDBRANCH  10  11
ENDBRANCH   9  10
ENDBRANCH   8   9
ENDBRANCH   5   8
ENDBRANCH   1   2
BRANCH   1  19
ATOM     17  O   UNL     1      48.768   7.623  11.594  0.00  0.00    +0.000 OA
ATOM     18  C   UNL     1      48.001   8.321  12.249  0.00  0.00    +0.000 C 
ATOM     19  N   UNL     1      47.367   7.834  13.361  0.00  0.00    +0.000 N 
ATOM     20  H   UNL     1      46.771   8.431  13.924  0.00  0.00    +0.000 HD
BRANCH  18  21
ATOM     21  C   UNL     1      47.727   9.714  11.866  0.00  0.00    +0.000 A 
ATOM     22  C   UNL     1      48.788  10.533  11.501  0.00  0.00    +0.000 A 
ATOM     23  S   UNL     1      48.323  12.115  11.082  0.00  0.00    +0.000 S 
ATOM     24  C   UNL     1      46.691  11.764  11.389  0.00  0.00    +0.000 A 
ATOM     25  N   UNL     1      45.759  12.724  11.236  0.00  0.00    +0.000 NA
ATOM     26  C   UNL     1      44.527  12.299  11.517  0.00  0.00    +0.000 A 
ATOM     27  N   UNL     1      44.160  11.069  11.902  0.00  0.00    +0.000 NA
ATOM     28  C   UNL     1      45.133  10.165  12.032  0.00  0.00    +0.000 A 
ATOM     29  C   UNL     1      46.475  10.451  11.791  0.00  0.00    +0.000 A 
BRANCH  28  30
ATOM     30  O   UNL     1      44.680   8.940  12.432  0.00  0.00    +0.000 OA
ATOM     31  H   UNL     1      43.980   8.782  11.771  0.00  0.00    +0.000 HD
ENDBRANCH  28  30
ENDBRANCH  18  21
ENDBRANCH   1  19
TORSDOF 8
ENDMDL
MODEL 5
REMARK VINA RESULT:    -7.424      2.006      2.841
REMARK INTER + INTRA:         -11.755
REMARK INTER:                 -10.656
REMARK INTRA:                  -1.099
REMARK UNBOUND:                -1.077
REMARK  Name = 
REMARK  8 active torsions:
REMARK  status: ('A' for Active; 'I' for Inactive)
REMARK    1  A    between atoms: C_2  and  C_20
REMARK    2  A    between atoms: N_3  and  C_4
REMARK    3  A    between atoms: C_4  and  C_5
REMARK    4  A    between atoms: C_8  and  C_9
REMARK    5  A    between atoms: C_9  and  O_10
REMARK    6  A    between atoms: O_10  and  C_11
REMARK    7  A    between atoms: C_11  and  C_12
REMARK    8  A    between atoms: C_27  and  O_28
REMARK                            x       y       z     vdW  Elec       q    Type
REMARK                         _______ _______ _______ _____ _____    ______ ____
ROOT
ATOM      1  C   UNL     1      47.472   3.658  14.754  0.00  0.00    +0.000 C 
ENDROOT
BRANCH   1   2
ATOM      2  C   UNL     1      46.507   4.001  13.651  0.00  0.00    +0.000 A 
ATOM      3  C   UNL     1      45.882   2.991  12.909  0.00  0.00    +0.000 A 
ATOM      4  C   UNL     1      44.966   3.316  11.902  0.00  0.00    +0.000 A 
ATOM      5  C   UNL     1      44.669   4.653  11.608  0.00  0.00    +0.000 A 
ATOM      6  C   UNL     1      45.310   5.661  12.339  0.00  0.00    +0.000 A 
ATOM      7  C   UNL     1      46.226   5.339  13.344  0.00  0.00    +0.000 A 
BRANCH   5   8
ATOM      8  C   UNL     1      43.697   5.002  10.510  0.00  0.00    +0.000 C 
BRANCH   8   9
ATOM      9  O   UNL     1      43.992   4.222   9.357  0.00  0.00    +0.000 OA
BRANCH   9  10
ATOM     10  C   UNL     1      45.197   4.648   8.723  0.00  0.00    +0.000 C 
BRANCH  10  11
ATOM     11  C   UNL     1      45.925   3.463   8.138  0.00  0.00    +0.000 A 
ATOM     12  C   UNL     1      45.691   2.163   8.613  0.00  0.00    +0.000 A 
ATOM     13  C   UNL     1      46.331   1.066   8.035  0.00  0.00    +0.000 A 
ATOM     14  C   UNL     1      47.205   1.254   6.967  0.00  0.00    +0.000 A 
ATOM     15  C   UNL     1      47.441   2.537   6.478  0.00  0.00    +0.000 A 
ATOM     16  C   UNL     1      46.802   3.636   7.058  0.00  0.00    +0.000 A 
ENDBRANCH  10  11
ENDBRANCH   9  10
ENDBRANCH   8   9
ENDBRANCH   5   8
ENDBRANCH   1   2
BRANCH   1  19
ATOM     17  O   UNL     1      49.278   3.729  16.834  0.00  0.00    +0.000 OA
ATOM     18  C   UNL     1      48.462   4.643  16.760  0.00  0.00    +0.000 C 
ATOM     19  N   UNL     1      47.522   4.682  15.764  0.00  0.00    +0.000 N 
ATOM     20  H   UNL     1      46.822   5.415  15.738  0.00  0.00    +0.000 HD
BRANCH  18  21
ATOM     21  C   UNL     1      48.460   5.741  17.739  0.00  0.00    +0.000 A 
ATOM     22  C   UNL     1      48.433   7.052  17.280  0.00  0.00    +0.000 A 
ATOM     23  S   UNL     1      48.432   8.215  18.522  0.00  0.00    +0.000 S 
ATOM     24  C   UNL     1      48.482   7.006  19.714  0.00  0.00    +0.000 A 
ATOM     25  N   UNL     1      48.521   7.350  21.015  0.00  0.00    +0.000 NA
ATOM     26  C   UNL     1      48.562   6.293  21.829  0.00  0.00    +0.000 A 
ATOM     27  N   UNL     1      48.554   5.000  21.480  0.00  0.00    +0.000 NA
ATOM     28  C   UNL     1      48.514   4.729  20.175  0.00  0.00    +0.000 A 
ATOM     29  C   UNL     1      48.482   5.718  19.193  0.00  0.00    +0.000 A 
BRANCH  28  30
ATOM     30  O   UNL     1      48.514   3.391  19.902  0.00  0.00    +0.000 OA
ATOM     31  H   UNL     1      49.036   3.053  20.654  0.00  0.00    +0.000 HD
ENDBRANCH  28  30
ENDBRANCH  18  21
ENDBRANCH   1  19
TORSDOF 8
ENDMDL
MODEL 6
REMARK VINA RESULT:    -7.121      2.403      3.542
REMARK INTER + INTRA:         -11.319
REMARK INTER:                 -10.396
REMARK INTRA:                  -0.923
REMARK UNBOUND:                -1.077
REMARK  Name = 
REMARK  8 active torsions:
REMARK  status: ('A' for Active; 'I' for Inactive)
REMARK    1  A    between atoms: C_2  and  C_20
REMARK    2  A    between atoms: N_3  and  C_4
REMARK    3  A    between atoms: C_4  and  C_5
REMARK    4  A    between atoms: C_8  and  C_9
REMARK    5  A    between atoms: C_9  and  O_10
REMARK    6  A    between atoms: O_10  and  C_11
REMARK    7  A    between atoms: C_11  and  C_12
REMARK    8  A    between atoms: C_27  and  O_28
REMARK                            x       y       z     vdW  Elec       q    Type
REMARK                         _______ _______ _______ _____ _____    ______ ____
ROOT
ATOM      1  C   UNL     1      47.564   3.963  15.454  0.00  0.00    +0.000 C 
ENDROOT
BRANCH   1   2
ATOM      2  C   UNL     1      46.937   4.423  14.165  0.00  0.00    +0.000 A 
ATOM      3  C   UNL     1      46.139   3.554  13.410  0.00  0.00    +0.000 A 
ATOM      4  C   UNL     1      45.537   3.994  12.225  0.00  0.00    +0.000 A 
ATOM      5  C   UNL     1      45.735   5.303  11.765  0.00  0.00    +0.000 A 
ATOM      6  C   UNL     1      46.551   6.163  12.512  0.00  0.00    +0.000 A 
ATOM      7  C   UNL     1      47.152   5.725  13.695  0.00  0.00    +0.000 A 
BRANCH   5   8
ATOM      8  C   UNL     1      45.104   5.769  10.478  0.00  0.00    +0.000 C 
BRANCH   8   9
ATOM      9  O   UNL     1      45.786   5.178   9.379  0.00  0.00    +0.000 OA
BRANCH   9  10
ATOM     10  C   UNL     1      44.975   4.214   8.709  0.00  0.00    +0.000 C 
BRANCH  10  11
ATOM     11  C   UNL     1      45.844   3.189   8.022  0.00  0.00    +0.000 A 
ATOM     12  C   UNL     1      45.866   1.854   8.453  0.00  0.00    +0.000 A 
ATOM     13  C   UNL     1      46.635   0.901   7.783  0.00  0.00    +0.000 A 
ATOM     14  C   UNL     1      47.381   1.268   6.667  0.00  0.00    +0.000 A 
ATOM     15  C   UNL     1      47.363   2.589   6.221  0.00  0.00    +0.000 A 
ATOM     16  C   UNL     1      46.596   3.544   6.893  0.00  0.00    +0.000 A 
ENDBRANCH  10  11
ENDBRANCH   9  10
ENDBRANCH   8   9
ENDBRANCH   5   8
ENDBRANCH   1   2
BRANCH   1  19
ATOM     17  O   UNL     1      49.618   5.362  16.644  0.00  0.00    +0.000 OA
ATOM     18  C   UNL     1      48.477   5.588  17.036  0.00  0.00    +0.000 C 
ATOM     19  N   UNL     1      47.398   4.930  16.507  0.00  0.00    +0.000 N 
ATOM     20  H   UNL     1      46.464   5.088  16.870  0.00  0.00    +0.000 HD
BRANCH  18  21
ATOM     21  C   UNL     1      48.219   6.578  18.093  0.00  0.00    +0.000 A 
ATOM     22  C   UNL     1      48.038   6.137  19.398  0.00  0.00    +0.000 A 
ATOM     23  S   UNL     1      47.750   7.390  20.512  0.00  0.00    +0.000 S 
ATOM     24  C   UNL     1      47.843   8.561  19.287  0.00  0.00    +0.000 A 
ATOM     25  N   UNL     1      47.660   9.861  19.588  0.00  0.00    +0.000 NA
ATOM     26  C   UNL     1      47.760  10.657  18.522  0.00  0.00    +0.000 A 
ATOM     27  N   UNL     1      48.022  10.296  17.260  0.00  0.00    +0.000 NA
ATOM     28  C   UNL     1      48.194   8.993  17.031  0.00  0.00    +0.000 A 
ATOM     29  C   UNL     1      48.109   8.026  18.032  0.00  0.00    +0.000 A 
BRANCH  28  30
ATOM     30  O   UNL     1      48.452   8.704  15.721  0.00  0.00    +0.000 OA
ATOM     31  H   UNL     1      48.802   7.798  15.802  0.00  0.00    +0.000 HD
ENDBRANCH  28  30
ENDBRANCH  18  21
ENDBRANCH   1  19
TORSDOF 8
ENDMDL
MODEL 7
REMARK VINA RESULT:    -7.097      3.735      5.322
REMARK INTER + INTRA:         -11.286
REMARK INTER:                 -10.216
REMARK INTRA:                  -1.069
REMARK UNBOUND:                -1.077
REMARK  Name = 
REMARK  8 active torsions:
REMARK  status: ('A' for Active; 'I' for Inactive)
REMARK    1  A    between atoms: C_2  and  C_20
REMARK    2  A    between atoms: N_3  and  C_4
REMARK    3  A    between atoms: C_4  and  C_5
REMARK    4  A    between atoms: C_8  and  C_9
REMARK    5  A    between atoms: C_9  and  O_10
REMARK    6  A    between atoms: O_10  and  C_11
REMARK    7  A    between atoms: C_11  and  C_12
REMARK    8  A    between atoms: C_27  and  O_28
REMARK                            x       y       z     vdW  Elec       q    Type
REMARK                         _______ _______ _______ _____ _____    ______ ____
ROOT
ATOM      1  C   UNL     1      48.049   6.584  13.473  0.00  0.00    +0.000 C 
ENDROOT
BRANCH   1   2
ATOM      2  C   UNL     1      46.904   5.887  12.787  0.00  0.00    +0.000 A 
ATOM      3  C   UNL     1      46.388   6.380  11.581  0.00  0.00    +0.000 A 
ATOM      4  C   UNL     1      45.340   5.714  10.935  0.00  0.00    +0.000 A 
ATOM      5  C   UNL     1      44.779   4.555  11.488  0.00  0.00    +0.000 A 
ATOM      6  C   UNL     1      45.284   4.077  12.704  0.00  0.00    +0.000 A 
ATOM      7  C   UNL     1      46.330   4.741  13.351  0.00  0.00    +0.000 A 
BRANCH   5   8
ATOM      8  C   UNL     1      43.638   3.850  10.801  0.00  0.00    +0.000 C 
BRANCH   8   9
ATOM      9  O   UNL     1      44.025   3.512   9.474  0.00  0.00    +0.000 OA
BRANCH   9  10
ATOM     10  C   UNL     1      44.795   2.311   9.437  0.00  0.00    +0.000 C 
BRANCH  10  11
ATOM     11  C   UNL     1      45.750   2.340   8.271  0.00  0.00    +0.000 A 
ATOM     12  C   UNL     1      45.950   3.514   7.528  0.00  0.00    +0.000 A 
ATOM     13  C   UNL     1      46.872   3.548   6.481  0.00  0.00    +0.000 A 
ATOM     14  C   UNL     1      47.615   2.411   6.171  0.00  0.00    +0.000 A 
ATOM     15  C   UNL     1      47.435   1.240   6.904  0.00  0.00    +0.000 A 
ATOM     16  C   UNL     1      46.510   1.205   7.951  0.00  0.00    +0.000 A 
ENDBRANCH  10  11
ENDBRANCH   9  10
ENDBRANCH   8   9
ENDBRANCH   5   8
ENDBRANCH   1   2
BRANCH   1  19
ATOM     17  O   UNL     1      50.413   7.892  14.012  0.00  0.00    +0.000 OA
ATOM     18  C   UNL     1      49.815   8.203  12.986  0.00  0.00    +0.000 C 
ATOM     19  N   UNL     1      48.627   7.610  12.646  0.00  0.00    +0.000 N 
ATOM     20  H   UNL     1      48.117   7.906  11.821  0.00  0.00    +0.000 HD
BRANCH  18  21
ATOM     21  C   UNL     1      50.350   9.226  12.075  0.00  0.00    +0.000 A 
ATOM     22  C   UNL     1      49.942  10.545  12.230  0.00  0.00    +0.000 A 
ATOM     23  S   UNL     1      50.642  11.617  11.110  0.00  0.00    +0.000 S 
ATOM     24  C   UNL     1      51.501  10.353  10.370  0.00  0.00    +0.000 A 
ATOM     25  N   UNL     1      52.290  10.610   9.309  0.00  0.00    +0.000 NA
ATOM     26  C   UNL     1      52.894   9.519   8.838  0.00  0.00    +0.000 A 
ATOM     27  N   UNL     1      52.799   8.269   9.310  0.00  0.00    +0.000 NA
ATOM     28  C   UNL     1      52.002   8.084  10.363  0.00  0.00    +0.000 A 
ATOM     29  C   UNL     1      51.286   9.117  10.967  0.00  0.00    +0.000 A 
BRANCH  28  30
ATOM     30  O   UNL     1      51.953   6.785  10.781  0.00  0.00    +0.000 OA
ATOM     31  H   UNL     1      52.328   6.869  11.677  0.00  0.00    +0.000 HD
ENDBRANCH  28  30
ENDBRANCH  18  21
ENDBRANCH   1  19
TORSDOF 8
ENDMDL
MODEL 8
REMARK VINA RESULT:    -7.095      3.413      8.422
REMARK INTER + INTRA:         -11.282
REMARK INTER:                  -9.611
REMARK INTRA:                  -1.671
REMARK UNBOUND:                -1.077
REMARK  Name = 
REMARK  8 active torsions:
REMARK  status: ('A' for Active; 'I' for Inactive)
REMARK    1  A    between atoms: C_2  and  C_20
REMARK    2  A    between atoms: N_3  and  C_4
REMARK    3  A    between atoms: C_4  and  C_5
REMARK    4  A    between atoms: C_8  and  C_9
REMARK    5  A    between atoms: C_9  and  O_10
REMARK    6  A    between atoms: O_10  and  C_11
REMARK    7  A    between atoms: C_11  and  C_12
REMARK    8  A    between atoms: C_27  and  O_28
REMARK                            x       y       z     vdW  Elec       q    Type
REMARK                         _______ _______ _______ _____ _____    ______ ____
ROOT
ATOM      1  C   UNL     1      47.711   7.941  12.045  0.00  0.00    +0.000 C 
ENDROOT
BRANCH   1   2
ATOM      2  C   UNL     1      48.332   8.012  13.414  0.00  0.00    +0.000 A 
ATOM      3  C   UNL     1      47.796   8.852  14.399  0.00  0.00    +0.000 A 
ATOM      4  C   UNL     1      48.363   8.895  15.678  0.00  0.00    +0.000 A 
ATOM      5  C   UNL     1      49.483   8.114  15.992  0.00  0.00    +0.000 A 
ATOM      6  C   UNL     1      50.029   7.291  14.999  0.00  0.00    +0.000 A 
ATOM      7  C   UNL     1      49.465   7.247  13.721  0.00  0.00    +0.000 A 
BRANCH   5   8
ATOM      8  C   UNL     1      50.104   8.177  17.364  0.00  0.00    +0.000 C 
BRANCH   8   9
ATOM      9  O   UNL     1      49.300   7.440  18.277  0.00  0.00    +0.000 OA
BRANCH   9  10
ATOM     10  C   UNL     1      49.931   6.224  18.678  0.00  0.00    +0.000 C 
BRANCH  10  11
ATOM     11  C   UNL     1      49.222   5.043  18.063  0.00  0.00    +0.000 A 
ATOM     12  C   UNL     1      47.888   5.139  17.640  0.00  0.00    +0.000 A 
ATOM     13  C   UNL     1      47.254   4.057  17.028  0.00  0.00    +0.000 A 
ATOM     14  C   UNL     1      47.949   2.869  16.821  0.00  0.00    +0.000 A 
ATOM     15  C   UNL     1      49.278   2.760  17.227  0.00  0.00    +0.000 A 
ATOM     16  C   UNL     1      49.913   3.842  17.842  0.00  0.00    +0.000 A 
ENDBRANCH  10  11
ENDBRANCH   9  10
ENDBRANCH   8   9
ENDBRANCH   5   8
ENDBRANCH   1   2
BRANCH   1  19
ATOM     17  O   UNL     1      45.028   7.536  12.524  0.00  0.00    +0.000 OA
ATOM     18  C   UNL     1      45.675   6.588  12.090  0.00  0.00    +0.000 C 
ATOM     19  N   UNL     1      47.016   6.698  11.834  0.00  0.00    +0.000 N 
ATOM     20  H   UNL     1      47.553   5.897  11.520  0.00  0.00    +0.000 HD
BRANCH  18  21
ATOM     21  C   UNL     1      45.036   5.291  11.824  0.00  0.00    +0.000 A 
ATOM     22  C   UNL     1      44.387   4.635  12.863  0.00  0.00    +0.000 A 
ATOM     23  S   UNL     1      43.694   3.148  12.410  0.00  0.00    +0.000 S 
ATOM     24  C   UNL     1      44.250   3.323  10.816  0.00  0.00    +0.000 A 
ATOM     25  N   UNL     1      44.002   2.359   9.910  0.00  0.00    +0.000 NA
ATOM     26  C   UNL     1      44.504   2.638   8.706  0.00  0.00    +0.000 A 
ATOM     27  N   UNL     1      45.182   3.735   8.343  0.00  0.00    +0.000 NA
ATOM     28  C   UNL     1      45.393   4.651   9.289  0.00  0.00    +0.000 A 
ATOM     29  C   UNL     1      44.947   4.507  10.602  0.00  0.00    +0.000 A 
BRANCH  28  30
ATOM     30  O   UNL     1      46.094   5.735   8.843  0.00  0.00    +0.000 OA
ATOM     31  H   UNL     1      46.980   5.536   9.199  0.00  0.00    +0.000 HD
ENDBRANCH  28  30
ENDBRANCH  18  21
ENDBRANCH   1  19
TORSDOF 8
ENDMDL
MODEL 9
REMARK VINA RESULT:    -7.004      1.560      2.346
REMARK INTER + INTRA:         -11.152
REMARK INTER:                  -9.902
REMARK INTRA:                  -1.249
REMARK UNBOUND:                -1.077
REMARK  Name = 
REMARK  8 active torsions:
REMARK  status: ('A' for Active; 'I' for Inactive)
REMARK    1  A    between atoms: C_2  and  C_20
REMARK    2  A    between atoms: N_3  and  C_4
REMARK    3  A    between atoms: C_4  and  C_5
REMARK    4  A    between atoms: C_8  and  C_9
REMARK    5  A    between atoms: C_9  and  O_10
REMARK    6  A    between atoms: O_10  and  C_11
REMARK    7  A    between atoms: C_11  and  C_12
REMARK    8  A    between atoms: C_27  and  O_28
REMARK                            x       y       z     vdW  Elec       q    Type
REMARK                         _______ _______ _______ _____ _____    ______ ____
ROOT
ATOM      1  C   UNL     1      48.737   8.597  14.110  0.00  0.00    +0.000 C 
ENDROOT
BRANCH   1   2
ATOM      2  C   UNL     1      47.619   7.970  13.321  0.00  0.00    +0.000 A 
ATOM      3  C   UNL     1      47.802   6.740  12.675  0.00  0.00    +0.000 A 
ATOM      4  C   UNL     1      46.752   6.150  11.964  0.00  0.00    +0.000 A 
ATOM      5  C   UNL     1      45.505   6.784  11.871  0.00  0.00    +0.000 A 
ATOM      6  C   UNL     1      45.332   8.023  12.500  0.00  0.00    +0.000 A 
ATOM      7  C   UNL     1      46.380   8.614  13.210  0.00  0.00    +0.000 A 
BRANCH   5   8
ATOM      8  C   UNL     1      44.380   6.156  11.088  0.00  0.00    +0.000 C 
BRANCH   8   9
ATOM      9  O   UNL     1      44.521   4.741  11.116  0.00  0.00    +0.000 OA
BRANCH   9  10
ATOM     10  C   UNL     1      43.907   4.124   9.986  0.00  0.00    +0.000 C 
BRANCH  10  11
ATOM     11  C   UNL     1      44.955   3.505   9.095  0.00  0.00    +0.000 A 
ATOM     12  C   UNL     1      45.173   2.119   9.089  0.00  0.00    +0.000 A 
ATOM     13  C   UNL     1      46.110   1.548   8.228  0.00  0.00    +0.000 A 
ATOM     14  C   UNL     1      46.833   2.354   7.352  0.00  0.00    +0.000 A 
ATOM     15  C   UNL     1      46.622   3.732   7.339  0.00  0.00    +0.000 A 
ATOM     16  C   UNL     1      45.685   4.304   8.204  0.00  0.00    +0.000 A 
ENDBRANCH  10  11
ENDBRANCH   9  10
ENDBRANCH   8   9
ENDBRANCH   5   8
ENDBRANCH   1   2
BRANCH   1  19
ATOM     17  O   UNL     1      47.933   9.329  16.641  0.00  0.00    +0.000 OA
ATOM     18  C   UNL     1      48.579   8.291  16.530  0.00  0.00    +0.000 C 
ATOM     19  N   UNL     1      49.028   7.858  15.310  0.00  0.00    +0.000 N 
ATOM     20  H   UNL     1      49.601   7.025  15.234  0.00  0.00    +0.000 HD
BRANCH  18  21
ATOM     21  C   UNL     1      48.899   7.466  17.704  0.00  0.00    +0.000 A 
ATOM     22  C   UNL     1      49.537   8.057  18.788  0.00  0.00    +0.000 A 
ATOM     23  S   UNL     1      49.842   6.984  20.074  0.00  0.00    +0.000 S 
ATOM     24  C   UNL     1      49.145   5.693  19.220  0.00  0.00    +0.000 A 
ATOM     25  N   UNL     1      49.111   4.465  19.773  0.00  0.00    +0.000 NA
ATOM     26  C   UNL     1      48.538   3.557  18.982  0.00  0.00    +0.000 A 
ATOM     27  N   UNL     1      48.015   3.755  17.764  0.00  0.00    +0.000 NA
ATOM     28  C   UNL     1      48.082   4.994  17.276  0.00  0.00    +0.000 A 
ATOM     29  C   UNL     1      48.661   6.056  17.969  0.00  0.00    +0.000 A 
BRANCH  28  30
ATOM     30  O   UNL     1      47.533   5.113  16.031  0.00  0.00    +0.000 OA
ATOM     31  H   UNL     1      47.449   6.083  15.962  0.00  0.00    +0.000 HD
ENDBRANCH  28  30
ENDBRANCH  18  21
ENDBRANCH   1  19
TORSDOF 8
ENDMDL
