MODEL 1
REMARK VINA RESULT:    -8.100      0.000      0.000
REMARK INTER + INTRA:         -12.244
REMARK INTER:                 -11.414
REMARK INTRA:                  -0.830
REMARK UNBOUND:                -0.830
REMARK  Name = 
REMARK  8 active torsions:
REMARK  status: ('A' for Active; 'I' for Inactive)
REMARK    1  A    between atoms: C_1  and  N_2
REMARK    2  A    between atoms: N_2  and  C_3
REMARK    3  A    between atoms: N_2  and  C_24
REMARK    4  A    between atoms: C_3  and  C_4
REMARK    5  A    between atoms: C_7  and  C_8
REMARK    6  A    between atoms: C_8  and  N_9
REMARK    7  A    between atoms: C_10  and  C_12
REMARK    8  A    between atoms: C_24  and  C_25
REMARK                            x       y       z     vdW  Elec       q    Type
REMARK                         _______ _______ _______ _____ _____    ______ ____
ROOT
ATOM      1  C   UNL     1      44.572   5.485  10.719  0.00  0.00    +0.000 A 
ATOM      2  C   UNL     1      45.895   5.765  10.365  0.00  0.00    +0.000 A 
ATOM      3  C   UNL     1      46.670   6.589  11.172  0.00  0.00    +0.000 A 
ATOM      4  C   UNL     1      46.088   7.153  12.302  0.00  0.00    +0.000 A 
ATOM      5  N   UNL     1      44.803   6.905  12.668  0.00  0.00    +0.000 NA
ATOM      6  C   UNL     1      44.083   6.072  11.881  0.00  0.00    +0.000 A 
ENDROOT
BRANCH   1   7
ATOM      7  C   UNL     1      43.714   4.580   9.873  0.00  0.00    +0.000 C 
BRANCH   7   9
ATOM      8  C   UNL     1      43.650   2.727  11.459  0.00  0.00    +0.000 C 
ATOM      9  N   UNL     1      43.940   3.135  10.077  0.00  0.00    +0.000 NA
BRANCH   9  10
ATOM     10  C   UNL     1      45.341   2.767   9.773  0.00  0.00    +0.000 C 
BRANCH  10  11
ATOM     11  C   UNL     1      45.643   2.471   8.288  0.00  0.00    +0.000 C 
ATOM     12  C   UNL     1      46.530   1.227   8.118  0.00  0.00    +0.000 C 
ATOM     13  C   UNL     1      46.852   0.970   6.648  0.00  0.00    +0.000 C 
ATOM     14  C   UNL     1      47.483   2.193   5.989  0.00  0.00    +0.000 C 
ATOM     15  C   UNL     1      46.614   3.434   6.160  0.00  0.00    +0.000 C 
ATOM     16  C   UNL     1      46.295   3.697   7.629  0.00  0.00    +0.000 C 
ENDBRANCH  10  11
ENDBRANCH   9  10
ENDBRANCH   7   9
ENDBRANCH   1   7
BRANCH   4  17
ATOM     17  C   UNL     1      46.903   8.049  13.202  0.00  0.00    +0.000 C 
BRANCH  17  18
ATOM     18  N   UNL     1      47.368   7.352  14.380  0.00  0.00    +0.000 N 
ATOM     19  C   UNL     1      48.616   6.797  14.460  0.00  0.00    +0.000 C 
ATOM     20  O   UNL     1      49.423   6.874  13.537  0.00  0.00    +0.000 OA
ATOM     21  H   UNL     1      46.642   7.064  15.032  0.00  0.00    +0.000 HD
BRANCH  19  22
ATOM     22  C   UNL     1      48.975   6.168  15.737  0.00  0.00    +0.000 A 
ATOM     23  C   UNL     1      50.041   6.671  16.472  0.00  0.00    +0.000 A 
ATOM     24  S   UNL     1      50.305   5.857  17.946  0.00  0.00    +0.000 S 
ATOM     25  C   UNL     1      49.032   4.771  17.636  0.00  0.00    +0.000 A 
ATOM     26  N   UNL     1      48.735   3.775  18.514  0.00  0.00    +0.000 NA
ATOM     27  C   UNL     1      47.769   3.007  18.139  0.00  0.00    +0.000 A 
ATOM     28  N   UNL     1      47.066   3.149  16.973  0.00  0.00    +0.000 N 
ATOM     29  C   UNL     1      47.290   4.177  16.088  0.00  0.00    +0.000 A 
ATOM     30  O   UNL     1      46.574   4.335  15.105  0.00  0.00    +0.000 OA
ATOM     31  C   UNL     1      48.396   5.045  16.438  0.00  0.00    +0.000 A 
ATOM     32  H   UNL     1      46.302   2.529  16.746  0.00  0.00    +0.000 HD
ENDBRANCH  19  22
ENDBRANCH  17  18
ENDBRANCH   4  17
TORSDOF 7
ENDMDL
MODEL 2
REMARK VINA RESULT:    -7.986      2.737      3.575
REMARK INTER + INTRA:         -12.084
REMARK INTER:                 -10.965
REMARK INTRA:                  -1.119
REMARK UNBOUND:                -0.830
REMARK  Name = 
REMARK  8 active torsions:
REMARK  status: ('A' for Active; 'I' for Inactive)
REMARK    1  A    between atoms: C_1  and  N_2
REMARK    2  A    between atoms: N_2  and  C_3
REMARK    3  A    between atoms: N_2  and  C_24
REMARK    4  A    between atoms: C_3  and  C_4
REMARK    5  A    between atoms: C_7  and  C_8
REMARK    6  A    between atoms: C_8  and  N_9
REMARK    7  A    between atoms: C_10  and  C_12
REMARK    8  A    between atoms: C_24  and  C_25
REMARK                            x       y       z     vdW  Elec       q    Type
REMARK                         _______ _______ _______ _____ _____    ______ ____
ROOT
ATOM      1  C   UNL     1      46.438   4.738  13.361  0.00  0.00    +0.000 A 
ATOM      2  C   UNL     1      46.939   5.953  12.885  0.00  0.00    +0.000 A 
ATOM      3  C   UNL     1      47.854   6.672  13.643  0.00  0.00    +0.000 A 
ATOM      4  C   UNL     1      48.220   6.177  14.890  0.00  0.00    +0.000 A 
ATOM      5  N   UNL     1      47.746   5.003  15.383  0.00  0.00    +0.000 NA
ATOM      6  C   UNL     1      46.882   4.309  14.607  0.00  0.00    +0.000 A 
ENDROOT
BRANCH   1   7
ATOM      7  C   UNL     1      45.459   3.927  12.552  0.00  0.00    +0.000 C 
BRANCH   7   9
ATOM      8  C   UNL     1      43.194   4.811  12.762  0.00  0.00    +0.000 C 
ATOM      9  N   UNL     1      44.385   4.708  11.906  0.00  0.00    +0.000 NA
BRANCH   9  10
ATOM     10  C   UNL     1      43.978   4.092  10.623  0.00  0.00    +0.000 C 
BRANCH  10  11
ATOM     11  C   UNL     1      45.133   3.590   9.730  0.00  0.00    +0.000 C 
ATOM     12  C   UNL     1      45.402   4.539   8.550  0.00  0.00    +0.000 C 
ATOM     13  C   UNL     1      46.521   4.009   7.656  0.00  0.00    +0.000 C 
ATOM     14  C   UNL     1      46.228   2.592   7.170  0.00  0.00    +0.000 C 
ATOM     15  C   UNL     1      45.952   1.646   8.333  0.00  0.00    +0.000 C 
ATOM     16  C   UNL     1      44.830   2.170   9.226  0.00  0.00    +0.000 C 
ENDBRANCH  10  11
ENDBRANCH   9  10
ENDBRANCH   7   9
ENDBRANCH   1   7
BRANCH   4  17
ATOM     17  C   UNL     1      49.215   6.932  15.738  0.00  0.00    +0.000 C 
BRANCH  17  18
ATOM     18  N   UNL     1      50.235   6.060  16.278  0.00  0.00    +0.000 N 
ATOM     19  C   UNL     1      50.425   5.900  17.624  0.00  0.00    +0.000 C 
ATOM     20  O   UNL     1      49.727   6.477  18.454  0.00  0.00    +0.000 OA
ATOM     21  H   UNL     1      50.965   5.787  15.626  0.00  0.00    +0.000 HD
BRANCH  19  22
ATOM     22  C   UNL     1      51.460   4.940  18.031  0.00  0.00    +0.000 A 
ATOM     23  C   UNL     1      52.587   5.394  18.704  0.00  0.00    +0.000 A 
ATOM     24  S   UNL     1      53.672   4.154  19.141  0.00  0.00    +0.000 S 
ATOM     25  C   UNL     1      52.697   2.968  18.407  0.00  0.00    +0.000 A 
ATOM     26  N   UNL     1      53.075   1.661  18.398  0.00  0.00    +0.000 NA
ATOM     27  C   UNL     1      52.258   0.876  17.780  0.00  0.00    +0.000 A 
ATOM     28  N   UNL     1      51.095   1.276  17.179  0.00  0.00    +0.000 N 
ATOM     29  C   UNL     1      50.644   2.574  17.217  0.00  0.00    +0.000 A 
ATOM     30  O   UNL     1      49.547   2.878  16.760  0.00  0.00    +0.000 OA
ATOM     31  C   UNL     1      51.545   3.508  17.862  0.00  0.00    +0.000 A 
ATOM     32  H   UNL     1      50.484   0.609  16.732  0.00  0.00    +0.000 HD
ENDBRANCH  19  22
ENDBRANCH  17  18
ENDBRANCH   4  17
TORSDOF 7
ENDMDL
MODEL 3
REMARK VINA RESULT:    -7.762      2.080      2.561
REMARK INTER + INTRA:         -11.768
REMARK INTER:                 -10.878
REMARK INTRA:                  -0.891
REMARK UNBOUND:                -0.830
REMARK  Name = 
REMARK  8 active torsions:
REMARK  status: ('A' for Active; 'I' for Inactive)
REMARK    1  A    between atoms: C_1  and  N_2
REMARK    2  A    between atoms: N_2  and  C_3
REMARK    3  A    between atoms: N_2  and  C_24
REMARK    4  A    between atoms: C_3  and  C_4
REMARK    5  A    between atoms: C_7  and  C_8
REMARK    6  A    between atoms: C_8  and  N_9
REMARK    7  A    between atoms: C_10  and  C_12
REMARK    8  A    between atoms: C_24  and  C_25
REMARK                            x       y       z     vdW  Elec       q    Type
REMARK                         _______ _______ _______ _____ _____    ______ ____
ROOT
ATOM      1  C   UNL     1      45.984   4.430  12.531  0.00  0.00    +0.000 A 
ATOM      2  C   UNL     1      46.180   5.685  11.950  0.00  0.00    +0.000 A 
ATOM      3  C   UNL     1      47.092   6.573  12.506  0.00  0.00    +0.000 A 
ATOM      4  C   UNL     1      47.763   6.199  13.666  0.00  0.00    +0.000 A 
ATOM      5  N   UNL     1      47.589   4.988  14.257  0.00  0.00    +0.000 NA
ATOM      6  C   UNL     1      46.719   4.132  13.673  0.00  0.00    +0.000 A 
ENDROOT
BRANCH   1   7
ATOM      7  C   UNL     1      45.016   3.439  11.938  0.00  0.00    +0.000 C 
BRANCH   7   9
ATOM      8  C   UNL     1      43.199   4.515  10.716  0.00  0.00    +0.000 C 
ATOM      9  N   UNL     1      44.481   3.804  10.611  0.00  0.00    +0.000 NA
BRANCH   9  10
ATOM     10  C   UNL     1      44.275   2.604   9.770  0.00  0.00    +0.000 C 
BRANCH  10  11
ATOM     11  C   UNL     1      45.083   2.567   8.455  0.00  0.00    +0.000 C 
ATOM     12  C   UNL     1      46.088   1.404   8.430  0.00  0.00    +0.000 C 
ATOM     13  C   UNL     1      46.906   1.404   7.140  0.00  0.00    +0.000 C 
ATOM     14  C   UNL     1      47.603   2.742   6.917  0.00  0.00    +0.000 C 
ATOM     15  C   UNL     1      46.614   3.902   6.948  0.00  0.00    +0.000 C 
ATOM     16  C   UNL     1      45.799   3.909   8.239  0.00  0.00    +0.000 C 
ENDBRANCH  10  11
ENDBRANCH   9  10
ENDBRANCH   7   9
ENDBRANCH   1   7
BRANCH   4  17
ATOM     17  C   UNL     1      48.763   7.138  14.294  0.00  0.00    +0.000 C 
BRANCH  17  18
ATOM     18  N   UNL     1      48.599   7.221  15.728  0.00  0.00    +0.000 N 
ATOM     19  C   UNL     1      49.510   6.694  16.603  0.00  0.00    +0.000 C 
ATOM     20  O   UNL     1      50.533   6.133  16.218  0.00  0.00    +0.000 OA
ATOM     21  H   UNL     1      47.660   7.446  16.048  0.00  0.00    +0.000 HD
BRANCH  19  22
ATOM     22  C   UNL     1      49.244   6.901  18.033  0.00  0.00    +0.000 A 
ATOM     23  C   UNL     1      49.264   8.188  18.553  0.00  0.00    +0.000 A 
ATOM     24  S   UNL     1      48.898   8.262  20.217  0.00  0.00    +0.000 S 
ATOM     25  C   UNL     1      48.744   6.570  20.313  0.00  0.00    +0.000 A 
ATOM     26  N   UNL     1      48.460   5.962  21.497  0.00  0.00    +0.000 NA
ATOM     27  C   UNL     1      48.403   4.674  21.431  0.00  0.00    +0.000 A 
ATOM     28  N   UNL     1      48.595   3.941  20.291  0.00  0.00    +0.000 N 
ATOM     29  C   UNL     1      48.823   4.516  19.064  0.00  0.00    +0.000 A 
ATOM     30  O   UNL     1      48.886   3.835  18.046  0.00  0.00    +0.000 OA
ATOM     31  C   UNL     1      48.940   5.961  19.086  0.00  0.00    +0.000 A 
ATOM     32  H   UNL     1      48.514   2.935  20.300  0.00  0.00    +0.000 HD
ENDBRANCH  19  22
ENDBRANCH  17  18
ENDBRANCH   4  17
TORSDOF 7
ENDMDL
MODEL 4
REMARK VINA RESULT:    -7.561      2.816      8.279
REMARK INTER + INTRA:         -11.485
REMARK INTER:                  -9.979
REMARK INTRA:                  -1.506
REMARK UNBOUND:                -0.830
REMARK  Name = 
REMARK  8 active torsions:
REMARK  status: ('A' for Active; 'I' for Inactive)
REMARK    1  A    between atoms: C_1  and  N_2
REMARK    2  A    between atoms: N_2  and  C_3
REMARK    3  A    between atoms: N_2  and  C_24
REMARK    4  A    between atoms: C_3  and  C_4
REMARK    5  A    between atoms: C_7  and  C_8
REMARK    6  A    between atoms: C_8  and  N_9
REMARK    7  A    between atoms: C_10  and  C_12
REMARK    8  A    between atoms: C_24  and  C_25
REMARK                            x       y       z     vdW  Elec       q    Type
REMARK                         _______ _______ _______ _____ _____    ______ ____
ROOT
ATOM      1  C   UNL     1      48.985   7.729  16.301  0.00  0.00    +0.000 A 
ATOM      2  C   UNL     1      48.456   8.884  15.720  0.00  0.00    +0.000 A 
ATOM      3  C   UNL     1      48.038   8.865  14.395  0.00  0.00    +0.000 A 
ATOM      4  C   UNL     1      48.198   7.693  13.662  0.00  0.00    +0.000 A 
ATOM      5  N   UNL     1      48.716   6.557  14.199  0.00  0.00    +0.000 NA
ATOM      6  C   UNL     1      49.082   6.596  15.500  0.00  0.00    +0.000 A 
ENDROOT
BRANCH   1   7
ATOM      7  C   UNL     1      49.429   7.714  17.742  0.00  0.00    +0.000 C 
BRANCH   7   9
ATOM      8  C   UNL     1      47.997   7.703  19.718  0.00  0.00    +0.000 C 
ATOM      9  N   UNL     1      48.594   6.895  18.644  0.00  0.00    +0.000 NA
BRANCH   9  10
ATOM     10  C   UNL     1      49.388   5.813  19.268  0.00  0.00    +0.000 C 
BRANCH  10  11
ATOM     11  C   UNL     1      49.095   4.389  18.749  0.00  0.00    +0.000 C 
ATOM     12  C   UNL     1      50.217   3.868  17.837  0.00  0.00    +0.000 C 
ATOM     13  C   UNL     1      49.895   2.475  17.300  0.00  0.00    +0.000 C 
ATOM     14  C   UNL     1      48.546   2.446  16.588  0.00  0.00    +0.000 C 
ATOM     15  C   UNL     1      47.428   2.969  17.482  0.00  0.00    +0.000 C 
ATOM     16  C   UNL     1      47.745   4.364  18.016  0.00  0.00    +0.000 C 
ENDBRANCH  10  11
ENDBRANCH   9  10
ENDBRANCH   7   9
ENDBRANCH   1   7
BRANCH   4  17
ATOM     17  C   UNL     1      47.751   7.638  12.222  0.00  0.00    +0.000 C 
BRANCH  17  18
ATOM     18  N   UNL     1      47.002   6.435  11.936  0.00  0.00    +0.000 N 
ATOM     19  C   UNL     1      45.656   6.338  12.164  0.00  0.00    +0.000 C 
ATOM     20  O   UNL     1      45.001   7.276  12.612  0.00  0.00    +0.000 OA
ATOM     21  H   UNL     1      47.557   5.593  11.813  0.00  0.00    +0.000 HD
BRANCH  19  22
ATOM     22  C   UNL     1      45.012   5.076  11.774  0.00  0.00    +0.000 A 
ATOM     23  C   UNL     1      44.278   4.364  12.713  0.00  0.00    +0.000 A 
ATOM     24  S   UNL     1      43.564   2.945  12.094  0.00  0.00    +0.000 S 
ATOM     25  C   UNL     1      44.248   3.206  10.558  0.00  0.00    +0.000 A 
ATOM     26  N   UNL     1      44.045   2.321   9.545  0.00  0.00    +0.000 NA
ATOM     27  C   UNL     1      44.647   2.627   8.445  0.00  0.00    +0.000 A 
ATOM     28  N   UNL     1      45.425   3.739   8.263  0.00  0.00    +0.000 N 
ATOM     29  C   UNL     1      45.605   4.691   9.239  0.00  0.00    +0.000 A 
ATOM     30  O   UNL     1      46.220   5.726   9.009  0.00  0.00    +0.000 OA
ATOM     31  C   UNL     1      44.986   4.376  10.511  0.00  0.00    +0.000 A 
ATOM     32  H   UNL     1      45.850   3.937   7.369  0.00  0.00    +0.000 HD
ENDBRANCH  19  22
ENDBRANCH  17  18
ENDBRANCH   4  17
TORSDOF 7
ENDMDL
MODEL 5
REMARK VINA RESULT:    -7.480      2.972      3.498
REMARK INTER + INTRA:         -11.371
REMARK INTER:                 -10.302
REMARK INTRA:                  -1.069
REMARK UNBOUND:                -0.830
REMARK  Name = 
REMARK  8 active torsions:
REMARK  status: ('A' for Active; 'I' for Inactive)
REMARK    1  A    between atoms: C_1  and  N_2
REMARK    2  A    between atoms: N_2  and  C_3
REMARK    3  A    between atoms: N_2  and  C_24
REMARK    4  A    between atoms: C_3  and  C_4
REMARK    5  A    between atoms: C_7  and  C_8
REMARK    6  A    between atoms: C_8  and  N_9
REMARK    7  A    between atoms: C_10  and  C_12
REMARK    8  A    between atoms: C_24  and  C_25
REMARK                            x       y       z     vdW  Elec       q    Type
REMARK                         _______ _______ _______ _____ _____    ______ ____
ROOT
ATOM      1  C   UNL     1      46.065   4.552  12.750  0.00  0.00    +0.000 A 
ATOM      2  C   UNL     1      46.102   5.807  12.138  0.00  0.00    +0.000 A 
ATOM      3  C   UNL     1      46.921   6.806  12.650  0.00  0.00    +0.000 A 
ATOM      4  C   UNL     1      47.661   6.537  13.797  0.00  0.00    +0.000 A 
ATOM      5  N   UNL     1      47.641   5.328  14.417  0.00  0.00    +0.000 NA
ATOM      6  C   UNL     1      46.860   4.366  13.876  0.00  0.00    +0.000 A 
ENDROOT
BRANCH   1   7
ATOM      7  C   UNL     1      45.201   3.443  12.206  0.00  0.00    +0.000 C 
BRANCH   7   9
ATOM      8  C   UNL     1      42.976   4.071  11.424  0.00  0.00    +0.000 C 
ATOM      9  N   UNL     1      44.372   3.812  11.041  0.00  0.00    +0.000 NA
BRANCH   9  10
ATOM     10  C   UNL     1      44.379   2.740  10.021  0.00  0.00    +0.000 C 
BRANCH  10  11
ATOM     11  C   UNL     1      45.597   2.731   9.073  0.00  0.00    +0.000 C 
ATOM     12  C   UNL     1      45.500   3.831   8.002  0.00  0.00    +0.000 C 
ATOM     13  C   UNL     1      46.693   3.785   7.049  0.00  0.00    +0.000 C 
ATOM     14  C   UNL     1      46.850   2.407   6.413  0.00  0.00    +0.000 C 
ATOM     15  C   UNL     1      46.939   1.309   7.468  0.00  0.00    +0.000 C 
ATOM     16  C   UNL     1      45.745   1.349   8.419  0.00  0.00    +0.000 C 
ENDBRANCH  10  11
ENDBRANCH   9  10
ENDBRANCH   7   9
ENDBRANCH   1   7
BRANCH   4  17
ATOM     17  C   UNL     1      48.563   7.599  14.377  0.00  0.00    +0.000 C 
BRANCH  17  18
ATOM     18  N   UNL     1      48.152   7.989  15.707  0.00  0.00    +0.000 N 
ATOM     19  C   UNL     1      48.760   9.005  16.394  0.00  0.00    +0.000 C 
ATOM     20  O   UNL     1      49.683   9.657  15.912  0.00  0.00    +0.000 OA
ATOM     21  H   UNL     1      47.581   7.311  16.204  0.00  0.00    +0.000 HD
BRANCH  19  22
ATOM     22  C   UNL     1      48.203   9.331  17.713  0.00  0.00    +0.000 A 
ATOM     23  C   UNL     1      47.774  10.627  17.973  0.00  0.00    +0.000 A 
ATOM     24  S   UNL     1      47.119  10.833  19.533  0.00  0.00    +0.000 S 
ATOM     25  C   UNL     1      47.424   9.208  19.936  0.00  0.00    +0.000 A 
ATOM     26  N   UNL     1      47.118   8.726  21.170  0.00  0.00    +0.000 NA
ATOM     27  C   UNL     1      47.431   7.487  21.349  0.00  0.00    +0.000 A 
ATOM     28  N   UNL     1      48.015   6.685  20.405  0.00  0.00    +0.000 N 
ATOM     29  C   UNL     1      48.284   7.113  19.127  0.00  0.00    +0.000 A 
ATOM     30  O   UNL     1      48.709   6.339  18.276  0.00  0.00    +0.000 OA
ATOM     31  C   UNL     1      47.992   8.511  18.884  0.00  0.00    +0.000 A 
ATOM     32  H   UNL     1      48.214   5.715  20.598  0.00  0.00    +0.000 HD
ENDBRANCH  19  22
ENDBRANCH  17  18
ENDBRANCH   4  17
TORSDOF 7
ENDMDL
MODEL 6
REMARK VINA RESULT:    -7.421      3.197      7.938
REMARK INTER + INTRA:         -11.288
REMARK INTER:                  -9.609
REMARK INTRA:                  -1.679
REMARK UNBOUND:                -0.830
REMARK  Name = 
REMARK  8 active torsions:
REMARK  status: ('A' for Active; 'I' for Inactive)
REMARK    1  A    between atoms: C_1  and  N_2
REMARK    2  A    between atoms: N_2  and  C_3
REMARK    3  A    between atoms: N_2  and  C_24
REMARK    4  A    between atoms: C_3  and  C_4
REMARK    5  A    between atoms: C_7  and  C_8
REMARK    6  A    between atoms: C_8  and  N_9
REMARK    7  A    between atoms: C_10  and  C_12
REMARK    8  A    between atoms: C_24  and  C_25
REMARK                            x       y       z     vdW  Elec       q    Type
REMARK                         _______ _______ _______ _____ _____    ______ ____
ROOT
ATOM      1  C   UNL     1      48.986   7.944  16.163  0.00  0.00    +0.000 A 
ATOM      2  C   UNL     1      49.009   6.770  15.405  0.00  0.00    +0.000 A 
ATOM      3  C   UNL     1      48.818   6.827  14.031  0.00  0.00    +0.000 A 
ATOM      4  C   UNL     1      48.563   8.062  13.444  0.00  0.00    +0.000 A 
ATOM      5  N   UNL     1      48.529   9.220  14.155  0.00  0.00    +0.000 NA
ATOM      6  C   UNL     1      48.752   9.137  15.486  0.00  0.00    +0.000 A 
ENDROOT
BRANCH   1   7
ATOM      7  C   UNL     1      49.210   7.916  17.653  0.00  0.00    +0.000 C 
BRANCH   7   9
ATOM      8  C   UNL     1      47.415   8.011  19.303  0.00  0.00    +0.000 C 
ATOM      9  N   UNL     1      48.211   7.145  18.420  0.00  0.00    +0.000 NA
BRANCH   9  10
ATOM     10  C   UNL     1      48.863   6.111  19.255  0.00  0.00    +0.000 C 
BRANCH  10  11
ATOM     11  C   UNL     1      48.709   4.659  18.754  0.00  0.00    +0.000 C 
ATOM     12  C   UNL     1      49.936   4.194  17.952  0.00  0.00    +0.000 C 
ATOM     13  C   UNL     1      49.752   2.770  17.430  0.00  0.00    +0.000 C 
ATOM     14  C   UNL     1      48.472   2.633  16.611  0.00  0.00    +0.000 C 
ATOM     15  C   UNL     1      47.251   3.100  17.396  0.00  0.00    +0.000 C 
ATOM     16  C   UNL     1      47.429   4.525  17.913  0.00  0.00    +0.000 C 
ENDBRANCH  10  11
ENDBRANCH   9  10
ENDBRANCH   7   9
ENDBRANCH   1   7
BRANCH   4  17
ATOM     17  C   UNL     1      48.354   8.159  11.953  0.00  0.00    +0.000 C 
BRANCH  17  18
ATOM     18  N   UNL     1      47.631   7.020  11.433  0.00  0.00    +0.000 N 
ATOM     19  C   UNL     1      46.264   6.958  11.429  0.00  0.00    +0.000 C 
ATOM     20  O   UNL     1      45.569   7.878  11.853  0.00  0.00    +0.000 OA
ATOM     21  H   UNL     1      48.178   6.170  11.323  0.00  0.00    +0.000 HD
BRANCH  19  22
ATOM     22  C   UNL     1      45.662   5.765  10.820  0.00  0.00    +0.000 A 
ATOM     23  C   UNL     1      45.829   5.533   9.461  0.00  0.00    +0.000 A 
ATOM     24  S   UNL     1      45.103   4.089   8.917  0.00  0.00    +0.000 S 
ATOM     25  C   UNL     1      44.500   3.743  10.470  0.00  0.00    +0.000 A 
ATOM     26  N   UNL     1      43.746   2.633  10.694  0.00  0.00    +0.000 NA
ATOM     27  C   UNL     1      43.329   2.511  11.909  0.00  0.00    +0.000 A 
ATOM     28  N   UNL     1      43.603   3.392  12.921  0.00  0.00    +0.000 N 
ATOM     29  C   UNL     1      44.411   4.491  12.754  0.00  0.00    +0.000 A 
ATOM     30  O   UNL     1      44.722   5.200  13.705  0.00  0.00    +0.000 OA
ATOM     31  C   UNL     1      44.872   4.701  11.396  0.00  0.00    +0.000 A 
ATOM     32  H   UNL     1      43.268   3.228  13.859  0.00  0.00    +0.000 HD
ENDBRANCH  19  22
ENDBRANCH  17  18
ENDBRANCH   4  17
TORSDOF 7
ENDMDL
MODEL 7
REMARK VINA RESULT:    -7.286      3.183      3.949
REMARK INTER + INTRA:         -11.097
REMARK INTER:                  -9.963
REMARK INTRA:                  -1.134
REMARK UNBOUND:                -0.830
REMARK  Name = 
REMARK  8 active torsions:
REMARK  status: ('A' for Active; 'I' for Inactive)
REMARK    1  A    between atoms: C_1  and  N_2
REMARK    2  A    between atoms: N_2  and  C_3
REMARK    3  A    between atoms: N_2  and  C_24
REMARK    4  A    between atoms: C_3  and  C_4
REMARK    5  A    between atoms: C_7  and  C_8
REMARK    6  A    between atoms: C_8  and  N_9
REMARK    7  A    between atoms: C_10  and  C_12
REMARK    8  A    between atoms: C_24  and  C_25
REMARK                            x       y       z     vdW  Elec       q    Type
REMARK                         _______ _______ _______ _____ _____    ______ ____
ROOT
ATOM      1  C   UNL     1      46.062   4.535  12.895  0.00  0.00    +0.000 A 
ATOM      2  C   UNL     1      46.371   5.839  12.498  0.00  0.00    +0.000 A 
ATOM      3  C   UNL     1      47.272   6.595  13.237  0.00  0.00    +0.000 A 
ATOM      4  C   UNL     1      47.819   6.040  14.390  0.00  0.00    +0.000 A 
ATOM      5  N   UNL     1      47.533   4.778  14.804  0.00  0.00    +0.000 NA
ATOM      6  C   UNL     1      46.678   4.055  14.046  0.00  0.00    +0.000 A 
ENDROOT
BRANCH   1   7
ATOM      7  C   UNL     1      45.103   3.685  12.103  0.00  0.00    +0.000 C 
BRANCH   7   9
ATOM      8  C   UNL     1      42.869   4.632  11.850  0.00  0.00    +0.000 C 
ATOM      9  N   UNL     1      44.184   4.434  11.223  0.00  0.00    +0.000 NA
BRANCH   9  10
ATOM     10  C   UNL     1      43.980   3.727   9.939  0.00  0.00    +0.000 C 
BRANCH  10  11
ATOM     11  C   UNL     1      45.268   3.286   9.211  0.00  0.00    +0.000 C 
ATOM     12  C   UNL     1      45.579   4.181   8.000  0.00  0.00    +0.000 C 
ATOM     13  C   UNL     1      46.834   3.709   7.268  0.00  0.00    +0.000 C 
ATOM     14  C   UNL     1      46.728   2.242   6.860  0.00  0.00    +0.000 C 
ATOM     15  C   UNL     1      46.412   1.349   8.053  0.00  0.00    +0.000 C 
ATOM     16  C   UNL     1      45.154   1.814   8.784  0.00  0.00    +0.000 C 
ENDBRANCH  10  11
ENDBRANCH   9  10
ENDBRANCH   7   9
ENDBRANCH   1   7
BRANCH   4  17
ATOM     17  C   UNL     1      48.804   6.833  15.213  0.00  0.00    +0.000 C 
BRANCH  17  18
ATOM     18  N   UNL     1      48.371   6.973  16.586  0.00  0.00    +0.000 N 
ATOM     19  C   UNL     1      49.224   6.812  17.644  0.00  0.00    +0.000 C 
ATOM     20  O   UNL     1      50.416   6.555  17.487  0.00  0.00    +0.000 OA
ATOM     21  H   UNL     1      47.367   6.930  16.733  0.00  0.00    +0.000 HD
BRANCH  19  22
ATOM     22  C   UNL     1      48.662   7.038  18.981  0.00  0.00    +0.000 A 
ATOM     23  C   UNL     1      48.784   6.051  19.951  0.00  0.00    +0.000 A 
ATOM     24  S   UNL     1      48.115   6.483  21.458  0.00  0.00    +0.000 S 
ATOM     25  C   UNL     1      47.596   7.988  20.858  0.00  0.00    +0.000 A 
ATOM     26  N   UNL     1      46.912   8.857  21.651  0.00  0.00    +0.000 NA
ATOM     27  C   UNL     1      46.553   9.945  21.059  0.00  0.00    +0.000 A 
ATOM     28  N   UNL     1      46.821  10.248  19.751  0.00  0.00    +0.000 N 
ATOM     29  C   UNL     1      47.562   9.429  18.933  0.00  0.00    +0.000 A 
ATOM     30  O   UNL     1      47.873   9.778  17.799  0.00  0.00    +0.000 OA
ATOM     31  C   UNL     1      47.954   8.170  19.534  0.00  0.00    +0.000 A 
ATOM     32  H   UNL     1      46.534  11.129  19.351  0.00  0.00    +0.000 HD
ENDBRANCH  19  22
ENDBRANCH  17  18
ENDBRANCH   4  17
TORSDOF 7
ENDMDL
MODEL 8
REMARK VINA RESULT:    -7.178      3.753      9.318
REMARK INTER + INTRA:         -10.945
REMARK INTER:                  -9.706
REMARK INTRA:                  -1.239
REMARK UNBOUND:                -0.830
REMARK  Name = 
REMARK  8 active torsions:
REMARK  status: ('A' for Active; 'I' for Inactive)
REMARK    1  A    between atoms: C_1  and  N_2
REMARK    2  A    between atoms: N_2  and  C_3
REMARK    3  A    between atoms: N_2  and  C_24
REMARK    4  A    between atoms: C_3  and  C_4
REMARK    5  A    between atoms: C_7  and  C_8
REMARK    6  A    between atoms: C_8  and  N_9
REMARK    7  A    between atoms: C_10  and  C_12
REMARK    8  A    between atoms: C_24  and  C_25
REMARK                            x       y       z     vdW  Elec       q    Type
REMARK                         _______ _______ _______ _____ _____    ______ ____
ROOT
ATOM      1  C   UNL     1      50.493   5.427  18.631  0.00  0.00    +0.000 A 
ATOM      2  C   UNL     1      49.603   4.585  19.303  0.00  0.00    +0.000 A 
ATOM      3  C   UNL     1      48.570   3.970  18.608  0.00  0.00    +0.000 A 
ATOM      4  C   UNL     1      48.423   4.245  17.253  0.00  0.00    +0.000 A 
ATOM      5  N   UNL     1      49.268   5.063  16.573  0.00  0.00    +0.000 NA
ATOM      6  C   UNL     1      50.285   5.621  17.270  0.00  0.00    +0.000 A 
ENDROOT
BRANCH   1   7
ATOM      7  C   UNL     1      51.635   6.093  19.355  0.00  0.00    +0.000 C 
BRANCH   7   9
ATOM      8  C   UNL     1      53.631   5.873  20.742  0.00  0.00    +0.000 C 
ATOM      9  N   UNL     1      52.654   5.171  19.896  0.00  0.00    +0.000 NA
BRANCH   9  10
ATOM     10  C   UNL     1      53.391   4.492  18.807  0.00  0.00    +0.000 C 
BRANCH  10  11
ATOM     11  C   UNL     1      53.319   2.950  18.815  0.00  0.00    +0.000 C 
ATOM     12  C   UNL     1      54.696   2.309  18.579  0.00  0.00    +0.000 C 
ATOM     13  C   UNL     1      54.601   0.785  18.551  0.00  0.00    +0.000 C 
ATOM     14  C   UNL     1      53.583   0.304  17.521  0.00  0.00    +0.000 C 
ATOM     15  C   UNL     1      52.216   0.941  17.743  0.00  0.00    +0.000 C 
ATOM     16  C   UNL     1      52.307   2.465  17.765  0.00  0.00    +0.000 C 
ENDBRANCH  10  11
ENDBRANCH   9  10
ENDBRANCH   7   9
ENDBRANCH   1   7
BRANCH   4  17
ATOM     17  C   UNL     1      47.313   3.590  16.467  0.00  0.00    +0.000 C 
BRANCH  17  18
ATOM     18  N   UNL     1      46.690   4.511  15.543  0.00  0.00    +0.000 N 
ATOM     19  C   UNL     1      46.863   4.420  14.188  0.00  0.00    +0.000 C 
ATOM     20  O   UNL     1      47.547   3.536  13.676  0.00  0.00    +0.000 OA
ATOM     21  H   UNL     1      46.344   5.374  15.953  0.00  0.00    +0.000 HD
BRANCH  19  22
ATOM     22  C   UNL     1      46.126   5.387  13.365  0.00  0.00    +0.000 A 
ATOM     23  C   UNL     1      46.695   6.623  13.087  0.00  0.00    +0.000 A 
ATOM     24  S   UNL     1      45.732   7.614  12.089  0.00  0.00    +0.000 S 
ATOM     25  C   UNL     1      44.496   6.446  12.029  0.00  0.00    +0.000 A 
ATOM     26  N   UNL     1      43.345   6.682  11.343  0.00  0.00    +0.000 NA
ATOM     27  C   UNL     1      42.483   5.724  11.407  0.00  0.00    +0.000 A 
ATOM     28  N   UNL     1      42.670   4.549  12.085  0.00  0.00    +0.000 N 
ATOM     29  C   UNL     1      43.840   4.243  12.738  0.00  0.00    +0.000 A 
ATOM     30  O   UNL     1      44.013   3.141  13.246  0.00  0.00    +0.000 OA
ATOM     31  C   UNL     1      44.828   5.303  12.736  0.00  0.00    +0.000 A 
ATOM     32  H   UNL     1      41.966   3.826  12.077  0.00  0.00    +0.000 HD
ENDBRANCH  19  22
ENDBRANCH  17  18
ENDBRANCH   4  17
TORSDOF 7
ENDMDL
MODEL 9
REMARK VINA RESULT:    -7.026      3.792      9.721
REMARK INTER + INTRA:         -10.730
REMARK INTER:                  -9.214
REMARK INTRA:                  -1.517
REMARK UNBOUND:                -0.830
REMARK  Name = 
REMARK  8 active torsions:
REMARK  status: ('A' for Active; 'I' for Inactive)
REMARK    1  A    between atoms: C_1  and  N_2
REMARK    2  A    between atoms: N_2  and  C_3
REMARK    3  A    between atoms: N_2  and  C_24
REMARK    4  A    between atoms: C_3  and  C_4
REMARK    5  A    between atoms: C_7  and  C_8
REMARK    6  A    between atoms: C_8  and  N_9
REMARK    7  A    between atoms: C_10  and  C_12
REMARK    8  A    between atoms: C_24  and  C_25
REMARK                            x       y       z     vdW  Elec       q    Type
REMARK                         _______ _______ _______ _____ _____    ______ ____
ROOT
ATOM      1  C   UNL     1      50.780   5.195  18.703  0.00  0.00    +0.000 A 
ATOM      2  C   UNL     1      49.771   4.562  19.435  0.00  0.00    +0.000 A 
ATOM      3  C   UNL     1      48.669   4.029  18.779  0.00  0.00    +0.000 A 
ATOM      4  C   UNL     1      48.578   4.178  17.399  0.00  0.00    +0.000 A 
ATOM      5  N   UNL     1      49.540   4.794  16.662  0.00  0.00    +0.000 NA
ATOM      6  C   UNL     1      50.618   5.273  17.324  0.00  0.00    +0.000 A 
ENDROOT
BRANCH   1   7
ATOM      7  C   UNL     1      51.997   5.766  19.385  0.00  0.00    +0.000 C 
BRANCH   7   9
ATOM      8  C   UNL     1      53.430   7.738  19.493  0.00  0.00    +0.000 C 
ATOM      9  N   UNL     1      52.047   7.240  19.443  0.00  0.00    +0.000 NA
BRANCH   9  10
ATOM     10  C   UNL     1      51.330   7.751  20.633  0.00  0.00    +0.000 C 
BRANCH  10  11
ATOM     11  C   UNL     1      50.005   8.488  20.344  0.00  0.00    +0.000 C 
ATOM     12  C   UNL     1      48.789   7.719  20.886  0.00  0.00    +0.000 C 
ATOM     13  C   UNL     1      47.484   8.441  20.559  0.00  0.00    +0.000 C 
ATOM     14  C   UNL     1      47.348   8.705  19.062  0.00  0.00    +0.000 C 
ATOM     15  C   UNL     1      48.553   9.461  18.515  0.00  0.00    +0.000 C 
ATOM     16  C   UNL     1      49.860   8.739  18.835  0.00  0.00    +0.000 C 
ENDBRANCH  10  11
ENDBRANCH   9  10
ENDBRANCH   7   9
ENDBRANCH   1   7
BRANCH   4  17
ATOM     17  C   UNL     1      47.396   3.608  16.655  0.00  0.00    +0.000 C 
BRANCH  17  18
ATOM     18  N   UNL     1      46.858   4.546  15.695  0.00  0.00    +0.000 N 
ATOM     19  C   UNL     1      46.783   4.265  14.358  0.00  0.00    +0.000 C 
ATOM     20  O   UNL     1      47.155   3.188  13.896  0.00  0.00    +0.000 OA
ATOM     21  H   UNL     1      46.790   5.507  16.016  0.00  0.00    +0.000 HD
BRANCH  19  22
ATOM     22  C   UNL     1      46.163   5.287  13.505  0.00  0.00    +0.000 A 
ATOM     23  C   UNL     1      46.844   6.470  13.251  0.00  0.00    +0.000 A 
ATOM     24  S   UNL     1      46.008   7.535  12.214  0.00  0.00    +0.000 S 
ATOM     25  C   UNL     1      44.683   6.472  12.103  0.00  0.00    +0.000 A 
ATOM     26  N   UNL     1      43.585   6.800  11.370  0.00  0.00    +0.000 NA
ATOM     27  C   UNL     1      42.644   5.918  11.399  0.00  0.00    +0.000 A 
ATOM     28  N   UNL     1      42.705   4.734  12.084  0.00  0.00    +0.000 N 
ATOM     29  C   UNL     1      43.818   4.334  12.785  0.00  0.00    +0.000 A 
ATOM     30  O   UNL     1      43.878   3.223  13.300  0.00  0.00    +0.000 OA
ATOM     31  C   UNL     1      44.890   5.309  12.823  0.00  0.00    +0.000 A 
ATOM     32  H   UNL     1      41.944   4.072  12.048  0.00  0.00    +0.000 HD
ENDBRANCH  19  22
ENDBRANCH  17  18
ENDBRANCH   4  17
TORSDOF 7
ENDMDL
