MODEL 1
REMARK VINA RESULT:    -7.975      0.000      0.000
REMARK INTER + INTRA:         -10.109
REMARK INTER:                  -9.374
REMARK INTRA:                  -0.735
REMARK UNBOUND:                -0.735
REMARK  Name = 
REMARK  3 active torsions:
REMARK  status: ('A' for Active; 'I' for Inactive)
REMARK    1  A    between atoms: N_6  and  C_7
REMARK    2  A    between atoms: C_7  and  C_8
REMARK    3  A    between atoms: C_12  and  C_13
REMARK                            x       y       z     vdW  Elec       q    Type
REMARK                         _______ _______ _______ _____ _____    ______ ____
ROOT
ATOM      1  C   UNL     1      45.462   4.322  12.018  0.00  0.00    +0.000 A 
ATOM      2  C   UNL     1      45.885   3.426  13.001  0.00  0.00    +0.000 A 
ATOM      3  C   UNL     1      46.977   3.753  13.786  0.00  0.00    +0.000 A 
ATOM      4  N   UNL     1      47.678   4.900  13.660  0.00  0.00    +0.000 NA
ATOM      5  C   UNL     1      47.270   5.788  12.730  0.00  0.00    +0.000 A 
ATOM      6  C   UNL     1      46.163   5.537  11.921  0.00  0.00    +0.000 A 
ENDROOT
BRANCH   5   7
ATOM      7  C   UNL     1      48.092   7.047  12.501  0.00  0.00    +0.000 C 
ATOM      8  C   UNL     1      48.984   7.364  13.713  0.00  0.00    +0.000 C 
ATOM      9  C   UNL     1      48.205   8.024  14.851  0.00  0.00    +0.000 C 
ATOM     10  N   UNL     1      47.521   9.240  14.406  0.00  0.00    +0.000 NA
ATOM     11  C   UNL     1      46.576   8.938  13.328  0.00  0.00    +0.000 C 
ATOM     12  C   UNL     1      47.258   8.282  12.124  0.00  0.00    +0.000 C 
ATOM     13  H   UNL     1      48.209   9.912  14.070  0.00  0.00    +0.000 HD
ENDBRANCH   5   7
BRANCH   1  14
ATOM     14  C   UNL     1      44.320   3.994  11.063  0.00  0.00    +0.000 C 
ATOM     15  C   UNL     1      42.911   4.128  11.643  0.00  0.00    +0.000 C 
ATOM     16  C   UNL     1      43.388   5.111  10.630  0.00  0.00    +0.000 C 
BRANCH  14  22
ATOM     17 CL   UNL     1      47.727   2.047   5.350  0.00  0.00    +0.000 Cl
ATOM     18  C   UNL     1      46.858   2.346   6.798  0.00  0.00    +0.000 A 
ATOM     19  C   UNL     1      46.442   3.625   7.127  0.00  0.00    +0.000 A 
ATOM     20  C   UNL     1      45.712   3.825   8.303  0.00  0.00    +0.000 A 
ATOM     21  C   UNL     1      45.395   2.738   9.112  0.00  0.00    +0.000 A 
ATOM     22  N   UNL     1      44.563   2.813  10.229  0.00  0.00    +0.000 N 
ATOM     23  N   UNL     1      45.816   1.491   8.803  0.00  0.00    +0.000 NA
ATOM     24  C   UNL     1      46.536   1.320   7.666  0.00  0.00    +0.000 A 
ATOM     25  H   UNL     1      44.581   1.902  10.680  0.00  0.00    +0.000 HD
ENDBRANCH  14  22
ENDBRANCH   1  14
TORSDOF 3
ENDMDL
MODEL 2
REMARK VINA RESULT:    -6.438      4.011      7.616
REMARK INTER + INTRA:          -8.302
REMARK INTER:                  -7.546
REMARK INTRA:                  -0.756
REMARK UNBOUND:                -0.735
REMARK  Name = 
REMARK  3 active torsions:
REMARK  status: ('A' for Active; 'I' for Inactive)
REMARK    1  A    between atoms: N_6  and  C_7
REMARK    2  A    between atoms: C_7  and  C_8
REMARK    3  A    between atoms: C_12  and  C_13
REMARK                            x       y       z     vdW  Elec       q    Type
REMARK                         _______ _______ _______ _____ _____    ______ ____
ROOT
ATOM      1  C   UNL     1      47.137   7.809  12.179  0.00  0.00    +0.000 A 
ATOM      2  C   UNL     1      46.418   9.005  12.207  0.00  0.00    +0.000 A 
ATOM      3  C   UNL     1      45.083   8.996  11.840  0.00  0.00    +0.000 A 
ATOM      4  N   UNL     1      44.418   7.888  11.447  0.00  0.00    +0.000 NA
ATOM      5  C   UNL     1      45.092   6.720  11.437  0.00  0.00    +0.000 A 
ATOM      6  C   UNL     1      46.430   6.649  11.817  0.00  0.00    +0.000 A 
ENDROOT
BRANCH   5   7
ATOM      7  C   UNL     1      44.397   5.472  10.912  0.00  0.00    +0.000 C 
ATOM      8  C   UNL     1      42.980   5.332  11.492  0.00  0.00    +0.000 C 
ATOM      9  C   UNL     1      42.988   4.783  12.919  0.00  0.00    +0.000 C 
ATOM     10  N   UNL     1      43.688   3.500  13.002  0.00  0.00    +0.000 NA
ATOM     11  C   UNL     1      45.080   3.640  12.565  0.00  0.00    +0.000 C 
ATOM     12  C   UNL     1      45.188   4.173  11.133  0.00  0.00    +0.000 C 
ATOM     13  H   UNL     1      43.218   2.818  12.409  0.00  0.00    +0.000 HD
ENDBRANCH   5   7
BRANCH   1  14
ATOM     14  C   UNL     1      48.629   7.757  12.490  0.00  0.00    +0.000 C 
ATOM     15  C   UNL     1      49.561   7.801  11.278  0.00  0.00    +0.000 C 
ATOM     16  C   UNL     1      49.479   8.978  12.188  0.00  0.00    +0.000 C 
BRANCH  14  22
ATOM     17 CL   UNL     1      48.579   7.067  19.386  0.00  0.00    +0.000 Cl
ATOM     18  C   UNL     1      48.627   7.053  17.672  0.00  0.00    +0.000 A 
ATOM     19  C   UNL     1      48.639   8.236  16.951  0.00  0.00    +0.000 A 
ATOM     20  C   UNL     1      48.706   8.184  15.555  0.00  0.00    +0.000 A 
ATOM     21  C   UNL     1      48.782   6.953  14.913  0.00  0.00    +0.000 A 
ATOM     22  N   UNL     1      48.985   6.799  13.541  0.00  0.00    +0.000 N 
ATOM     23  N   UNL     1      48.751   5.796  15.612  0.00  0.00    +0.000 NA
ATOM     24  C   UNL     1      48.670   5.867  16.965  0.00  0.00    +0.000 A 
ATOM     25  H   UNL     1      48.905   5.807  13.334  0.00  0.00    +0.000 HD
ENDBRANCH  14  22
ENDBRANCH   1  14
TORSDOF 3
ENDMDL
MODEL 3
REMARK VINA RESULT:    -6.380      2.260      3.407
REMARK INTER + INTRA:          -8.234
REMARK INTER:                  -8.076
REMARK INTRA:                  -0.158
REMARK UNBOUND:                -0.735
REMARK  Name = 
REMARK  3 active torsions:
REMARK  status: ('A' for Active; 'I' for Inactive)
REMARK    1  A    between atoms: N_6  and  C_7
REMARK    2  A    between atoms: C_7  and  C_8
REMARK    3  A    between atoms: C_12  and  C_13
REMARK                            x       y       z     vdW  Elec       q    Type
REMARK                         _______ _______ _______ _____ _____    ______ ____
ROOT
ATOM      1  C   UNL     1      45.859   5.122  13.086  0.00  0.00    +0.000 A 
ATOM      2  C   UNL     1      46.853   6.068  12.830  0.00  0.00    +0.000 A 
ATOM      3  C   UNL     1      47.944   6.142  13.678  0.00  0.00    +0.000 A 
ATOM      4  N   UNL     1      48.114   5.349  14.758  0.00  0.00    +0.000 NA
ATOM      5  C   UNL     1      47.174   4.415  15.007  0.00  0.00    +0.000 A 
ATOM      6  C   UNL     1      46.062   4.266  14.182  0.00  0.00    +0.000 A 
ENDROOT
BRANCH   5   7
ATOM      7  C   UNL     1      47.290   3.568  16.266  0.00  0.00    +0.000 C 
ATOM      8  C   UNL     1      46.884   4.364  17.518  0.00  0.00    +0.000 C 
ATOM      9  C   UNL     1      47.991   5.305  17.992  0.00  0.00    +0.000 C 
ATOM     10  N   UNL     1      49.242   4.587  18.245  0.00  0.00    +0.000 NA
ATOM     11  C   UNL     1      49.710   3.918  17.028  0.00  0.00    +0.000 C 
ATOM     12  C   UNL     1      48.676   2.935  16.471  0.00  0.00    +0.000 C 
ATOM     13  H   UNL     1      49.092   3.890  18.973  0.00  0.00    +0.000 HD
ENDBRANCH   5   7
BRANCH   1  14
ATOM     14  C   UNL     1      44.590   5.037  12.244  0.00  0.00    +0.000 C 
ATOM     15  C   UNL     1      43.297   5.448  12.951  0.00  0.00    +0.000 C 
ATOM     16  C   UNL     1      43.866   6.322  11.886  0.00  0.00    +0.000 C 
BRANCH  14  22
ATOM     17 CL   UNL     1      46.587   2.663   6.047  0.00  0.00    +0.000 Cl
ATOM     18  C   UNL     1      46.049   3.072   7.623  0.00  0.00    +0.000 A 
ATOM     19  C   UNL     1      45.879   4.396   7.995  0.00  0.00    +0.000 A 
ATOM     20  C   UNL     1      45.413   4.689   9.280  0.00  0.00    +0.000 A 
ATOM     21  C   UNL     1      45.106   3.653  10.156  0.00  0.00    +0.000 A 
ATOM     22  N   UNL     1      44.512   3.837  11.405  0.00  0.00    +0.000 N 
ATOM     23  N   UNL     1      45.288   2.360   9.803  0.00  0.00    +0.000 NA
ATOM     24  C   UNL     1      45.757   2.097   8.557  0.00  0.00    +0.000 A 
ATOM     25  H   UNL     1      44.488   2.930  11.865  0.00  0.00    +0.000 HD
ENDBRANCH  14  22
ENDBRANCH   1  14
TORSDOF 3
ENDMDL
MODEL 4
REMARK VINA RESULT:    -6.032      4.833      7.795
REMARK INTER + INTRA:          -7.825
REMARK INTER:                  -7.381
REMARK INTRA:                  -0.444
REMARK UNBOUND:                -0.735
REMARK  Name = 
REMARK  3 active torsions:
REMARK  status: ('A' for Active; 'I' for Inactive)
REMARK    1  A    between atoms: N_6  and  C_7
REMARK    2  A    between atoms: C_7  and  C_8
REMARK    3  A    between atoms: C_12  and  C_13
REMARK                            x       y       z     vdW  Elec       q    Type
REMARK                         _______ _______ _______ _____ _____    ______ ____
ROOT
ATOM      1  C   UNL     1      48.162   5.405  15.900  0.00  0.00    +0.000 A 
ATOM      2  C   UNL     1      48.945   6.552  15.767  0.00  0.00    +0.000 A 
ATOM      3  C   UNL     1      48.917   7.251  14.572  0.00  0.00    +0.000 A 
ATOM      4  N   UNL     1      48.171   6.889  13.506  0.00  0.00    +0.000 NA
ATOM      5  C   UNL     1      47.391   5.795  13.626  0.00  0.00    +0.000 A 
ATOM      6  C   UNL     1      47.350   5.058  14.807  0.00  0.00    +0.000 A 
ENDROOT
BRANCH   5   7
ATOM      7  C   UNL     1      46.609   5.310  12.414  0.00  0.00    +0.000 C 
ATOM      8  C   UNL     1      46.279   6.468  11.457  0.00  0.00    +0.000 C 
ATOM      9  C   UNL     1      45.095   7.303  11.944  0.00  0.00    +0.000 C 
ATOM     10  N   UNL     1      43.903   6.480  12.158  0.00  0.00    +0.000 NA
ATOM     11  C   UNL     1      44.163   5.441  13.158  0.00  0.00    +0.000 C 
ATOM     12  C   UNL     1      45.330   4.532  12.761  0.00  0.00    +0.000 C 
ATOM     13  H   UNL     1      43.633   6.039  11.280  0.00  0.00    +0.000 HD
ENDBRANCH   5   7
BRANCH   1  14
ATOM     14  C   UNL     1      48.205   4.539  17.156  0.00  0.00    +0.000 C 
ATOM     15  C   UNL     1      46.984   4.638  18.071  0.00  0.00    +0.000 C 
ATOM     16  C   UNL     1      47.218   3.393  17.285  0.00  0.00    +0.000 C 
BRANCH  14  22
ATOM     17 CL   UNL     1      53.896   0.630  17.759  0.00  0.00    +0.000 Cl
ATOM     18  C   UNL     1      52.586   1.735  17.692  0.00  0.00    +0.000 A 
ATOM     19  C   UNL     1      51.315   1.311  17.342  0.00  0.00    +0.000 A 
ATOM     20  C   UNL     1      50.267   2.236  17.325  0.00  0.00    +0.000 A 
ATOM     21  C   UNL     1      50.508   3.559  17.680  0.00  0.00    +0.000 A 
ATOM     22  N   UNL     1      49.511   4.524  17.822  0.00  0.00    +0.000 N 
ATOM     23  N   UNL     1      51.752   3.981  18.004  0.00  0.00    +0.000 NA
ATOM     24  C   UNL     1      52.759   3.071  17.999  0.00  0.00    +0.000 A 
ATOM     25  H   UNL     1      49.973   5.414  17.993  0.00  0.00    +0.000 HD
ENDBRANCH  14  22
ENDBRANCH   1  14
TORSDOF 3
ENDMDL
MODEL 5
REMARK VINA RESULT:    -5.969      3.844      6.206
REMARK INTER + INTRA:          -7.751
REMARK INTER:                  -6.933
REMARK INTRA:                  -0.818
REMARK UNBOUND:                -0.735
REMARK  Name = 
REMARK  3 active torsions:
REMARK  status: ('A' for Active; 'I' for Inactive)
REMARK    1  A    between atoms: N_6  and  C_7
REMARK    2  A    between atoms: C_7  and  C_8
REMARK    3  A    between atoms: C_12  and  C_13
REMARK                            x       y       z     vdW  Elec       q    Type
REMARK                         _______ _______ _______ _____ _____    ______ ____
ROOT
ATOM      1  C   UNL     1      48.566   8.163  14.611  0.00  0.00    +0.000 A 
ATOM      2  C   UNL     1      48.242   9.360  15.253  0.00  0.00    +0.000 A 
ATOM      3  C   UNL     1      48.265   9.409  16.636  0.00  0.00    +0.000 A 
ATOM      4  N   UNL     1      48.581   8.357  17.422  0.00  0.00    +0.000 NA
ATOM      5  C   UNL     1      48.917   7.199  16.817  0.00  0.00    +0.000 A 
ATOM      6  C   UNL     1      48.941   7.084  15.429  0.00  0.00    +0.000 A 
ENDROOT
BRANCH   5   7
ATOM      7  C   UNL     1      49.189   5.971  17.674  0.00  0.00    +0.000 C 
ATOM      8  C   UNL     1      48.843   4.674  16.924  0.00  0.00    +0.000 C 
ATOM      9  C   UNL     1      47.340   4.392  16.914  0.00  0.00    +0.000 C 
ATOM     10  N   UNL     1      46.789   4.344  18.270  0.00  0.00    +0.000 NA
ATOM     11  C   UNL     1      47.004   5.618  18.962  0.00  0.00    +0.000 C 
ATOM     12  C   UNL     1      48.487   5.992  19.041  0.00  0.00    +0.000 C 
ATOM     13  H   UNL     1      47.242   3.598  18.794  0.00  0.00    +0.000 HD
ENDBRANCH   5   7
BRANCH   1  14
ATOM     14  C   UNL     1      48.482   8.012  13.096  0.00  0.00    +0.000 C 
ATOM     15  C   UNL     1      49.369   8.959  12.285  0.00  0.00    +0.000 C 
ATOM     16  C   UNL     1      49.701   7.507  12.346  0.00  0.00    +0.000 C 
BRANCH  14  22
ATOM     17 CL   UNL     1      43.493   3.212  12.787  0.00  0.00    +0.000 Cl
ATOM     18  C   UNL     1      44.597   4.524  12.808  0.00  0.00    +0.000 A 
ATOM     19  C   UNL     1      45.956   4.306  12.959  0.00  0.00    +0.000 A 
ATOM     20  C   UNL     1      46.829   5.399  12.943  0.00  0.00    +0.000 A 
ATOM     21  C   UNL     1      46.324   6.682  12.755  0.00  0.00    +0.000 A 
ATOM     22  N   UNL     1      47.119   7.817  12.592  0.00  0.00    +0.000 N 
ATOM     23  N   UNL     1      44.996   6.900  12.627  0.00  0.00    +0.000 NA
ATOM     24  C   UNL     1      44.164   5.828  12.660  0.00  0.00    +0.000 A 
ATOM     25  H   UNL     1      46.496   8.621  12.568  0.00  0.00    +0.000 HD
ENDBRANCH  14  22
ENDBRANCH   1  14
TORSDOF 3
ENDMDL
MODEL 6
REMARK VINA RESULT:    -5.777      2.829      4.972
REMARK INTER + INTRA:          -7.525
REMARK INTER:                  -7.229
REMARK INTRA:                  -0.296
REMARK UNBOUND:                -0.735
REMARK  Name = 
REMARK  3 active torsions:
REMARK  status: ('A' for Active; 'I' for Inactive)
REMARK    1  A    between atoms: N_6  and  C_7
REMARK    2  A    between atoms: C_7  and  C_8
REMARK    3  A    between atoms: C_12  and  C_13
REMARK                            x       y       z     vdW  Elec       q    Type
REMARK                         _______ _______ _______ _____ _____    ______ ____
ROOT
ATOM      1  C   UNL     1      47.958   7.003  14.106  0.00  0.00    +0.000 A 
ATOM      2  C   UNL     1      49.225   7.531  13.851  0.00  0.00    +0.000 A 
ATOM      3  C   UNL     1      50.244   7.301  14.758  0.00  0.00    +0.000 A 
ATOM      4  N   UNL     1      50.094   6.590  15.896  0.00  0.00    +0.000 NA
ATOM      5  C   UNL     1      48.882   6.054  16.147  0.00  0.00    +0.000 A 
ATOM      6  C   UNL     1      47.816   6.223  15.267  0.00  0.00    +0.000 A 
ENDROOT
BRANCH   5   7
ATOM      7  C   UNL     1      48.656   5.326  17.464  0.00  0.00    +0.000 C 
ATOM      8  C   UNL     1      49.982   4.840  18.073  0.00  0.00    +0.000 C 
ATOM      9  C   UNL     1      50.495   3.565  17.403  0.00  0.00    +0.000 C 
ATOM     10  N   UNL     1      49.502   2.490  17.452  0.00  0.00    +0.000 NA
ATOM     11  C   UNL     1      48.269   2.892  16.770  0.00  0.00    +0.000 C 
ATOM     12  C   UNL     1      47.659   4.160  17.374  0.00  0.00    +0.000 C 
ATOM     13  H   UNL     1      49.290   2.267  18.423  0.00  0.00    +0.000 HD
ENDBRANCH   5   7
BRANCH   1  14
ATOM     14  C   UNL     1      46.767   7.284  13.195  0.00  0.00    +0.000 C 
ATOM     15  C   UNL     1      46.172   8.689  13.297  0.00  0.00    +0.000 C 
ATOM     16  C   UNL     1      46.930   8.296  12.075  0.00  0.00    +0.000 C 
BRANCH  14  22
ATOM     17 CL   UNL     1      44.353   2.551   8.745  0.00  0.00    +0.000 Cl
ATOM     18  C   UNL     1      44.863   3.625   9.981  0.00  0.00    +0.000 A 
ATOM     19  C   UNL     1      45.462   4.834   9.670  0.00  0.00    +0.000 A 
ATOM     20  C   UNL     1      45.840   5.695  10.705  0.00  0.00    +0.000 A 
ATOM     21  C   UNL     1      45.589   5.338  12.026  0.00  0.00    +0.000 A 
ATOM     22  N   UNL     1      45.805   6.181  13.117  0.00  0.00    +0.000 N 
ATOM     23  N   UNL     1      45.021   4.150  12.335  0.00  0.00    +0.000 NA
ATOM     24  C   UNL     1      44.676   3.321  11.317  0.00  0.00    +0.000 A 
ATOM     25  H   UNL     1      45.628   5.638  13.958  0.00  0.00    +0.000 HD
ENDBRANCH  14  22
ENDBRANCH   1  14
TORSDOF 3
ENDMDL
MODEL 7
REMARK VINA RESULT:    -5.710      4.127      8.113
REMARK INTER + INTRA:          -7.446
REMARK INTER:                  -6.979
REMARK INTRA:                  -0.467
REMARK UNBOUND:                -0.735
REMARK  Name = 
REMARK  3 active torsions:
REMARK  status: ('A' for Active; 'I' for Inactive)
REMARK    1  A    between atoms: N_6  and  C_7
REMARK    2  A    between atoms: C_7  and  C_8
REMARK    3  A    between atoms: C_12  and  C_13
REMARK                            x       y       z     vdW  Elec       q    Type
REMARK                         _______ _______ _______ _____ _____    ______ ____
ROOT
ATOM      1  C   UNL     1      47.646   6.435  13.467  0.00  0.00    +0.000 A 
ATOM      2  C   UNL     1      47.947   5.420  14.378  0.00  0.00    +0.000 A 
ATOM      3  C   UNL     1      46.985   4.468  14.666  0.00  0.00    +0.000 A 
ATOM      4  N   UNL     1      45.751   4.455  14.119  0.00  0.00    +0.000 NA
ATOM      5  C   UNL     1      45.451   5.415  13.220  0.00  0.00    +0.000 A 
ATOM      6  C   UNL     1      46.378   6.392  12.863  0.00  0.00    +0.000 A 
ENDROOT
BRANCH   5   7
ATOM      7  C   UNL     1      44.039   5.482  12.656  0.00  0.00    +0.000 C 
ATOM      8  C   UNL     1      43.215   4.246  13.052  0.00  0.00    +0.000 C 
ATOM      9  C   UNL     1      43.550   3.025  12.195  0.00  0.00    +0.000 C 
ATOM     10  N   UNL     1      43.376   3.302  10.768  0.00  0.00    +0.000 NA
ATOM     11  C   UNL     1      44.244   4.403  10.343  0.00  0.00    +0.000 C 
ATOM     12  C   UNL     1      43.981   5.688  11.133  0.00  0.00    +0.000 C 
ATOM     13  H   UNL     1      42.405   3.552  10.587  0.00  0.00    +0.000 HD
ENDBRANCH   5   7
BRANCH   1  14
ATOM     14  C   UNL     1      48.625   7.564  13.164  0.00  0.00    +0.000 C 
ATOM     15  C   UNL     1      49.174   7.600  11.737  0.00  0.00    +0.000 C 
ATOM     16  C   UNL     1      48.210   8.645  12.183  0.00  0.00    +0.000 C 
BRANCH  14  22
ATOM     17 CL   UNL     1      49.024  10.161  19.577  0.00  0.00    +0.000 Cl
ATOM     18  C   UNL     1      49.099   9.450  18.018  0.00  0.00    +0.000 A 
ATOM     19  C   UNL     1      48.138   9.733  17.061  0.00  0.00    +0.000 A 
ATOM     20  C   UNL     1      48.248   9.156  15.792  0.00  0.00    +0.000 A 
ATOM     21  C   UNL     1      49.327   8.327  15.502  0.00  0.00    +0.000 A 
ATOM     22  N   UNL     1      49.597   7.812  14.233  0.00  0.00    +0.000 N 
ATOM     23  N   UNL     1      50.256   8.033  16.440  0.00  0.00    +0.000 NA
ATOM     24  C   UNL     1      50.124   8.591  17.670  0.00  0.00    +0.000 A 
ATOM     25  H   UNL     1      50.381   7.171  14.328  0.00  0.00    +0.000 HD
ENDBRANCH  14  22
ENDBRANCH   1  14
TORSDOF 3
ENDMDL
MODEL 8
REMARK VINA RESULT:    -5.349      3.254      6.508
REMARK INTER + INTRA:          -7.022
REMARK INTER:                  -7.189
REMARK INTRA:                   0.167
REMARK UNBOUND:                -0.735
REMARK  Name = 
REMARK  3 active torsions:
REMARK  status: ('A' for Active; 'I' for Inactive)
REMARK    1  A    between atoms: N_6  and  C_7
REMARK    2  A    between atoms: C_7  and  C_8
REMARK    3  A    between atoms: C_12  and  C_13
REMARK                            x       y       z     vdW  Elec       q    Type
REMARK                         _______ _______ _______ _____ _____    ______ ____
ROOT
ATOM      1  C   UNL     1      47.104   6.321  13.291  0.00  0.00    +0.000 A 
ATOM      2  C   UNL     1      47.642   5.752  14.447  0.00  0.00    +0.000 A 
ATOM      3  C   UNL     1      47.248   4.477  14.815  0.00  0.00    +0.000 A 
ATOM      4  N   UNL     1      46.360   3.734  14.121  0.00  0.00    +0.000 NA
ATOM      5  C   UNL     1      45.847   4.260  12.989  0.00  0.00    +0.000 A 
ATOM      6  C   UNL     1      46.217   5.527  12.544  0.00  0.00    +0.000 A 
ENDROOT
BRANCH   5   7
ATOM      7  C   UNL     1      44.776   3.486  12.235  0.00  0.00    +0.000 C 
ATOM      8  C   UNL     1      45.052   3.471  10.722  0.00  0.00    +0.000 C 
ATOM      9  C   UNL     1      44.648   4.780  10.046  0.00  0.00    +0.000 C 
ATOM     10  N   UNL     1      43.241   5.105  10.290  0.00  0.00    +0.000 NA
ATOM     11  C   UNL     1      42.983   5.242  11.727  0.00  0.00    +0.000 C 
ATOM     12  C   UNL     1      43.343   3.972  12.504  0.00  0.00    +0.000 C 
ATOM     13  H   UNL     1      42.652   4.365   9.913  0.00  0.00    +0.000 HD
ENDBRANCH   5   7
BRANCH   1  14
ATOM     14  C   UNL     1      47.428   7.751  12.869  0.00  0.00    +0.000 C 
ATOM     15  C   UNL     1      46.232   8.698  12.766  0.00  0.00    +0.000 C 
ATOM     16  C   UNL     1      47.218   8.872  13.871  0.00  0.00    +0.000 C 
BRANCH  14  22
ATOM     17 CL   UNL     1      54.228   8.638  11.865  0.00  0.00    +0.000 Cl
ATOM     18  C   UNL     1      52.535   8.369  11.932  0.00  0.00    +0.000 A 
ATOM     19  C   UNL     1      51.797   8.757  13.037  0.00  0.00    +0.000 A 
ATOM     20  C   UNL     1      50.415   8.546  13.044  0.00  0.00    +0.000 A 
ATOM     21  C   UNL     1      49.799   7.973  11.936  0.00  0.00    +0.000 A 
ATOM     22  N   UNL     1      48.417   7.842  11.791  0.00  0.00    +0.000 N 
ATOM     23  N   UNL     1      50.519   7.575  10.863  0.00  0.00    +0.000 NA
ATOM     24  C   UNL     1      51.861   7.774  10.882  0.00  0.00    +0.000 A 
ATOM     25  H   UNL     1      48.252   7.310  10.941  0.00  0.00    +0.000 HD
ENDBRANCH  14  22
ENDBRANCH   1  14
TORSDOF 3
ENDMDL
MODEL 9
REMARK VINA RESULT:    -5.331      3.103      7.015
REMARK INTER + INTRA:          -7.000
REMARK INTER:                  -7.298
REMARK INTRA:                   0.297
REMARK UNBOUND:                -0.735
REMARK  Name = 
REMARK  3 active torsions:
REMARK  status: ('A' for Active; 'I' for Inactive)
REMARK    1  A    between atoms: N_6  and  C_7
REMARK    2  A    between atoms: C_7  and  C_8
REMARK    3  A    between atoms: C_12  and  C_13
REMARK                            x       y       z     vdW  Elec       q    Type
REMARK                         _______ _______ _______ _____ _____    ______ ____
ROOT
ATOM      1  C   UNL     1      45.148   4.919  12.149  0.00  0.00    +0.000 A 
ATOM      2  C   UNL     1      44.349   4.156  13.001  0.00  0.00    +0.000 A 
ATOM      3  C   UNL     1      43.572   3.143  12.467  0.00  0.00    +0.000 A 
ATOM      4  N   UNL     1      43.531   2.839  11.152  0.00  0.00    +0.000 NA
ATOM      5  C   UNL     1      44.315   3.552  10.317  0.00  0.00    +0.000 A 
ATOM      6  C   UNL     1      45.141   4.570  10.787  0.00  0.00    +0.000 A 
ENDROOT
BRANCH   5   7
ATOM      7  C   UNL     1      44.222   3.296   8.820  0.00  0.00    +0.000 C 
ATOM      8  C   UNL     1      44.521   1.826   8.481  0.00  0.00    +0.000 C 
ATOM      9  C   UNL     1      46.019   1.522   8.488  0.00  0.00    +0.000 C 
ATOM     10  N   UNL     1      46.755   2.401   7.577  0.00  0.00    +0.000 NA
ATOM     11  C   UNL     1      46.579   3.805   7.957  0.00  0.00    +0.000 C 
ATOM     12  C   UNL     1      45.105   4.223   7.968  0.00  0.00    +0.000 C 
ATOM     13  H   UNL     1      46.414   2.266   6.626  0.00  0.00    +0.000 HD
ENDBRANCH   5   7
BRANCH   1  14
ATOM     14  C   UNL     1      45.966   6.103  12.654  0.00  0.00    +0.000 C 
ATOM     15  C   UNL     1      46.911   5.807  13.820  0.00  0.00    +0.000 C 
ATOM     16  C   UNL     1      47.473   6.081  12.467  0.00  0.00    +0.000 C 
BRANCH  14  22
ATOM     17 CL   UNL     1      46.486  12.830  11.070  0.00  0.00    +0.000 Cl
ATOM     18  C   UNL     1      46.174  11.198  11.493  0.00  0.00    +0.000 A 
ATOM     19  C   UNL     1      47.214  10.306  11.698  0.00  0.00    +0.000 A 
ATOM     20  C   UNL     1      46.921   8.989  12.068  0.00  0.00    +0.000 A 
ATOM     21  C   UNL     1      45.597   8.601  12.247  0.00  0.00    +0.000 A 
ATOM     22  N   UNL     1      45.209   7.355  12.741  0.00  0.00    +0.000 N 
ATOM     23  N   UNL     1      44.579   9.464  12.029  0.00  0.00    +0.000 NA
ATOM     24  C   UNL     1      44.883  10.733  11.655  0.00  0.00    +0.000 A 
ATOM     25  H   UNL     1      44.195   7.308  12.680  0.00  0.00    +0.000 HD
ENDBRANCH  14  22
ENDBRANCH   1  14
TORSDOF 3
ENDMDL
