MODEL 1
REMARK VINA RESULT:    -7.519      0.000      0.000
REMARK INTER + INTRA:         -11.979
REMARK INTER:                 -10.596
REMARK INTRA:                  -1.383
REMARK UNBOUND:                -1.383
REMARK  Name = 
REMARK  7 active torsions:
REMARK  status: ('A' for Active; 'I' for Inactive)
REMARK    1  A    between atoms: C_2  and  C_20
REMARK    2  A    between atoms: N_3  and  C_4
REMARK    3  A    between atoms: C_4  and  C_5
REMARK    4  A    between atoms: C_8  and  C_9
REMARK    5  A    between atoms: C_9  and  C_10
REMARK    6  A    between atoms: C_10  and  O_11
REMARK    7  A    between atoms: O_11  and  C_12
REMARK                            x       y       z     vdW  Elec       q    Type
REMARK                         _______ _______ _______ _____ _____    ______ ____
ROOT
ATOM      1  C   UNL     1      47.182   8.402  12.903  0.00  0.00    +0.000 C 
ENDROOT
BRANCH   1   2
ATOM      2  C   UNL     1      46.283   7.310  12.378  0.00  0.00    +0.000 A 
ATOM      3  C   UNL     1      46.671   6.516  11.293  0.00  0.00    +0.000 A 
ATOM      4  C   UNL     1      45.843   5.489  10.830  0.00  0.00    +0.000 A 
ATOM      5  C   UNL     1      44.602   5.237  11.432  0.00  0.00    +0.000 A 
ATOM      6  C   UNL     1      44.193   6.074  12.480  0.00  0.00    +0.000 A 
ATOM      7  C   UNL     1      45.019   7.100  12.944  0.00  0.00    +0.000 A 
BRANCH   5   8
ATOM      8  C   UNL     1      43.686   4.102  11.017  0.00  0.00    +0.000 C 
BRANCH   8   9
ATOM      9  C   UNL     1      44.369   2.923  10.324  0.00  0.00    +0.000 C 
BRANCH   9  10
ATOM     10  O   UNL     1      44.149   2.988   8.913  0.00  0.00    +0.000 OA
BRANCH  10  11
ATOM     11  C   UNL     1      45.331   2.776   8.229  0.00  0.00    +0.000 A 
ATOM     12  N   UNL     1      45.834   1.538   8.320  0.00  0.00    +0.000 NA
ATOM     13  C   UNL     1      46.994   1.331   7.665  0.00  0.00    +0.000 A 
ATOM     14  C   UNL     1      47.636   2.296   6.927  0.00  0.00    +0.000 A 
ATOM     15  C   UNL     1      47.021   3.526   6.886  0.00  0.00    +0.000 A 
ATOM     16  N   UNL     1      45.870   3.790   7.531  0.00  0.00    +0.000 NA
ENDBRANCH  10  11
ENDBRANCH   9  10
ENDBRANCH   8   9
ENDBRANCH   5   8
ENDBRANCH   1   2
BRANCH   1  19
ATOM     17  O   UNL     1      49.440   6.809  13.624  0.00  0.00    +0.000 OA
ATOM     18  C   UNL     1      48.662   7.217  14.477  0.00  0.00    +0.000 C 
ATOM     19  N   UNL     1      47.616   8.084  14.235  0.00  0.00    +0.000 N 
ATOM     20  H   UNL     1      46.902   8.147  14.941  0.00  0.00    +0.000 HD
BRANCH  18  21
ATOM     21  C   UNL     1      48.595   6.673  15.826  0.00  0.00    +0.000 A 
ATOM     22  C   UNL     1      49.082   7.359  16.923  0.00  0.00    +0.000 A 
ATOM     23  S   UNL     1      49.405   6.302  18.234  0.00  0.00    +0.000 S 
ATOM     24  C   UNL     1      48.758   4.967  17.391  0.00  0.00    +0.000 A 
ATOM     25  N   UNL     1      48.840   3.695  17.864  0.00  0.00    +0.000 NA
ATOM     26  C   UNL     1      48.227   2.820  17.134  0.00  0.00    +0.000 A 
ATOM     27  N   UNL     1      47.502   3.106  16.002  0.00  0.00    +0.000 N 
ATOM     28  C   UNL     1      47.396   4.376  15.479  0.00  0.00    +0.000 A 
ATOM     29  O   UNL     1      46.699   4.622  14.505  0.00  0.00    +0.000 OA
ATOM     30  C   UNL     1      48.174   5.359  16.205  0.00  0.00    +0.000 A 
ATOM     31  H   UNL     1      46.967   2.389  15.536  0.00  0.00    +0.000 HD
ENDBRANCH  18  21
ENDBRANCH   1  19
TORSDOF 7
ENDMDL
MODEL 2
REMARK VINA RESULT:    -7.339      1.571      1.971
REMARK INTER + INTRA:         -11.725
REMARK INTER:                 -10.771
REMARK INTRA:                  -0.954
REMARK UNBOUND:                -1.383
REMARK  Name = 
REMARK  7 active torsions:
REMARK  status: ('A' for Active; 'I' for Inactive)
REMARK    1  A    between atoms: C_2  and  C_20
REMARK    2  A    between atoms: N_3  and  C_4
REMARK    3  A    between atoms: C_4  and  C_5
REMARK    4  A    between atoms: C_8  and  C_9
REMARK    5  A    between atoms: C_9  and  C_10
REMARK    6  A    between atoms: C_10  and  O_11
REMARK    7  A    between atoms: O_11  and  C_12
REMARK                            x       y       z     vdW  Elec       q    Type
REMARK                         _______ _______ _______ _____ _____    ______ ____
ROOT
ATOM      1  C   UNL     1      47.783   6.996  13.713  0.00  0.00    +0.000 C 
ENDROOT
BRANCH   1   2
ATOM      2  C   UNL     1      46.805   6.105  12.987  0.00  0.00    +0.000 A 
ATOM      3  C   UNL     1      46.436   4.863  13.513  0.00  0.00    +0.000 A 
ATOM      4  C   UNL     1      45.509   4.054  12.847  0.00  0.00    +0.000 A 
ATOM      5  C   UNL     1      44.937   4.463  11.633  0.00  0.00    +0.000 A 
ATOM      6  C   UNL     1      45.356   5.682  11.082  0.00  0.00    +0.000 A 
ATOM      7  C   UNL     1      46.282   6.491  11.747  0.00  0.00    +0.000 A 
BRANCH   5   8
ATOM      8  C   UNL     1      43.883   3.663  10.893  0.00  0.00    +0.000 C 
BRANCH   8   9
ATOM      9  C   UNL     1      44.251   3.247   9.468  0.00  0.00    +0.000 C 
BRANCH   9  10
ATOM     10  O   UNL     1      45.095   2.095   9.494  0.00  0.00    +0.000 OA
BRANCH  10  11
ATOM     11  C   UNL     1      45.885   2.048   8.361  0.00  0.00    +0.000 A 
ATOM     12  N   UNL     1      45.976   3.197   7.678  0.00  0.00    +0.000 NA
ATOM     13  C   UNL     1      46.735   3.153   6.564  0.00  0.00    +0.000 A 
ATOM     14  C   UNL     1      47.401   2.029   6.139  0.00  0.00    +0.000 A 
ATOM     15  C   UNL     1      47.253   0.911   6.927  0.00  0.00    +0.000 A 
ATOM     16  N   UNL     1      46.498   0.897   8.041  0.00  0.00    +0.000 NA
ENDBRANCH  10  11
ENDBRANCH   9  10
ENDBRANCH   8   9
ENDBRANCH   5   8
ENDBRANCH   1   2
BRANCH   1  19
ATOM     17  O   UNL     1      48.604   8.210  16.164  0.00  0.00    +0.000 OA
ATOM     18  C   UNL     1      48.760   7.011  15.975  0.00  0.00    +0.000 C 
ATOM     19  N   UNL     1      48.292   6.322  14.875  0.00  0.00    +0.000 N 
ATOM     20  H   UNL     1      48.690   5.414  14.700  0.00  0.00    +0.000 HD
BRANCH  18  21
ATOM     21  C   UNL     1      49.652   6.182  16.775  0.00  0.00    +0.000 A 
ATOM     22  C   UNL     1      50.862   6.651  17.255  0.00  0.00    +0.000 A 
ATOM     23  S   UNL     1      51.929   5.363  17.634  0.00  0.00    +0.000 S 
ATOM     24  C   UNL     1      50.731   4.196  17.301  0.00  0.00    +0.000 A 
ATOM     25  N   UNL     1      50.996   2.863  17.280  0.00  0.00    +0.000 NA
ATOM     26  C   UNL     1      49.953   2.120  17.088  0.00  0.00    +0.000 A 
ATOM     27  N   UNL     1      48.666   2.585  16.962  0.00  0.00    +0.000 N 
ATOM     28  C   UNL     1      48.348   3.925  16.969  0.00  0.00    +0.000 A 
ATOM     29  O   UNL     1      47.191   4.319  16.915  0.00  0.00    +0.000 OA
ATOM     30  C   UNL     1      49.509   4.787  17.057  0.00  0.00    +0.000 A 
ATOM     31  H   UNL     1      47.887   1.945  16.914  0.00  0.00    +0.000 HD
ENDBRANCH  18  21
ENDBRANCH   1  19
TORSDOF 7
ENDMDL
MODEL 3
REMARK VINA RESULT:    -7.245      1.550      1.876
REMARK INTER + INTRA:         -11.593
REMARK INTER:                 -10.548
REMARK INTRA:                  -1.045
REMARK UNBOUND:                -1.383
REMARK  Name = 
REMARK  7 active torsions:
REMARK  status: ('A' for Active; 'I' for Inactive)
REMARK    1  A    between atoms: C_2  and  C_20
REMARK    2  A    between atoms: N_3  and  C_4
REMARK    3  A    between atoms: C_4  and  C_5
REMARK    4  A    between atoms: C_8  and  C_9
REMARK    5  A    between atoms: C_9  and  C_10
REMARK    6  A    between atoms: C_10  and  O_11
REMARK    7  A    between atoms: O_11  and  C_12
REMARK                            x       y       z     vdW  Elec       q    Type
REMARK                         _______ _______ _______ _____ _____    ______ ____
ROOT
ATOM      1  C   UNL     1      48.633   6.946  13.558  0.00  0.00    +0.000 C 
ENDROOT
BRANCH   1   2
ATOM      2  C   UNL     1      47.430   6.222  13.004  0.00  0.00    +0.000 A 
ATOM      3  C   UNL     1      46.901   6.560  11.753  0.00  0.00    +0.000 A 
ATOM      4  C   UNL     1      45.801   5.867  11.236  0.00  0.00    +0.000 A 
ATOM      5  C   UNL     1      45.198   4.828  11.959  0.00  0.00    +0.000 A 
ATOM      6  C   UNL     1      45.697   4.535  13.236  0.00  0.00    +0.000 A 
ATOM      7  C   UNL     1      46.795   5.226  13.755  0.00  0.00    +0.000 A 
BRANCH   5   8
ATOM      8  C   UNL     1      44.045   3.999  11.428  0.00  0.00    +0.000 C 
BRANCH   8   9
ATOM      9  C   UNL     1      44.064   3.729   9.923  0.00  0.00    +0.000 C 
BRANCH   9  10
ATOM     10  O   UNL     1      44.552   2.411   9.667  0.00  0.00    +0.000 OA
BRANCH  10  11
ATOM     11  C   UNL     1      45.501   2.434   8.663  0.00  0.00    +0.000 A 
ATOM     12  N   UNL     1      46.069   1.253   8.382  0.00  0.00    +0.000 NA
ATOM     13  C   UNL     1      47.006   1.274   7.413  0.00  0.00    +0.000 A 
ATOM     14  C   UNL     1      47.366   2.407   6.723  0.00  0.00    +0.000 A 
ATOM     15  C   UNL     1      46.706   3.560   7.080  0.00  0.00    +0.000 A 
ATOM     16  N   UNL     1      45.772   3.598   8.048  0.00  0.00    +0.000 NA
ENDBRANCH  10  11
ENDBRANCH   9  10
ENDBRANCH   8   9
ENDBRANCH   5   8
ENDBRANCH   1   2
BRANCH   1  19
ATOM     17  O   UNL     1      50.461   6.529  15.713  0.00  0.00    +0.000 OA
ATOM     18  C   UNL     1      49.324   6.931  15.924  0.00  0.00    +0.000 C 
ATOM     19  N   UNL     1      48.416   7.269  14.941  0.00  0.00    +0.000 N 
ATOM     20  H   UNL     1      47.450   7.338  15.216  0.00  0.00    +0.000 HD
BRANCH  18  21
ATOM     21  C   UNL     1      48.693   6.900  17.236  0.00  0.00    +0.000 A 
ATOM     22  C   UNL     1      48.256   8.047  17.872  0.00  0.00    +0.000 A 
ATOM     23  S   UNL     1      48.106   7.811  19.564  0.00  0.00    +0.000 S 
ATOM     24  C   UNL     1      48.479   6.153  19.423  0.00  0.00    +0.000 A 
ATOM     25  N   UNL     1      48.670   5.353  20.505  0.00  0.00    +0.000 NA
ATOM     26  C   UNL     1      48.866   4.107  20.213  0.00  0.00    +0.000 A 
ATOM     27  N   UNL     1      48.842   3.582  18.943  0.00  0.00    +0.000 N 
ATOM     28  C   UNL     1      48.658   4.351  17.815  0.00  0.00    +0.000 A 
ATOM     29  O   UNL     1      48.580   3.859  16.699  0.00  0.00    +0.000 OA
ATOM     30  C   UNL     1      48.561   5.768  18.101  0.00  0.00    +0.000 A 
ATOM     31  H   UNL     1      48.903   2.585  18.795  0.00  0.00    +0.000 HD
ENDBRANCH  18  21
ENDBRANCH   1  19
TORSDOF 7
ENDMDL
MODEL 4
REMARK VINA RESULT:    -7.191      2.340      2.957
REMARK INTER + INTRA:         -11.516
REMARK INTER:                 -10.393
REMARK INTRA:                  -1.123
REMARK UNBOUND:                -1.383
REMARK  Name = 
REMARK  7 active torsions:
REMARK  status: ('A' for Active; 'I' for Inactive)
REMARK    1  A    between atoms: C_2  and  C_20
REMARK    2  A    between atoms: N_3  and  C_4
REMARK    3  A    between atoms: C_4  and  C_5
REMARK    4  A    between atoms: C_8  and  C_9
REMARK    5  A    between atoms: C_9  and  C_10
REMARK    6  A    between atoms: C_10  and  O_11
REMARK    7  A    between atoms: O_11  and  C_12
REMARK                            x       y       z     vdW  Elec       q    Type
REMARK                         _______ _______ _______ _____ _____    ______ ____
ROOT
ATOM      1  C   UNL     1      47.339   4.246  15.093  0.00  0.00    +0.000 C 
ENDROOT
BRANCH   1   2
ATOM      2  C   UNL     1      46.527   4.422  13.833  0.00  0.00    +0.000 A 
ATOM      3  C   UNL     1      46.111   3.316  13.084  0.00  0.00    +0.000 A 
ATOM      4  C   UNL     1      45.337   3.487  11.931  0.00  0.00    +0.000 A 
ATOM      5  C   UNL     1      44.969   4.768  11.494  0.00  0.00    +0.000 A 
ATOM      6  C   UNL     1      45.439   5.874  12.216  0.00  0.00    +0.000 A 
ATOM      7  C   UNL     1      46.212   5.705  13.367  0.00  0.00    +0.000 A 
BRANCH   5   8
ATOM      8  C   UNL     1      44.082   5.018  10.290  0.00  0.00    +0.000 C 
BRANCH   8   9
ATOM      9  C   UNL     1      44.263   4.043   9.125  0.00  0.00    +0.000 C 
BRANCH   9  10
ATOM     10  O   UNL     1      45.343   4.469   8.292  0.00  0.00    +0.000 OA
BRANCH  10  11
ATOM     11  C   UNL     1      46.085   3.381   7.870  0.00  0.00    +0.000 A 
ATOM     12  N   UNL     1      45.716   2.201   8.385  0.00  0.00    +0.000 NA
ATOM     13  C   UNL     1      46.446   1.139   7.986  0.00  0.00    +0.000 A 
ATOM     14  C   UNL     1      47.491   1.221   7.098  0.00  0.00    +0.000 A 
ATOM     15  C   UNL     1      47.770   2.479   6.617  0.00  0.00    +0.000 A 
ATOM     16  N   UNL     1      47.082   3.574   6.991  0.00  0.00    +0.000 NA
ENDBRANCH  10  11
ENDBRANCH   9  10
ENDBRANCH   8   9
ENDBRANCH   5   8
ENDBRANCH   1   2
BRANCH   1  19
ATOM     17  O   UNL     1      49.746   5.075  16.388  0.00  0.00    +0.000 OA
ATOM     18  C   UNL     1      48.753   5.791  16.392  0.00  0.00    +0.000 C 
ATOM     19  N   UNL     1      47.590   5.525  15.697  0.00  0.00    +0.000 N 
ATOM     20  H   UNL     1      46.767   6.035  15.971  0.00  0.00    +0.000 HD
BRANCH  18  21
ATOM     21  C   UNL     1      48.577   6.912  17.304  0.00  0.00    +0.000 A 
ATOM     22  C   UNL     1      49.114   8.161  17.051  0.00  0.00    +0.000 A 
ATOM     23  S   UNL     1      49.261   9.086  18.487  0.00  0.00    +0.000 S 
ATOM     24  C   UNL     1      48.476   7.884  19.409  0.00  0.00    +0.000 A 
ATOM     25  N   UNL     1      48.383   7.948  20.764  0.00  0.00    +0.000 NA
ATOM     26  C   UNL     1      47.686   6.993  21.291  0.00  0.00    +0.000 A 
ATOM     27  N   UNL     1      47.038   6.008  20.584  0.00  0.00    +0.000 N 
ATOM     28  C   UNL     1      47.108   5.897  19.213  0.00  0.00    +0.000 A 
ATOM     29  O   UNL     1      46.478   5.050  18.597  0.00  0.00    +0.000 OA
ATOM     30  C   UNL     1      47.983   6.879  18.605  0.00  0.00    +0.000 A 
ATOM     31  H   UNL     1      46.430   5.352  21.052  0.00  0.00    +0.000 HD
ENDBRANCH  18  21
ENDBRANCH   1  19
TORSDOF 7
ENDMDL
MODEL 5
REMARK VINA RESULT:    -7.184      3.486      5.597
REMARK INTER + INTRA:         -11.506
REMARK INTER:                 -10.818
REMARK INTRA:                  -0.688
REMARK UNBOUND:                -1.383
REMARK  Name = 
REMARK  7 active torsions:
REMARK  status: ('A' for Active; 'I' for Inactive)
REMARK    1  A    between atoms: C_2  and  C_20
REMARK    2  A    between atoms: N_3  and  C_4
REMARK    3  A    between atoms: C_4  and  C_5
REMARK    4  A    between atoms: C_8  and  C_9
REMARK    5  A    between atoms: C_9  and  C_10
REMARK    6  A    between atoms: C_10  and  O_11
REMARK    7  A    between atoms: O_11  and  C_12
REMARK                            x       y       z     vdW  Elec       q    Type
REMARK                         _______ _______ _______ _____ _____    ______ ____
ROOT
ATOM      1  C   UNL     1      44.156   5.000  10.136  0.00  0.00    +0.000 C 
ENDROOT
BRANCH   1   2
ATOM      2  C   UNL     1      44.866   3.983   9.277  0.00  0.00    +0.000 A 
ATOM      3  C   UNL     1      45.791   4.382   8.306  0.00  0.00    +0.000 A 
ATOM      4  C   UNL     1      46.464   3.431   7.531  0.00  0.00    +0.000 A 
ATOM      5  C   UNL     1      46.220   2.061   7.700  0.00  0.00    +0.000 A 
ATOM      6  C   UNL     1      45.248   1.671   8.632  0.00  0.00    +0.000 A 
ATOM      7  C   UNL     1      44.576   2.620   9.407  0.00  0.00    +0.000 A 
BRANCH   5   8
ATOM      8  C   UNL     1      46.958   0.979   6.935  0.00  0.00    +0.000 C 
BRANCH   8   9
ATOM      9  C   UNL     1      47.763   1.459   5.726  0.00  0.00    +0.000 C 
BRANCH   9  10
ATOM     10  O   UNL     1      46.880   1.905   4.695  0.00  0.00    +0.000 OA
BRANCH  10  11
ATOM     11  C   UNL     1      46.626   0.882   3.801  0.00  0.00    +0.000 A 
ATOM     12  N   UNL     1      45.579   1.077   2.988  0.00  0.00    +0.000 NA
ATOM     13  C   UNL     1      45.319   0.075   2.123  0.00  0.00    +0.000 A 
ATOM     14  C   UNL     1      46.068  -1.074   2.039  0.00  0.00    +0.000 A 
ATOM     15  C   UNL     1      47.131  -1.161   2.908  0.00  0.00    +0.000 A 
ATOM     16  N   UNL     1      47.427  -0.196   3.799  0.00  0.00    +0.000 NA
ENDBRANCH  10  11
ENDBRANCH   9  10
ENDBRANCH   8   9
ENDBRANCH   5   8
ENDBRANCH   1   2
BRANCH   1  19
ATOM     17  O   UNL     1      45.365   5.164  12.719  0.00  0.00    +0.000 OA
ATOM     18  C   UNL     1      45.534   6.049  11.890  0.00  0.00    +0.000 C 
ATOM     19  N   UNL     1      45.087   5.999  10.585  0.00  0.00    +0.000 N 
ATOM     20  H   UNL     1      45.056   6.868  10.079  0.00  0.00    +0.000 HD
BRANCH  18  21
ATOM     21  C   UNL     1      46.039   7.374  12.223  0.00  0.00    +0.000 A 
ATOM     22  C   UNL     1      45.234   8.498  12.194  0.00  0.00    +0.000 A 
ATOM     23  S   UNL     1      46.164   9.933  12.052  0.00  0.00    +0.000 S 
ATOM     24  C   UNL     1      47.627   9.065  12.181  0.00  0.00    +0.000 A 
ATOM     25  N   UNL     1      48.841   9.649  11.996  0.00  0.00    +0.000 NA
ATOM     26  C   UNL     1      49.844   8.860  12.209  0.00  0.00    +0.000 A 
ATOM     27  N   UNL     1      49.746   7.557  12.635  0.00  0.00    +0.000 N 
ATOM     28  C   UNL     1      48.541   6.919  12.830  0.00  0.00    +0.000 A 
ATOM     29  O   UNL     1      48.471   5.779  13.265  0.00  0.00    +0.000 OA
ATOM     30  C   UNL     1      47.399   7.739  12.478  0.00  0.00    +0.000 A 
ATOM     31  H   UNL     1      50.571   7.029  12.878  0.00  0.00    +0.000 HD
ENDBRANCH  18  21
ENDBRANCH   1  19
TORSDOF 7
ENDMDL
MODEL 6
REMARK VINA RESULT:    -7.035      3.659      5.928
REMARK INTER + INTRA:         -11.296
REMARK INTER:                 -10.496
REMARK INTRA:                  -0.801
REMARK UNBOUND:                -1.383
REMARK  Name = 
REMARK  7 active torsions:
REMARK  status: ('A' for Active; 'I' for Inactive)
REMARK    1  A    between atoms: C_2  and  C_20
REMARK    2  A    between atoms: N_3  and  C_4
REMARK    3  A    between atoms: C_4  and  C_5
REMARK    4  A    between atoms: C_8  and  C_9
REMARK    5  A    between atoms: C_9  and  C_10
REMARK    6  A    between atoms: C_10  and  O_11
REMARK    7  A    between atoms: O_11  and  C_12
REMARK                            x       y       z     vdW  Elec       q    Type
REMARK                         _______ _______ _______ _____ _____    ______ ____
ROOT
ATOM      1  C   UNL     1      44.590   2.755  10.153  0.00  0.00    +0.000 C 
ENDROOT
BRANCH   1   2
ATOM      2  C   UNL     1      45.372   2.663   8.866  0.00  0.00    +0.000 A 
ATOM      3  C   UNL     1      45.876   1.438   8.416  0.00  0.00    +0.000 A 
ATOM      4  C   UNL     1      46.578   1.357   7.209  0.00  0.00    +0.000 A 
ATOM      5  C   UNL     1      46.803   2.500   6.428  0.00  0.00    +0.000 A 
ATOM      6  C   UNL     1      46.348   3.733   6.914  0.00  0.00    +0.000 A 
ATOM      7  C   UNL     1      45.646   3.816   8.119  0.00  0.00    +0.000 A 
BRANCH   5   8
ATOM      8  C   UNL     1      47.503   2.469   5.083  0.00  0.00    +0.000 C 
BRANCH   8   9
ATOM      9  C   UNL     1      47.612   1.092   4.427  0.00  0.00    +0.000 C 
BRANCH   9  10
ATOM     10  O   UNL     1      46.512   0.883   3.539  0.00  0.00    +0.000 OA
BRANCH  10  11
ATOM     11  C   UNL     1      46.543  -0.399   3.025  0.00  0.00    +0.000 A 
ATOM     12  N   UNL     1      47.731  -1.016   3.093  0.00  0.00    +0.000 NA
ATOM     13  C   UNL     1      47.769  -2.263   2.581  0.00  0.00    +0.000 A 
ATOM     14  C   UNL     1      46.679  -2.898   2.036  0.00  0.00    +0.000 A 
ATOM     15  C   UNL     1      45.506  -2.179   2.035  0.00  0.00    +0.000 A 
ATOM     16  N   UNL     1      45.415  -0.928   2.522  0.00  0.00    +0.000 NA
ENDBRANCH  10  11
ENDBRANCH   9  10
ENDBRANCH   8   9
ENDBRANCH   5   8
ENDBRANCH   1   2
BRANCH   1  19
ATOM     17  O   UNL     1      43.819   3.371  12.833  0.00  0.00    +0.000 OA
ATOM     18  C   UNL     1      44.618   4.077  12.233  0.00  0.00    +0.000 C 
ATOM     19  N   UNL     1      45.133   3.793  10.984  0.00  0.00    +0.000 N 
ATOM     20  H   UNL     1      45.571   4.551  10.487  0.00  0.00    +0.000 HD
BRANCH  18  21
ATOM     21  C   UNL     1      44.970   5.426  12.654  0.00  0.00    +0.000 A 
ATOM     22  C   UNL     1      44.316   6.544  12.169  0.00  0.00    +0.000 A 
ATOM     23  S   UNL     1      45.267   7.959  12.356  0.00  0.00    +0.000 S 
ATOM     24  C   UNL     1      46.472   7.106  13.210  0.00  0.00    +0.000 A 
ATOM     25  N   UNL     1      47.659   7.669  13.557  0.00  0.00    +0.000 NA
ATOM     26  C   UNL     1      48.420   6.902  14.269  0.00  0.00    +0.000 A 
ATOM     27  N   UNL     1      48.083   5.642  14.704  0.00  0.00    +0.000 N 
ATOM     28  C   UNL     1      46.897   5.026  14.374  0.00  0.00    +0.000 A 
ATOM     29  O   UNL     1      46.588   3.929  14.819  0.00  0.00    +0.000 OA
ATOM     30  C   UNL     1      46.077   5.811  13.474  0.00  0.00    +0.000 A 
ATOM     31  H   UNL     1      48.684   5.138  15.340  0.00  0.00    +0.000 HD
ENDBRANCH  18  21
ENDBRANCH   1  19
TORSDOF 7
ENDMDL
MODEL 7
REMARK VINA RESULT:    -6.690      2.033      2.818
REMARK INTER + INTRA:         -10.810
REMARK INTER:                  -9.829
REMARK INTRA:                  -0.981
REMARK UNBOUND:                -1.383
REMARK  Name = 
REMARK  7 active torsions:
REMARK  status: ('A' for Active; 'I' for Inactive)
REMARK    1  A    between atoms: C_2  and  C_20
REMARK    2  A    between atoms: N_3  and  C_4
REMARK    3  A    between atoms: C_4  and  C_5
REMARK    4  A    between atoms: C_8  and  C_9
REMARK    5  A    between atoms: C_9  and  C_10
REMARK    6  A    between atoms: C_10  and  O_11
REMARK    7  A    between atoms: O_11  and  C_12
REMARK                            x       y       z     vdW  Elec       q    Type
REMARK                         _______ _______ _______ _____ _____    ______ ____
ROOT
ATOM      1  C   UNL     1      48.061   7.326  13.415  0.00  0.00    +0.000 C 
ENDROOT
BRANCH   1   2
ATOM      2  C   UNL     1      47.009   6.408  12.844  0.00  0.00    +0.000 A 
ATOM      3  C   UNL     1      46.661   5.219  13.494  0.00  0.00    +0.000 A 
ATOM      4  C   UNL     1      45.666   4.386  12.971  0.00  0.00    +0.000 A 
ATOM      5  C   UNL     1      45.002   4.716  11.781  0.00  0.00    +0.000 A 
ATOM      6  C   UNL     1      45.397   5.878  11.103  0.00  0.00    +0.000 A 
ATOM      7  C   UNL     1      46.391   6.711  11.624  0.00  0.00    +0.000 A 
BRANCH   5   8
ATOM      8  C   UNL     1      43.875   3.888  11.195  0.00  0.00    +0.000 C 
BRANCH   8   9
ATOM      9  C   UNL     1      44.302   2.786  10.224  0.00  0.00    +0.000 C 
BRANCH   9  10
ATOM     10  O   UNL     1      44.290   3.280   8.884  0.00  0.00    +0.000 OA
BRANCH  10  11
ATOM     11  C   UNL     1      45.419   2.861   8.205  0.00  0.00    +0.000 A 
ATOM     12  N   UNL     1      45.756   1.578   8.389  0.00  0.00    +0.000 NA
ATOM     13  C   UNL     1      46.865   1.168   7.739  0.00  0.00    +0.000 A 
ATOM     14  C   UNL     1      47.611   1.980   6.919  0.00  0.00    +0.000 A 
ATOM     15  C   UNL     1      47.163   3.273   6.787  0.00  0.00    +0.000 A 
ATOM     16  N   UNL     1      46.071   3.737   7.422  0.00  0.00    +0.000 NA
ENDBRANCH  10  11
ENDBRANCH   9  10
ENDBRANCH   8   9
ENDBRANCH   5   8
ENDBRANCH   1   2
BRANCH   1  19
ATOM     17  O   UNL     1      50.376   6.931  15.041  0.00  0.00    +0.000 OA
ATOM     18  C   UNL     1      49.255   6.911  15.531  0.00  0.00    +0.000 C 
ATOM     19  N   UNL     1      48.093   7.206  14.846  0.00  0.00    +0.000 N 
ATOM     20  H   UNL     1      47.227   6.913  15.268  0.00  0.00    +0.000 HD
BRANCH  18  21
ATOM     21  C   UNL     1      48.965   6.360  16.847  0.00  0.00    +0.000 A 
ATOM     22  C   UNL     1      48.602   5.038  17.030  0.00  0.00    +0.000 A 
ATOM     23  S   UNL     1      47.780   4.812  18.518  0.00  0.00    +0.000 S 
ATOM     24  C   UNL     1      48.041   6.434  18.975  0.00  0.00    +0.000 A 
ATOM     25  N   UNL     1      47.477   6.980  20.085  0.00  0.00    +0.000 NA
ATOM     26  C   UNL     1      47.846   8.198  20.321  0.00  0.00    +0.000 A 
ATOM     27  N   UNL     1      48.762   8.902  19.576  0.00  0.00    +0.000 N 
ATOM     28  C   UNL     1      49.355   8.396  18.440  0.00  0.00    +0.000 A 
ATOM     29  O   UNL     1      50.211   9.014  17.823  0.00  0.00    +0.000 OA
ATOM     30  C   UNL     1      48.867   7.080  18.080  0.00  0.00    +0.000 A 
ATOM     31  H   UNL     1      49.079   9.813  19.873  0.00  0.00    +0.000 HD
ENDBRANCH  18  21
ENDBRANCH   1  19
TORSDOF 7
ENDMDL
MODEL 8
REMARK VINA RESULT:    -6.681      2.059      3.441
REMARK INTER + INTRA:         -10.798
REMARK INTER:                  -9.837
REMARK INTRA:                  -0.961
REMARK UNBOUND:                -1.383
REMARK  Name = 
REMARK  7 active torsions:
REMARK  status: ('A' for Active; 'I' for Inactive)
REMARK    1  A    between atoms: C_2  and  C_20
REMARK    2  A    between atoms: N_3  and  C_4
REMARK    3  A    between atoms: C_4  and  C_5
REMARK    4  A    between atoms: C_8  and  C_9
REMARK    5  A    between atoms: C_9  and  C_10
REMARK    6  A    between atoms: C_10  and  O_11
REMARK    7  A    between atoms: O_11  and  C_12
REMARK                            x       y       z     vdW  Elec       q    Type
REMARK                         _______ _______ _______ _____ _____    ______ ____
ROOT
ATOM      1  C   UNL     1      47.276   4.271  15.605  0.00  0.00    +0.000 C 
ENDROOT
BRANCH   1   2
ATOM      2  C   UNL     1      46.791   4.609  14.217  0.00  0.00    +0.000 A 
ATOM      3  C   UNL     1      46.045   3.689  13.471  0.00  0.00    +0.000 A 
ATOM      4  C   UNL     1      45.577   4.020  12.195  0.00  0.00    +0.000 A 
ATOM      5  C   UNL     1      45.852   5.274  11.629  0.00  0.00    +0.000 A 
ATOM      6  C   UNL     1      46.649   6.168  12.357  0.00  0.00    +0.000 A 
ATOM      7  C   UNL     1      47.117   5.838  13.632  0.00  0.00    +0.000 A 
BRANCH   5   8
ATOM      8  C   UNL     1      45.323   5.716  10.279  0.00  0.00    +0.000 C 
BRANCH   8   9
ATOM      9  C   UNL     1      44.849   4.592   9.356  0.00  0.00    +0.000 C 
BRANCH   9  10
ATOM     10  O   UNL     1      45.547   4.651   8.111  0.00  0.00    +0.000 OA
BRANCH  10  11
ATOM     11  C   UNL     1      46.126   3.430   7.823  0.00  0.00    +0.000 A 
ATOM     12  N   UNL     1      45.560   2.371   8.418  0.00  0.00    +0.000 NA
ATOM     13  C   UNL     1      46.129   1.179   8.150  0.00  0.00    +0.000 A 
ATOM     14  C   UNL     1      47.207   1.019   7.313  0.00  0.00    +0.000 A 
ATOM     15  C   UNL     1      47.697   2.170   6.741  0.00  0.00    +0.000 A 
ATOM     16  N   UNL     1      47.174   3.387   6.983  0.00  0.00    +0.000 NA
ENDBRANCH  10  11
ENDBRANCH   9  10
ENDBRANCH   8   9
ENDBRANCH   5   8
ENDBRANCH   1   2
BRANCH   1  19
ATOM     17  O   UNL     1      49.883   4.463  16.757  0.00  0.00    +0.000 OA
ATOM     18  C   UNL     1      49.090   5.393  16.840  0.00  0.00    +0.000 C 
ATOM     19  N   UNL     1      47.859   5.433  16.217  0.00  0.00    +0.000 N 
ATOM     20  H   UNL     1      47.198   6.113  16.554  0.00  0.00    +0.000 HD
BRANCH  18  21
ATOM     21  C   UNL     1      49.239   6.492  17.783  0.00  0.00    +0.000 A 
ATOM     22  C   UNL     1      49.622   6.290  19.097  0.00  0.00    +0.000 A 
ATOM     23  S   UNL     1      49.165   7.607  20.095  0.00  0.00    +0.000 S 
ATOM     24  C   UNL     1      48.596   8.498  18.757  0.00  0.00    +0.000 A 
ATOM     25  N   UNL     1      47.931   9.676  18.893  0.00  0.00    +0.000 NA
ATOM     26  C   UNL     1      47.644  10.253  17.770  0.00  0.00    +0.000 A 
ATOM     27  N   UNL     1      48.001   9.784  16.529  0.00  0.00    +0.000 N 
ATOM     28  C   UNL     1      48.668   8.594  16.339  0.00  0.00    +0.000 A 
ATOM     29  O   UNL     1      49.030   8.221  15.232  0.00  0.00    +0.000 OA
ATOM     30  C   UNL     1      48.894   7.864  17.569  0.00  0.00    +0.000 A 
ATOM     31  H   UNL     1      47.832  10.335  15.700  0.00  0.00    +0.000 HD
ENDBRANCH  18  21
ENDBRANCH   1  19
TORSDOF 7
ENDMDL
MODEL 9
REMARK VINA RESULT:    -6.235      4.220      8.918
REMARK INTER + INTRA:         -10.169
REMARK INTER:                  -9.211
REMARK INTRA:                  -0.957
REMARK UNBOUND:                -1.383
REMARK  Name = 
REMARK  7 active torsions:
REMARK  status: ('A' for Active; 'I' for Inactive)
REMARK    1  A    between atoms: C_2  and  C_20
REMARK    2  A    between atoms: N_3  and  C_4
REMARK    3  A    between atoms: C_4  and  C_5
REMARK    4  A    between atoms: C_8  and  C_9
REMARK    5  A    between atoms: C_9  and  C_10
REMARK    6  A    between atoms: C_10  and  O_11
REMARK    7  A    between atoms: O_11  and  C_12
REMARK                            x       y       z     vdW  Elec       q    Type
REMARK                         _______ _______ _______ _____ _____    ______ ____
ROOT
ATOM      1  C   UNL     1      47.075   3.627  16.874  0.00  0.00    +0.000 C 
ENDROOT
BRANCH   1   2
ATOM      2  C   UNL     1      48.552   3.672  17.180  0.00  0.00    +0.000 A 
ATOM      3  C   UNL     1      49.330   2.510  17.147  0.00  0.00    +0.000 A 
ATOM      4  C   UNL     1      50.704   2.565  17.407  0.00  0.00    +0.000 A 
ATOM      5  C   UNL     1      51.330   3.780  17.718  0.00  0.00    +0.000 A 
ATOM      6  C   UNL     1      50.535   4.931  17.808  0.00  0.00    +0.000 A 
ATOM      7  C   UNL     1      49.163   4.877  17.548  0.00  0.00    +0.000 A 
BRANCH   5   8
ATOM      8  C   UNL     1      52.823   3.916  17.950  0.00  0.00    +0.000 C 
BRANCH   8   9
ATOM      9  C   UNL     1      53.360   3.228  19.205  0.00  0.00    +0.000 C 
BRANCH   9  10
ATOM     10  O   UNL     1      54.695   2.769  18.981  0.00  0.00    +0.000 OA
BRANCH  10  11
ATOM     11  C   UNL     1      54.686   1.601  18.242  0.00  0.00    +0.000 A 
ATOM     12  N   UNL     1      54.117   0.547  18.842  0.00  0.00    +0.000 NA
ATOM     13  C   UNL     1      54.118  -0.599  18.131  0.00  0.00    +0.000 A 
ATOM     14  C   UNL     1      54.641  -0.709  16.865  0.00  0.00    +0.000 A 
ATOM     15  C   UNL     1      55.183   0.440  16.338  0.00  0.00    +0.000 A 
ATOM     16  N   UNL     1      55.219   1.606  17.009  0.00  0.00    +0.000 NA
ENDBRANCH  10  11
ENDBRANCH   9  10
ENDBRANCH   8   9
ENDBRANCH   5   8
ENDBRANCH   1   2
BRANCH   1  19
ATOM     17  O   UNL     1      47.353   3.129  14.075  0.00  0.00    +0.000 OA
ATOM     18  C   UNL     1      47.036   4.237  14.486  0.00  0.00    +0.000 C 
ATOM     19  N   UNL     1      46.768   4.538  15.806  0.00  0.00    +0.000 N 
ATOM     20  H   UNL     1      46.771   5.511  16.064  0.00  0.00    +0.000 HD
BRANCH  18  21
ATOM     21  C   UNL     1      47.113   5.445  13.676  0.00  0.00    +0.000 A 
ATOM     22  C   UNL     1      48.064   6.424  13.900  0.00  0.00    +0.000 A 
ATOM     23  S   UNL     1      47.585   7.930  13.233  0.00  0.00    +0.000 S 
ATOM     24  C   UNL     1      46.195   7.239  12.526  0.00  0.00    +0.000 A 
ATOM     25  N   UNL     1      45.238   7.987  11.916  0.00  0.00    +0.000 NA
ATOM     26  C   UNL     1      44.294   7.292  11.367  0.00  0.00    +0.000 A 
ATOM     27  N   UNL     1      44.245   5.919  11.333  0.00  0.00    +0.000 N 
ATOM     28  C   UNL     1      45.185   5.118  11.941  0.00  0.00    +0.000 A 
ATOM     29  O   UNL     1      45.158   3.899  11.850  0.00  0.00    +0.000 OA
ATOM     30  C   UNL     1      46.187   5.868  12.671  0.00  0.00    +0.000 A 
ATOM     31  H   UNL     1      43.532   5.441  10.802  0.00  0.00    +0.000 HD
ENDBRANCH  18  21
ENDBRANCH   1  19
TORSDOF 7
ENDMDL
