MODEL 1
REMARK VINA RESULT:    -7.937      0.000      0.000
REMARK INTER + INTRA:         -13.022
REMARK INTER:                 -11.650
REMARK INTRA:                  -1.372
REMARK UNBOUND:                -1.372
REMARK  Name = 
REMARK  9 active torsions:
REMARK  status: ('A' for Active; 'I' for Inactive)
REMARK    1  A    between atoms: C_1  and  C_2
REMARK    2  A    between atoms: C_2  and  C_3
REMARK    3  A    between atoms: C_2  and  C_14
REMARK    4  A    between atoms: C_3  and  O_4
REMARK    5  A    between atoms: O_4  and  C_5
REMARK    6  A    between atoms: C_8  and  C_9
REMARK    7  A    between atoms: C_18  and  C_19
REMARK    8  A    between atoms: C_24  and  O_25
REMARK    9  A    between atoms: O_25  and  C_26
REMARK                            x       y       z     vdW  Elec       q    Type
REMARK                         _______ _______ _______ _____ _____    ______ ____
ROOT
ATOM      1  C   UNL     1      45.408   5.268  12.570  0.00  0.00    +0.000 A 
ATOM      2  C   UNL     1      45.815   4.591  13.725  0.00  0.00    +0.000 A 
ATOM      3  C   UNL     1      47.021   4.902  14.351  0.00  0.00    +0.000 A 
ATOM      4  C   UNL     1      47.820   5.933  13.858  0.00  0.00    +0.000 A 
ATOM      5  C   UNL     1      47.469   6.655  12.707  0.00  0.00    +0.000 A 
ATOM      6  C   UNL     1      46.273   6.262  12.059  0.00  0.00    +0.000 A 
ENDROOT
BRANCH   5   7
ATOM      7  C   UNL     1      48.246   7.854  12.252  0.00  0.00    +0.000 A 
ATOM      8  C   UNL     1      49.563   7.663  11.772  0.00  0.00    +0.000 A 
ATOM      9  C   UNL     1      50.326   8.704  11.244  0.00  0.00    +0.000 A 
ATOM     10  C   UNL     1      49.768   9.965  11.118  0.00  0.00    +0.000 A 
ATOM     11  C   UNL     1      48.470  10.196  11.574  0.00  0.00    +0.000 A 
ATOM     12  C   UNL     1      47.733   9.178  12.203  0.00  0.00    +0.000 A 
BRANCH  12  13
ATOM     13  O   UNL     1      46.512   9.398  12.779  0.00  0.00    +0.000 OA
BRANCH  13  14
ATOM     14  C   UNL     1      45.404   9.774  11.976  0.00  0.00    +0.000 C 
ATOM     15  F   UNL     1      45.152   8.921  10.960  0.00  0.00    +0.000 F 
ATOM     16  F   UNL     1      44.298   9.883  12.745  0.00  0.00    +0.000 F 
ATOM     17  F   UNL     1      45.658  10.987  11.434  0.00  0.00    +0.000 F 
ENDBRANCH  13  14
ENDBRANCH  12  13
ENDBRANCH   5   7
BRANCH   1  19
ATOM     18  C   UNL     1      42.886   5.112  12.793  0.00  0.00    +0.000 C 
ATOM     19  C   UNL     1      44.091   4.969  11.847  0.00  0.00    +0.000 C 
BRANCH  19  20
ATOM     20  C   UNL     1      44.003   3.574  11.188  0.00  0.00    +0.000 C 
BRANCH  20  21
ATOM     21  O   UNL     1      43.663   3.719   9.805  0.00  0.00    +0.000 OA
BRANCH  21  22
ATOM     22  C   UNL     1      44.666   3.299   8.958  0.00  0.00    +0.000 A 
ATOM     23  C   UNL     1      45.141   2.001   9.107  0.00  0.00    +0.000 A 
ATOM     24  N   UNL     1      46.138   1.487   8.338  0.00  0.00    +0.000 NA
ATOM     25  C   UNL     1      46.628   2.348   7.401  0.00  0.00    +0.000 A 
ATOM     26  C   UNL     1      46.145   3.638   7.245  0.00  0.00    +0.000 A 
ATOM     27  N   UNL     1      45.152   4.144   8.020  0.00  0.00    +0.000 NA
BRANCH  25  28
ATOM     28  C   UNL     1      47.752   1.874   6.542  0.00  0.00    +0.000 C 
ATOM     29  N   UNL     1      48.824   2.709   6.448  0.00  0.00    +0.000 N 
ATOM     30  O   UNL     1      47.702   0.806   5.949  0.00  0.00    +0.000 OA
ATOM     31  H   UNL     1      48.821   3.600   6.934  0.00  0.00    +0.000 HD
ATOM     32  H   UNL     1      49.599   2.457   5.851  0.00  0.00    +0.000 HD
ENDBRANCH  25  28
ENDBRANCH  21  22
ENDBRANCH  20  21
ENDBRANCH  19  20
ENDBRANCH   1  19
TORSDOF 8
ENDMDL
MODEL 2
REMARK VINA RESULT:    -7.789      4.215      7.481
REMARK INTER + INTRA:         -12.803
REMARK INTER:                 -10.980
REMARK INTRA:                  -1.824
REMARK UNBOUND:                -1.372
REMARK  Name = 
REMARK  9 active torsions:
REMARK  status: ('A' for Active; 'I' for Inactive)
REMARK    1  A    between atoms: C_1  and  C_2
REMARK    2  A    between atoms: C_2  and  C_3
REMARK    3  A    between atoms: C_2  and  C_14
REMARK    4  A    between atoms: C_3  and  O_4
REMARK    5  A    between atoms: O_4  and  C_5
REMARK    6  A    between atoms: C_8  and  C_9
REMARK    7  A    between atoms: C_18  and  C_19
REMARK    8  A    between atoms: C_24  and  O_25
REMARK    9  A    between atoms: O_25  and  C_26
REMARK                            x       y       z     vdW  Elec       q    Type
REMARK                         _______ _______ _______ _____ _____    ______ ____
ROOT
ATOM      1  C   UNL     1      47.777   8.051  12.211  0.00  0.00    +0.000 A 
ATOM      2  C   UNL     1      46.797   8.909  12.721  0.00  0.00    +0.000 A 
ATOM      3  C   UNL     1      45.447   8.690  12.460  0.00  0.00    +0.000 A 
ATOM      4  C   UNL     1      45.047   7.577  11.722  0.00  0.00    +0.000 A 
ATOM      5  C   UNL     1      45.978   6.674  11.184  0.00  0.00    +0.000 A 
ATOM      6  C   UNL     1      47.344   6.971  11.410  0.00  0.00    +0.000 A 
ENDROOT
BRANCH   5   7
ATOM      7  C   UNL     1      45.555   5.402  10.512  0.00  0.00    +0.000 A 
ATOM      8  C   UNL     1      45.780   5.265   9.123  0.00  0.00    +0.000 A 
ATOM      9  C   UNL     1      45.504   4.085   8.432  0.00  0.00    +0.000 A 
ATOM     10  C   UNL     1      45.052   2.976   9.126  0.00  0.00    +0.000 A 
ATOM     11  C   UNL     1      44.822   3.066  10.498  0.00  0.00    +0.000 A 
ATOM     12  C   UNL     1      44.996   4.281  11.183  0.00  0.00    +0.000 A 
BRANCH  12  13
ATOM     13  O   UNL     1      44.656   4.444  12.498  0.00  0.00    +0.000 OA
BRANCH  13  14
ATOM     14  C   UNL     1      43.291   4.551  12.872  0.00  0.00    +0.000 C 
ATOM     15  F   UNL     1      42.438   4.572  11.825  0.00  0.00    +0.000 F 
ATOM     16  F   UNL     1      42.959   3.527  13.690  0.00  0.00    +0.000 F 
ATOM     17  F   UNL     1      43.122   5.705  13.556  0.00  0.00    +0.000 F 
ENDBRANCH  13  14
ENDBRANCH  12  13
ENDBRANCH   5   7
BRANCH   1  19
ATOM     18  C   UNL     1      50.118   7.756  11.281  0.00  0.00    +0.000 C 
ATOM     19  C   UNL     1      49.275   8.244  12.471  0.00  0.00    +0.000 C 
BRANCH  19  20
ATOM     20  C   UNL     1      49.818   7.554  13.743  0.00  0.00    +0.000 C 
BRANCH  20  21
ATOM     21  O   UNL     1      48.979   7.876  14.858  0.00  0.00    +0.000 OA
BRANCH  21  22
ATOM     22  C   UNL     1      48.668   6.778  15.631  0.00  0.00    +0.000 A 
ATOM     23  C   UNL     1      48.044   5.703  15.011  0.00  0.00    +0.000 A 
ATOM     24  N   UNL     1      47.678   4.576  15.680  0.00  0.00    +0.000 NA
ATOM     25  C   UNL     1      47.982   4.586  17.009  0.00  0.00    +0.000 A 
ATOM     26  C   UNL     1      48.616   5.655  17.624  0.00  0.00    +0.000 A 
ATOM     27  N   UNL     1      48.974   6.776  16.949  0.00  0.00    +0.000 NA
BRANCH  25  28
ATOM     28  C   UNL     1      47.578   3.403  17.823  0.00  0.00    +0.000 C 
ATOM     29  N   UNL     1      48.381   3.106  18.883  0.00  0.00    +0.000 N 
ATOM     30  O   UNL     1      46.593   2.736  17.543  0.00  0.00    +0.000 OA
ATOM     31  H   UNL     1      49.205   3.667  19.072  0.00  0.00    +0.000 HD
ATOM     32  H   UNL     1      48.176   2.294  19.449  0.00  0.00    +0.000 HD
ENDBRANCH  25  28
ENDBRANCH  21  22
ENDBRANCH  20  21
ENDBRANCH  19  20
ENDBRANCH   1  19
TORSDOF 8
ENDMDL
MODEL 3
REMARK VINA RESULT:    -7.775      2.900      4.447
REMARK INTER + INTRA:         -12.784
REMARK INTER:                 -11.576
REMARK INTRA:                  -1.208
REMARK UNBOUND:                -1.372
REMARK  Name = 
REMARK  9 active torsions:
REMARK  status: ('A' for Active; 'I' for Inactive)
REMARK    1  A    between atoms: C_1  and  C_2
REMARK    2  A    between atoms: C_2  and  C_3
REMARK    3  A    between atoms: C_2  and  C_14
REMARK    4  A    between atoms: C_3  and  O_4
REMARK    5  A    between atoms: O_4  and  C_5
REMARK    6  A    between atoms: C_8  and  C_9
REMARK    7  A    between atoms: C_18  and  C_19
REMARK    8  A    between atoms: C_24  and  O_25
REMARK    9  A    between atoms: O_25  and  C_26
REMARK                            x       y       z     vdW  Elec       q    Type
REMARK                         _______ _______ _______ _____ _____    ______ ____
ROOT
ATOM      1  C   UNL     1      45.291   5.410  12.626  0.00  0.00    +0.000 A 
ATOM      2  C   UNL     1      46.087   6.187  11.777  0.00  0.00    +0.000 A 
ATOM      3  C   UNL     1      47.365   6.588  12.161  0.00  0.00    +0.000 A 
ATOM      4  C   UNL     1      47.890   6.177  13.385  0.00  0.00    +0.000 A 
ATOM      5  C   UNL     1      47.147   5.394  14.283  0.00  0.00    +0.000 A 
ATOM      6  C   UNL     1      45.828   5.067  13.888  0.00  0.00    +0.000 A 
ENDROOT
BRANCH   5   7
ATOM      7  C   UNL     1      47.751   4.830  15.534  0.00  0.00    +0.000 A 
ATOM      8  C   UNL     1      47.493   3.478  15.858  0.00  0.00    +0.000 A 
ATOM      9  C   UNL     1      48.084   2.844  16.951  0.00  0.00    +0.000 A 
ATOM     10  C   UNL     1      49.010   3.528  17.720  0.00  0.00    +0.000 A 
ATOM     11  C   UNL     1      49.298   4.861  17.432  0.00  0.00    +0.000 A 
ATOM     12  C   UNL     1      48.628   5.539  16.398  0.00  0.00    +0.000 A 
BRANCH  12  13
ATOM     13  O   UNL     1      48.786   6.878  16.169  0.00  0.00    +0.000 OA
BRANCH  13  14
ATOM     14  C   UNL     1      48.596   7.808  17.225  0.00  0.00    +0.000 C 
ATOM     15  F   UNL     1      47.741   7.382  18.180  0.00  0.00    +0.000 F 
ATOM     16  F   UNL     1      49.785   8.102  17.796  0.00  0.00    +0.000 F 
ATOM     17  F   UNL     1      48.087   8.949  16.706  0.00  0.00    +0.000 F 
ENDBRANCH  13  14
ENDBRANCH  12  13
ENDBRANCH   5   7
BRANCH   1  19
ATOM     18  C   UNL     1      43.584   3.545  12.831  0.00  0.00    +0.000 C 
ATOM     19  C   UNL     1      43.882   4.939  12.252  0.00  0.00    +0.000 C 
BRANCH  19  20
ATOM     20  C   UNL     1      43.585   4.887  10.736  0.00  0.00    +0.000 C 
BRANCH  20  21
ATOM     21  O   UNL     1      43.555   3.524  10.300  0.00  0.00    +0.000 OA
BRANCH  21  22
ATOM     22  C   UNL     1      44.551   3.226   9.396  0.00  0.00    +0.000 A 
ATOM     23  C   UNL     1      45.114   4.277   8.681  0.00  0.00    +0.000 A 
ATOM     24  N   UNL     1      46.092   4.097   7.752  0.00  0.00    +0.000 NA
ATOM     25  C   UNL     1      46.481   2.801   7.587  0.00  0.00    +0.000 A 
ATOM     26  C   UNL     1      45.927   1.755   8.309  0.00  0.00    +0.000 A 
ATOM     27  N   UNL     1      44.949   1.943   9.231  0.00  0.00    +0.000 NA
BRANCH  25  28
ATOM     28  C   UNL     1      47.522   2.513   6.558  0.00  0.00    +0.000 C 
ATOM     29  N   UNL     1      47.342   3.107   5.345  0.00  0.00    +0.000 N 
ATOM     30  O   UNL     1      48.469   1.776   6.791  0.00  0.00    +0.000 OA
ATOM     31  H   UNL     1      46.531   3.693   5.180  0.00  0.00    +0.000 HD
ATOM     32  H   UNL     1      47.997   2.920   4.598  0.00  0.00    +0.000 HD
ENDBRANCH  25  28
ENDBRANCH  21  22
ENDBRANCH  20  21
ENDBRANCH  19  20
ENDBRANCH   1  19
TORSDOF 8
ENDMDL
MODEL 4
REMARK VINA RESULT:    -7.450      4.269      7.728
REMARK INTER + INTRA:         -12.306
REMARK INTER:                 -11.109
REMARK INTRA:                  -1.197
REMARK UNBOUND:                -1.372
REMARK  Name = 
REMARK  9 active torsions:
REMARK  status: ('A' for Active; 'I' for Inactive)
REMARK    1  A    between atoms: C_1  and  C_2
REMARK    2  A    between atoms: C_2  and  C_3
REMARK    3  A    between atoms: C_2  and  C_14
REMARK    4  A    between atoms: C_3  and  O_4
REMARK    5  A    between atoms: O_4  and  C_5
REMARK    6  A    between atoms: C_8  and  C_9
REMARK    7  A    between atoms: C_18  and  C_19
REMARK    8  A    between atoms: C_24  and  O_25
REMARK    9  A    between atoms: O_25  and  C_26
REMARK                            x       y       z     vdW  Elec       q    Type
REMARK                         _______ _______ _______ _____ _____    ______ ____
ROOT
ATOM      1  C   UNL     1      47.590   8.110  12.070  0.00  0.00    +0.000 A 
ATOM      2  C   UNL     1      46.789   9.257  12.045  0.00  0.00    +0.000 A 
ATOM      3  C   UNL     1      45.418   9.169  11.816  0.00  0.00    +0.000 A 
ATOM      4  C   UNL     1      44.813   7.923  11.655  0.00  0.00    +0.000 A 
ATOM      5  C   UNL     1      45.556   6.732  11.674  0.00  0.00    +0.000 A 
ATOM      6  C   UNL     1      46.956   6.868  11.838  0.00  0.00    +0.000 A 
ENDROOT
BRANCH   5   7
ATOM      7  C   UNL     1      44.901   5.384  11.645  0.00  0.00    +0.000 A 
ATOM      8  C   UNL     1      44.305   4.897  12.831  0.00  0.00    +0.000 A 
ATOM      9  C   UNL     1      43.594   3.698  12.875  0.00  0.00    +0.000 A 
ATOM     10  C   UNL     1      43.401   2.975  11.710  0.00  0.00    +0.000 A 
ATOM     11  C   UNL     1      43.966   3.422  10.516  0.00  0.00    +0.000 A 
ATOM     12  C   UNL     1      44.772   4.574  10.485  0.00  0.00    +0.000 A 
BRANCH  12  13
ATOM     13  O   UNL     1      45.450   4.970   9.365  0.00  0.00    +0.000 OA
BRANCH  13  14
ATOM     14  C   UNL     1      45.739   4.033   8.339  0.00  0.00    +0.000 C 
ATOM     15  F   UNL     1      46.756   4.405   7.531  0.00  0.00    +0.000 F 
ATOM     16  F   UNL     1      46.026   2.831   8.885  0.00  0.00    +0.000 F 
ATOM     17  F   UNL     1      44.639   3.890   7.565  0.00  0.00    +0.000 F 
ENDBRANCH  13  14
ENDBRANCH  12  13
ENDBRANCH   5   7
BRANCH   1  19
ATOM     18  C   UNL     1      49.889   7.724  11.073  0.00  0.00    +0.000 C 
ATOM     19  C   UNL     1      49.100   8.151  12.323  0.00  0.00    +0.000 C 
BRANCH  19  20
ATOM     20  C   UNL     1      49.596   7.288  13.504  0.00  0.00    +0.000 C 
BRANCH  20  21
ATOM     21  O   UNL     1      48.906   7.670  14.699  0.00  0.00    +0.000 OA
BRANCH  21  22
ATOM     22  C   UNL     1      48.610   6.599  15.515  0.00  0.00    +0.000 A 
ATOM     23  C   UNL     1      47.921   5.529  14.958  0.00  0.00    +0.000 A 
ATOM     24  N   UNL     1      47.563   4.429  15.673  0.00  0.00    +0.000 NA
ATOM     25  C   UNL     1      47.946   4.458  16.982  0.00  0.00    +0.000 A 
ATOM     26  C   UNL     1      48.644   5.521  17.533  0.00  0.00    +0.000 A 
ATOM     27  N   UNL     1      48.994   6.617  16.813  0.00  0.00    +0.000 NA
BRANCH  25  28
ATOM     28  C   UNL     1      47.557   3.306  17.846  0.00  0.00    +0.000 C 
ATOM     29  N   UNL     1      48.306   3.124  18.969  0.00  0.00    +0.000 N 
ATOM     30  O   UNL     1      46.631   2.565  17.551  0.00  0.00    +0.000 OA
ATOM     31  H   UNL     1      49.083   3.744  19.170  0.00  0.00    +0.000 HD
ATOM     32  H   UNL     1      48.111   2.338  19.574  0.00  0.00    +0.000 HD
ENDBRANCH  25  28
ENDBRANCH  21  22
ENDBRANCH  20  21
ENDBRANCH  19  20
ENDBRANCH   1  19
TORSDOF 8
ENDMDL
MODEL 5
REMARK VINA RESULT:    -7.393      2.512      2.844
REMARK INTER + INTRA:         -12.222
REMARK INTER:                 -10.358
REMARK INTRA:                  -1.865
REMARK UNBOUND:                -1.372
REMARK  Name = 
REMARK  9 active torsions:
REMARK  status: ('A' for Active; 'I' for Inactive)
REMARK    1  A    between atoms: C_1  and  C_2
REMARK    2  A    between atoms: C_2  and  C_3
REMARK    3  A    between atoms: C_2  and  C_14
REMARK    4  A    between atoms: C_3  and  O_4
REMARK    5  A    between atoms: O_4  and  C_5
REMARK    6  A    between atoms: C_8  and  C_9
REMARK    7  A    between atoms: C_18  and  C_19
REMARK    8  A    between atoms: C_24  and  O_25
REMARK    9  A    between atoms: O_25  and  C_26
REMARK                            x       y       z     vdW  Elec       q    Type
REMARK                         _______ _______ _______ _____ _____    ______ ____
ROOT
ATOM      1  C   UNL     1      45.261   5.605  12.735  0.00  0.00    +0.000 A 
ATOM      2  C   UNL     1      45.576   4.516  13.555  0.00  0.00    +0.000 A 
ATOM      3  C   UNL     1      46.863   4.350  14.063  0.00  0.00    +0.000 A 
ATOM      4  C   UNL     1      47.849   5.299  13.797  0.00  0.00    +0.000 A 
ATOM      5  C   UNL     1      47.600   6.417  12.985  0.00  0.00    +0.000 A 
ATOM      6  C   UNL     1      46.301   6.513  12.430  0.00  0.00    +0.000 A 
ENDROOT
BRANCH   5   7
ATOM      7  C   UNL     1      48.607   7.513  12.810  0.00  0.00    +0.000 A 
ATOM      8  C   UNL     1      49.291   7.611  11.575  0.00  0.00    +0.000 A 
ATOM      9  C   UNL     1      50.176   8.650  11.290  0.00  0.00    +0.000 A 
ATOM     10  C   UNL     1      50.357   9.667  12.212  0.00  0.00    +0.000 A 
ATOM     11  C   UNL     1      49.698   9.613  13.439  0.00  0.00    +0.000 A 
ATOM     12  C   UNL     1      48.887   8.516  13.777  0.00  0.00    +0.000 A 
BRANCH  12  13
ATOM     13  O   UNL     1      48.331   8.362  15.017  0.00  0.00    +0.000 OA
BRANCH  13  14
ATOM     14  C   UNL     1      49.097   7.811  16.078  0.00  0.00    +0.000 C 
ATOM     15  F   UNL     1      50.218   7.177  15.669  0.00  0.00    +0.000 F 
ATOM     16  F   UNL     1      49.435   8.785  16.952  0.00  0.00    +0.000 F 
ATOM     17  F   UNL     1      48.335   6.905  16.732  0.00  0.00    +0.000 F 
ENDBRANCH  13  14
ENDBRANCH  12  13
ENDBRANCH   5   7
BRANCH   1  19
ATOM     18  C   UNL     1      42.794   5.056  12.939  0.00  0.00    +0.000 C 
ATOM     19  C   UNL     1      43.862   5.837  12.155  0.00  0.00    +0.000 C 
BRANCH  19  20
ATOM     20  C   UNL     1      43.700   5.480  10.661  0.00  0.00    +0.000 C 
BRANCH  20  21
ATOM     21  O   UNL     1      43.715   4.057  10.504  0.00  0.00    +0.000 OA
BRANCH  21  22
ATOM     22  C   UNL     1      44.636   3.628   9.573  0.00  0.00    +0.000 A 
ATOM     23  C   UNL     1      45.310   4.593   8.834  0.00  0.00    +0.000 A 
ATOM     24  N   UNL     1      46.227   4.283   7.879  0.00  0.00    +0.000 NA
ATOM     25  C   UNL     1      46.438   2.947   7.711  0.00  0.00    +0.000 A 
ATOM     26  C   UNL     1      45.773   1.985   8.457  0.00  0.00    +0.000 A 
ATOM     27  N   UNL     1      44.856   2.303   9.406  0.00  0.00    +0.000 NA
BRANCH  25  28
ATOM     28  C   UNL     1      47.400   2.521   6.654  0.00  0.00    +0.000 C 
ATOM     29  N   UNL     1      47.207   3.062   5.419  0.00  0.00    +0.000 N 
ATOM     30  O   UNL     1      48.299   1.725   6.886  0.00  0.00    +0.000 OA
ATOM     31  H   UNL     1      46.436   3.701   5.256  0.00  0.00    +0.000 HD
ATOM     32  H   UNL     1      47.807   2.782   4.655  0.00  0.00    +0.000 HD
ENDBRANCH  25  28
ENDBRANCH  21  22
ENDBRANCH  20  21
ENDBRANCH  19  20
ENDBRANCH   1  19
TORSDOF 8
ENDMDL
MODEL 6
REMARK VINA RESULT:    -7.253      4.245      6.358
REMARK INTER + INTRA:         -12.017
REMARK INTER:                 -10.084
REMARK INTRA:                  -1.933
REMARK UNBOUND:                -1.372
REMARK  Name = 
REMARK  9 active torsions:
REMARK  status: ('A' for Active; 'I' for Inactive)
REMARK    1  A    between atoms: C_1  and  C_2
REMARK    2  A    between atoms: C_2  and  C_3
REMARK    3  A    between atoms: C_2  and  C_14
REMARK    4  A    between atoms: C_3  and  O_4
REMARK    5  A    between atoms: O_4  and  C_5
REMARK    6  A    between atoms: C_8  and  C_9
REMARK    7  A    between atoms: C_18  and  C_19
REMARK    8  A    between atoms: C_24  and  O_25
REMARK    9  A    between atoms: O_25  and  C_26
REMARK                            x       y       z     vdW  Elec       q    Type
REMARK                         _______ _______ _______ _____ _____    ______ ____
ROOT
ATOM      1  C   UNL     1      48.298   7.761  14.141  0.00  0.00    +0.000 A 
ATOM      2  C   UNL     1      48.096   8.971  14.814  0.00  0.00    +0.000 A 
ATOM      3  C   UNL     1      48.450   9.113  16.154  0.00  0.00    +0.000 A 
ATOM      4  C   UNL     1      49.058   8.059  16.834  0.00  0.00    +0.000 A 
ATOM      5  C   UNL     1      49.293   6.820  16.218  0.00  0.00    +0.000 A 
ATOM      6  C   UNL     1      48.855   6.692  14.878  0.00  0.00    +0.000 A 
ENDROOT
BRANCH   5   7
ATOM      7  C   UNL     1      50.072   5.731  16.894  0.00  0.00    +0.000 A 
ATOM      8  C   UNL     1      51.484   5.791  16.861  0.00  0.00    +0.000 A 
ATOM      9  C   UNL     1      52.289   4.875  17.538  0.00  0.00    +0.000 A 
ATOM     10  C   UNL     1      51.701   3.902  18.328  0.00  0.00    +0.000 A 
ATOM     11  C   UNL     1      50.311   3.810  18.393  0.00  0.00    +0.000 A 
ATOM     12  C   UNL     1      49.494   4.663  17.630  0.00  0.00    +0.000 A 
BRANCH  12  13
ATOM     13  O   UNL     1      48.135   4.520  17.565  0.00  0.00    +0.000 OA
BRANCH  13  14
ATOM     14  C   UNL     1      47.566   3.457  16.816  0.00  0.00    +0.000 C 
ATOM     15  F   UNL     1      48.457   2.795  16.046  0.00  0.00    +0.000 F 
ATOM     16  F   UNL     1      46.965   2.579  17.650  0.00  0.00    +0.000 F 
ATOM     17  F   UNL     1      46.621   3.968  15.994  0.00  0.00    +0.000 F 
ENDBRANCH  13  14
ENDBRANCH  12  13
ENDBRANCH   5   7
BRANCH   1  19
ATOM     18  C   UNL     1      49.025   8.105  11.736  0.00  0.00    +0.000 C 
ATOM     19  C   UNL     1      47.932   7.553  12.668  0.00  0.00    +0.000 C 
BRANCH  19  20
ATOM     20  C   UNL     1      46.587   8.172  12.229  0.00  0.00    +0.000 C 
BRANCH  20  21
ATOM     21  O   UNL     1      45.525   7.615  13.010  0.00  0.00    +0.000 OA
BRANCH  21  22
ATOM     22  C   UNL     1      45.066   6.413  12.516  0.00  0.00    +0.000 A 
ATOM     23  C   UNL     1      45.196   5.288  13.321  0.00  0.00    +0.000 A 
ATOM     24  N   UNL     1      44.794   4.050  12.929  0.00  0.00    +0.000 NA
ATOM     25  C   UNL     1      44.242   4.004  11.683  0.00  0.00    +0.000 A 
ATOM     26  C   UNL     1      44.102   5.130  10.885  0.00  0.00    +0.000 A 
ATOM     27  N   UNL     1      44.511   6.362  11.283  0.00  0.00    +0.000 NA
BRANCH  25  28
ATOM     28  C   UNL     1      43.810   2.675  11.161  0.00  0.00    +0.000 C 
ATOM     29  N   UNL     1      44.448   2.239  10.040  0.00  0.00    +0.000 N 
ATOM     30  O   UNL     1      42.927   2.028  11.704  0.00  0.00    +0.000 OA
ATOM     31  H   UNL     1      45.160   2.813   9.601  0.00  0.00    +0.000 HD
ATOM     32  H   UNL     1      44.172   1.361   9.621  0.00  0.00    +0.000 HD
ENDBRANCH  25  28
ENDBRANCH  21  22
ENDBRANCH  20  21
ENDBRANCH  19  20
ENDBRANCH   1  19
TORSDOF 8
ENDMDL
MODEL 7
REMARK VINA RESULT:    -7.129      5.171      7.964
REMARK INTER + INTRA:         -11.835
REMARK INTER:                 -10.049
REMARK INTRA:                  -1.786
REMARK UNBOUND:                -1.372
REMARK  Name = 
REMARK  9 active torsions:
REMARK  status: ('A' for Active; 'I' for Inactive)
REMARK    1  A    between atoms: C_1  and  C_2
REMARK    2  A    between atoms: C_2  and  C_3
REMARK    3  A    between atoms: C_2  and  C_14
REMARK    4  A    between atoms: C_3  and  O_4
REMARK    5  A    between atoms: O_4  and  C_5
REMARK    6  A    between atoms: C_8  and  C_9
REMARK    7  A    between atoms: C_18  and  C_19
REMARK    8  A    between atoms: C_24  and  O_25
REMARK    9  A    between atoms: O_25  and  C_26
REMARK                            x       y       z     vdW  Elec       q    Type
REMARK                         _______ _______ _______ _____ _____    ______ ____
ROOT
ATOM      1  C   UNL     1      46.751   7.099  12.954  0.00  0.00    +0.000 A 
ATOM      2  C   UNL     1      45.838   8.159  12.975  0.00  0.00    +0.000 A 
ATOM      3  C   UNL     1      44.855   8.278  11.994  0.00  0.00    +0.000 A 
ATOM      4  C   UNL     1      44.738   7.309  10.999  0.00  0.00    +0.000 A 
ATOM      5  C   UNL     1      45.618   6.218  10.921  0.00  0.00    +0.000 A 
ATOM      6  C   UNL     1      46.647   6.171  11.893  0.00  0.00    +0.000 A 
ENDROOT
BRANCH   5   7
ATOM      7  C   UNL     1      45.415   5.099   9.944  0.00  0.00    +0.000 A 
ATOM      8  C   UNL     1      46.147   5.117   8.735  0.00  0.00    +0.000 A 
ATOM      9  C   UNL     1      46.092   4.075   7.810  0.00  0.00    +0.000 A 
ATOM     10  C   UNL     1      45.346   2.945   8.098  0.00  0.00    +0.000 A 
ATOM     11  C   UNL     1      44.613   2.883   9.282  0.00  0.00    +0.000 A 
ATOM     12  C   UNL     1      44.580   3.972  10.170  0.00  0.00    +0.000 A 
BRANCH  12  13
ATOM     13  O   UNL     1      43.771   4.002  11.273  0.00  0.00    +0.000 OA
BRANCH  13  14
ATOM     14  C   UNL     1      44.218   3.443  12.499  0.00  0.00    +0.000 C 
ATOM     15  F   UNL     1      44.281   4.333  13.513  0.00  0.00    +0.000 F 
ATOM     16  F   UNL     1      43.410   2.421  12.857  0.00  0.00    +0.000 F 
ATOM     17  F   UNL     1      45.464   2.948  12.316  0.00  0.00    +0.000 F 
ENDBRANCH  13  14
ENDBRANCH  12  13
ENDBRANCH   5   7
BRANCH   1  19
ATOM     18  C   UNL     1      49.246   7.130  13.407  0.00  0.00    +0.000 C 
ATOM     19  C   UNL     1      47.846   6.919  14.010  0.00  0.00    +0.000 C 
BRANCH  19  20
ATOM     20  C   UNL     1      47.850   5.553  14.731  0.00  0.00    +0.000 C 
BRANCH  20  21
ATOM     21  O   UNL     1      47.997   5.756  16.140  0.00  0.00    +0.000 OA
BRANCH  21  22
ATOM     22  C   UNL     1      49.107   5.125  16.662  0.00  0.00    +0.000 A 
ATOM     23  C   UNL     1      48.944   3.843  17.173  0.00  0.00    +0.000 A 
ATOM     24  N   UNL     1      49.965   3.134  17.725  0.00  0.00    +0.000 NA
ATOM     25  C   UNL     1      51.165   3.782  17.727  0.00  0.00    +0.000 A 
ATOM     26  C   UNL     1      51.328   5.057  17.206  0.00  0.00    +0.000 A 
ATOM     27  N   UNL     1      50.302   5.758  16.660  0.00  0.00    +0.000 NA
BRANCH  25  28
ATOM     28  C   UNL     1      52.329   3.089  18.352  0.00  0.00    +0.000 C 
ATOM     29  N   UNL     1      52.701   3.538  19.583  0.00  0.00    +0.000 N 
ATOM     30  O   UNL     1      52.918   2.182  17.782  0.00  0.00    +0.000 OA
ATOM     31  H   UNL     1      52.205   4.310  20.016  0.00  0.00    +0.000 HD
ATOM     32  H   UNL     1      53.505   3.129  20.038  0.00  0.00    +0.000 HD
ENDBRANCH  25  28
ENDBRANCH  21  22
ENDBRANCH  20  21
ENDBRANCH  19  20
ENDBRANCH   1  19
TORSDOF 8
ENDMDL
MODEL 8
REMARK VINA RESULT:    -7.019      5.130      7.492
REMARK INTER + INTRA:         -11.674
REMARK INTER:                  -9.966
REMARK INTRA:                  -1.708
REMARK UNBOUND:                -1.372
REMARK  Name = 
REMARK  9 active torsions:
REMARK  status: ('A' for Active; 'I' for Inactive)
REMARK    1  A    between atoms: C_1  and  C_2
REMARK    2  A    between atoms: C_2  and  C_3
REMARK    3  A    between atoms: C_2  and  C_14
REMARK    4  A    between atoms: C_3  and  O_4
REMARK    5  A    between atoms: O_4  and  C_5
REMARK    6  A    between atoms: C_8  and  C_9
REMARK    7  A    between atoms: C_18  and  C_19
REMARK    8  A    between atoms: C_24  and  O_25
REMARK    9  A    between atoms: O_25  and  C_26
REMARK                            x       y       z     vdW  Elec       q    Type
REMARK                         _______ _______ _______ _____ _____    ______ ____
ROOT
ATOM      1  C   UNL     1      49.844   7.533  16.227  0.00  0.00    +0.000 A 
ATOM      2  C   UNL     1      49.853   8.249  17.429  0.00  0.00    +0.000 A 
ATOM      3  C   UNL     1      50.140   7.617  18.637  0.00  0.00    +0.000 A 
ATOM      4  C   UNL     1      50.471   6.263  18.658  0.00  0.00    +0.000 A 
ATOM      5  C   UNL     1      50.485   5.487  17.488  0.00  0.00    +0.000 A 
ATOM      6  C   UNL     1      50.118   6.149  16.292  0.00  0.00    +0.000 A 
ENDROOT
BRANCH   5   7
ATOM      7  C   UNL     1      50.975   4.070  17.479  0.00  0.00    +0.000 A 
ATOM      8  C   UNL     1      52.319   3.818  17.841  0.00  0.00    +0.000 A 
ATOM      9  C   UNL     1      52.836   2.527  17.950  0.00  0.00    +0.000 A 
ATOM     10  C   UNL     1      52.002   1.439  17.761  0.00  0.00    +0.000 A 
ATOM     11  C   UNL     1      50.668   1.642  17.409  0.00  0.00    +0.000 A 
ATOM     12  C   UNL     1      50.166   2.937  17.194  0.00  0.00    +0.000 A 
BRANCH  12  13
ATOM     13  O   UNL     1      48.904   3.172  16.721  0.00  0.00    +0.000 OA
BRANCH  13  14
ATOM     14  C   UNL     1      47.816   3.290  17.625  0.00  0.00    +0.000 C 
ATOM     15  F   UNL     1      46.952   2.253  17.577  0.00  0.00    +0.000 F 
ATOM     16  F   UNL     1      48.281   3.419  18.887  0.00  0.00    +0.000 F 
ATOM     17  F   UNL     1      47.122   4.410  17.317  0.00  0.00    +0.000 F 
ENDBRANCH  13  14
ENDBRANCH  12  13
ENDBRANCH   5   7
BRANCH   1  19
ATOM     18  C   UNL     1      49.441   9.711  14.992  0.00  0.00    +0.000 C 
ATOM     19  C   UNL     1      49.541   8.181  14.872  0.00  0.00    +0.000 C 
BRANCH  19  20
ATOM     20  C   UNL     1      48.254   7.682  14.176  0.00  0.00    +0.000 C 
BRANCH  20  21
ATOM     21  O   UNL     1      48.491   6.395  13.597  0.00  0.00    +0.000 OA
BRANCH  21  22
ATOM     22  C   UNL     1      47.332   5.760  13.205  0.00  0.00    +0.000 A 
ATOM     23  C   UNL     1      46.903   4.672  13.956  0.00  0.00    +0.000 A 
ATOM     24  N   UNL     1      45.783   3.962  13.652  0.00  0.00    +0.000 NA
ATOM     25  C   UNL     1      45.111   4.412  12.554  0.00  0.00    +0.000 A 
ATOM     26  C   UNL     1      45.534   5.505  11.814  0.00  0.00    +0.000 A 
ATOM     27  N   UNL     1      46.654   6.206  12.122  0.00  0.00    +0.000 NA
BRANCH  25  28
ATOM     28  C   UNL     1      43.892   3.663  12.130  0.00  0.00    +0.000 C 
ATOM     29  N   UNL     1      43.823   2.362  12.527  0.00  0.00    +0.000 N 
ATOM     30  O   UNL     1      43.018   4.187  11.455  0.00  0.00    +0.000 OA
ATOM     31  H   UNL     1      44.579   1.952  13.065  0.00  0.00    +0.000 HD
ATOM     32  H   UNL     1      43.038   1.795  12.238  0.00  0.00    +0.000 HD
ENDBRANCH  25  28
ENDBRANCH  21  22
ENDBRANCH  20  21
ENDBRANCH  19  20
ENDBRANCH   1  19
TORSDOF 8
ENDMDL
MODEL 9
REMARK VINA RESULT:    -6.794      4.877      7.181
REMARK INTER + INTRA:         -11.343
REMARK INTER:                  -9.508
REMARK INTRA:                  -1.835
REMARK UNBOUND:                -1.372
REMARK  Name = 
REMARK  9 active torsions:
REMARK  status: ('A' for Active; 'I' for Inactive)
REMARK    1  A    between atoms: C_1  and  C_2
REMARK    2  A    between atoms: C_2  and  C_3
REMARK    3  A    between atoms: C_2  and  C_14
REMARK    4  A    between atoms: C_3  and  O_4
REMARK    5  A    between atoms: O_4  and  C_5
REMARK    6  A    between atoms: C_8  and  C_9
REMARK    7  A    between atoms: C_18  and  C_19
REMARK    8  A    between atoms: C_24  and  O_25
REMARK    9  A    between atoms: O_25  and  C_26
REMARK                            x       y       z     vdW  Elec       q    Type
REMARK                         _______ _______ _______ _____ _____    ______ ____
ROOT
ATOM      1  C   UNL     1      49.175   7.953  15.478  0.00  0.00    +0.000 A 
ATOM      2  C   UNL     1      48.525   9.164  15.739  0.00  0.00    +0.000 A 
ATOM      3  C   UNL     1      48.015   9.446  17.004  0.00  0.00    +0.000 A 
ATOM      4  C   UNL     1      48.189   8.539  18.048  0.00  0.00    +0.000 A 
ATOM      5  C   UNL     1      48.835   7.307  17.857  0.00  0.00    +0.000 A 
ATOM      6  C   UNL     1      49.275   7.027  16.541  0.00  0.00    +0.000 A 
ENDROOT
BRANCH   5   7
ATOM      7  C   UNL     1      49.152   6.390  18.999  0.00  0.00    +0.000 A 
ATOM      8  C   UNL     1      50.282   6.674  19.801  0.00  0.00    +0.000 A 
ATOM      9  C   UNL     1      50.601   5.930  20.936  0.00  0.00    +0.000 A 
ATOM     10  C   UNL     1      49.757   4.913  21.347  0.00  0.00    +0.000 A 
ATOM     11  C   UNL     1      48.628   4.602  20.589  0.00  0.00    +0.000 A 
ATOM     12  C   UNL     1      48.357   5.277  19.386  0.00  0.00    +0.000 A 
BRANCH  12  13
ATOM     13  O   UNL     1      47.337   4.915  18.550  0.00  0.00    +0.000 OA
BRANCH  13  14
ATOM     14  C   UNL     1      47.548   3.924  17.556  0.00  0.00    +0.000 C 
ATOM     15  F   UNL     1      46.934   2.749  17.817  0.00  0.00    +0.000 F 
ATOM     16  F   UNL     1      47.130   4.383  16.356  0.00  0.00    +0.000 F 
ATOM     17  F   UNL     1      48.875   3.677  17.471  0.00  0.00    +0.000 F 
ENDBRANCH  13  14
ENDBRANCH  12  13
ENDBRANCH   5   7
BRANCH   1  19
ATOM     18  C   UNL     1      50.396   8.821  13.432  0.00  0.00    +0.000 C 
ATOM     19  C   UNL     1      49.758   7.595  14.108  0.00  0.00    +0.000 C 
BRANCH  19  20
ATOM     20  C   UNL     1      48.756   6.979  13.105  0.00  0.00    +0.000 C 
BRANCH  20  21
ATOM     21  O   UNL     1      48.052   5.902  13.732  0.00  0.00    +0.000 OA
BRANCH  21  22
ATOM     22  C   UNL     1      47.010   5.424  12.967  0.00  0.00    +0.000 A 
ATOM     23  C   UNL     1      46.600   6.185  11.879  0.00  0.00    +0.000 A 
ATOM     24  N   UNL     1      45.573   5.818  11.067  0.00  0.00    +0.000 NA
ATOM     25  C   UNL     1      44.984   4.634  11.402  0.00  0.00    +0.000 A 
ATOM     26  C   UNL     1      45.402   3.870  12.481  0.00  0.00    +0.000 A 
ATOM     27  N   UNL     1      46.425   4.246  13.289  0.00  0.00    +0.000 NA
BRANCH  25  28
ATOM     28  C   UNL     1      43.823   4.179  10.584  0.00  0.00    +0.000 C 
ATOM     29  N   UNL     1      43.813   4.586   9.284  0.00  0.00    +0.000 N 
ATOM     30  O   UNL     1      42.930   3.493  11.061  0.00  0.00    +0.000 OA
ATOM     31  H   UNL     1      44.558   5.175   8.928  0.00  0.00    +0.000 HD
ATOM     32  H   UNL     1      43.032   4.337   8.692  0.00  0.00    +0.000 HD
ENDBRANCH  25  28
ENDBRANCH  21  22
ENDBRANCH  20  21
ENDBRANCH  19  20
ENDBRANCH   1  19
TORSDOF 8
ENDMDL
