MODEL 1
REMARK VINA RESULT:    -7.819      0.000      0.000
REMARK INTER + INTRA:         -11.774
REMARK INTER:                 -11.019
REMARK INTRA:                  -0.756
REMARK UNBOUND:                -0.756
REMARK  Name = 
REMARK  7 active torsions:
REMARK  status: ('A' for Active; 'I' for Inactive)
REMARK    1  A    between atoms: C_2  and  C_4
REMARK    2  A    between atoms: C_7  and  N_8
REMARK    3  A    between atoms: N_8  and  C_9
REMARK    4  A    between atoms: C_9  and  C_10
REMARK    5  A    between atoms: C_10  and  C_11
REMARK    6  A    between atoms: C_15  and  O_16
REMARK    7  A    between atoms: O_16  and  C_17
REMARK                            x       y       z     vdW  Elec       q    Type
REMARK                         _______ _______ _______ _____ _____    ______ ____
ROOT
ATOM      1  N   UNL     1      43.821   4.993   9.761  0.00  0.00    +0.000 N 
ATOM      2  H   UNL     1      44.343   5.865   9.774  0.00  0.00    +0.000 HD
ENDROOT
BRANCH   1   6
ATOM      3  C   UNL     1      46.092   2.000   8.088  0.00  0.00    +0.000 A 
ATOM      4  C   UNL     1      46.168   3.295   7.603  0.00  0.00    +0.000 A 
ATOM      5  N   UNL     1      45.424   4.313   8.114  0.00  0.00    +0.000 NA
ATOM      6  C   UNL     1      44.591   4.001   9.130  0.00  0.00    +0.000 A 
ATOM      7  C   UNL     1      44.527   2.680   9.600  0.00  0.00    +0.000 A 
ATOM      8  N   UNL     1      45.255   1.648   9.099  0.00  0.00    +0.000 NA
BRANCH   3  10
ATOM      9  N   UNL     1      47.973   1.375   6.700  0.00  0.00    +0.000 N 
ATOM     10  C   UNL     1      46.965   0.938   7.516  0.00  0.00    +0.000 C 
ATOM     11  O   UNL     1      46.793  -0.251   7.751  0.00  0.00    +0.000 OA
ATOM     12  H   UNL     1      48.581   0.703   6.255  0.00  0.00    +0.000 HD
ATOM     13  H   UNL     1      48.077   2.366   6.510  0.00  0.00    +0.000 HD
ENDBRANCH   3  10
ENDBRANCH   1   6
BRANCH   1  14
ATOM     14  C   UNL     1      43.311   4.635  11.090  0.00  0.00    +0.000 C 
BRANCH  14  15
ATOM     15  C   UNL     1      43.571   5.796  12.059  0.00  0.00    +0.000 C 
BRANCH  15  16
ATOM     16  C   UNL     1      45.013   5.887  12.489  0.00  0.00    +0.000 A 
ATOM     17  C   UNL     1      45.796   6.993  12.135  0.00  0.00    +0.000 A 
ATOM     18  C   UNL     1      47.128   7.073  12.551  0.00  0.00    +0.000 A 
ATOM     19  C   UNL     1      47.692   6.054  13.321  0.00  0.00    +0.000 A 
ATOM     20  C   UNL     1      46.921   4.952  13.678  0.00  0.00    +0.000 A 
ATOM     21  C   UNL     1      45.586   4.876  13.270  0.00  0.00    +0.000 A 
BRANCH  20  22
ATOM     22  O   UNL     1      47.352   3.909  14.456  0.00  0.00    +0.000 OA
BRANCH  22  23
ATOM     23  C   UNL     1      47.261   4.012  15.894  0.00  0.00    +0.000 C 
ATOM     24  C   UNL     1      48.220   5.007  16.594  0.00  0.00    +0.000 C 
ATOM     25  C   UNL     1      48.540   3.919  17.632  0.00  0.00    +0.000 C 
ATOM     26  C   UNL     1      48.000   2.876  16.645  0.00  0.00    +0.000 C 
ENDBRANCH  22  23
ENDBRANCH  20  22
ENDBRANCH  15  16
ENDBRANCH  14  15
ENDBRANCH   1  14
TORSDOF 7
ENDMDL
MODEL 2
REMARK VINA RESULT:    -7.287      3.307      7.680
REMARK INTER + INTRA:         -11.026
REMARK INTER:                 -10.305
REMARK INTRA:                  -0.721
REMARK UNBOUND:                -0.756
REMARK  Name = 
REMARK  7 active torsions:
REMARK  status: ('A' for Active; 'I' for Inactive)
REMARK    1  A    between atoms: C_2  and  C_4
REMARK    2  A    between atoms: C_7  and  N_8
REMARK    3  A    between atoms: N_8  and  C_9
REMARK    4  A    between atoms: C_9  and  C_10
REMARK    5  A    between atoms: C_10  and  C_11
REMARK    6  A    between atoms: C_15  and  O_16
REMARK    7  A    between atoms: O_16  and  C_17
REMARK                            x       y       z     vdW  Elec       q    Type
REMARK                         _______ _______ _______ _____ _____    ______ ____
ROOT
ATOM      1  N   UNL     1      47.131   6.547  12.925  0.00  0.00    +0.000 N 
ATOM      2  H   UNL     1      47.556   7.464  13.043  0.00  0.00    +0.000 HD
ENDROOT
BRANCH   1   6
ATOM      3  C   UNL     1      47.717   4.201  16.252  0.00  0.00    +0.000 A 
ATOM      4  C   UNL     1      48.444   5.367  16.077  0.00  0.00    +0.000 A 
ATOM      5  N   UNL     1      48.295   6.165  14.985  0.00  0.00    +0.000 NA
ATOM      6  C   UNL     1      47.396   5.764  14.061  0.00  0.00    +0.000 A 
ATOM      7  C   UNL     1      46.677   4.575  14.258  0.00  0.00    +0.000 A 
ATOM      8  N   UNL     1      46.814   3.760  15.337  0.00  0.00    +0.000 NA
BRANCH   3  10
ATOM      9  N   UNL     1      46.844   2.578  17.819  0.00  0.00    +0.000 N 
ATOM     10  C   UNL     1      47.892   3.393  17.490  0.00  0.00    +0.000 C 
ATOM     11  O   UNL     1      48.904   3.456  18.178  0.00  0.00    +0.000 OA
ATOM     12  H   UNL     1      46.886   2.026  18.664  0.00  0.00    +0.000 HD
ATOM     13  H   UNL     1      46.012   2.563  17.238  0.00  0.00    +0.000 HD
ENDBRANCH   3  10
ENDBRANCH   1   6
BRANCH   1  14
ATOM     14  C   UNL     1      45.716   6.640  12.548  0.00  0.00    +0.000 C 
BRANCH  14  15
ATOM     15  C   UNL     1      45.602   6.654  11.018  0.00  0.00    +0.000 C 
BRANCH  15  16
ATOM     16  C   UNL     1      45.225   5.309  10.449  0.00  0.00    +0.000 A 
ATOM     17  C   UNL     1      44.573   4.355  11.239  0.00  0.00    +0.000 A 
ATOM     18  C   UNL     1      44.216   3.117  10.697  0.00  0.00    +0.000 A 
ATOM     19  C   UNL     1      44.506   2.818   9.364  0.00  0.00    +0.000 A 
ATOM     20  C   UNL     1      45.153   3.760   8.571  0.00  0.00    +0.000 A 
ATOM     21  C   UNL     1      45.502   5.003   9.110  0.00  0.00    +0.000 A 
BRANCH  20  22
ATOM     22  O   UNL     1      45.460   3.596   7.245  0.00  0.00    +0.000 OA
BRANCH  22  23
ATOM     23  C   UNL     1      46.783   3.151   6.873  0.00  0.00    +0.000 C 
ATOM     24  C   UNL     1      47.002   2.734   5.397  0.00  0.00    +0.000 C 
ATOM     25  C   UNL     1      47.741   1.482   5.895  0.00  0.00    +0.000 C 
ATOM     26  C   UNL     1      47.074   1.680   7.262  0.00  0.00    +0.000 C 
ENDBRANCH  22  23
ENDBRANCH  20  22
ENDBRANCH  15  16
ENDBRANCH  14  15
ENDBRANCH   1  14
TORSDOF 7
ENDMDL
MODEL 3
REMARK VINA RESULT:    -7.172      1.813      3.623
REMARK INTER + INTRA:         -10.863
REMARK INTER:                 -10.071
REMARK INTRA:                  -0.792
REMARK UNBOUND:                -0.756
REMARK  Name = 
REMARK  7 active torsions:
REMARK  status: ('A' for Active; 'I' for Inactive)
REMARK    1  A    between atoms: C_2  and  C_4
REMARK    2  A    between atoms: C_7  and  N_8
REMARK    3  A    between atoms: N_8  and  C_9
REMARK    4  A    between atoms: C_9  and  C_10
REMARK    5  A    between atoms: C_10  and  C_11
REMARK    6  A    between atoms: C_15  and  O_16
REMARK    7  A    between atoms: O_16  and  C_17
REMARK                            x       y       z     vdW  Elec       q    Type
REMARK                         _______ _______ _______ _____ _____    ______ ____
ROOT
ATOM      1  N   UNL     1      43.827   4.698   9.745  0.00  0.00    +0.000 N 
ATOM      2  H   UNL     1      44.113   5.673   9.795  0.00  0.00    +0.000 HD
ENDROOT
BRANCH   1   6
ATOM      3  C   UNL     1      46.518   2.494   7.550  0.00  0.00    +0.000 A 
ATOM      4  C   UNL     1      46.439   3.867   7.391  0.00  0.00    +0.000 A 
ATOM      5  N   UNL     1      45.554   4.635   8.084  0.00  0.00    +0.000 NA
ATOM      6  C   UNL     1      44.738   3.989   8.945  0.00  0.00    +0.000 A 
ATOM      7  C   UNL     1      44.833   2.595   9.083  0.00  0.00    +0.000 A 
ATOM      8  N   UNL     1      45.704   1.809   8.397  0.00  0.00    +0.000 NA
BRANCH   3  10
ATOM      9  N   UNL     1      48.657   2.409   6.422  0.00  0.00    +0.000 N 
ATOM     10  C   UNL     1      47.539   1.715   6.797  0.00  0.00    +0.000 C 
ATOM     11  O   UNL     1      47.389   0.531   6.520  0.00  0.00    +0.000 OA
ATOM     12  H   UNL     1      49.374   1.946   5.881  0.00  0.00    +0.000 HD
ATOM     13  H   UNL     1      48.742   3.393   6.651  0.00  0.00    +0.000 HD
ENDBRANCH   3  10
ENDBRANCH   1   6
BRANCH   1  14
ATOM     14  C   UNL     1      43.588   4.126  11.074  0.00  0.00    +0.000 C 
BRANCH  14  15
ATOM     15  C   UNL     1      43.696   5.235  12.128  0.00  0.00    +0.000 C 
BRANCH  15  16
ATOM     16  C   UNL     1      45.115   5.477  12.579  0.00  0.00    +0.000 A 
ATOM     17  C   UNL     1      45.672   4.724  13.620  0.00  0.00    +0.000 A 
ATOM     18  C   UNL     1      46.993   4.946  14.020  0.00  0.00    +0.000 A 
ATOM     19  C   UNL     1      47.769   5.921  13.390  0.00  0.00    +0.000 A 
ATOM     20  C   UNL     1      47.223   6.674  12.355  0.00  0.00    +0.000 A 
ATOM     21  C   UNL     1      45.905   6.445  11.947  0.00  0.00    +0.000 A 
BRANCH  20  22
ATOM     22  O   UNL     1      47.894   7.632  11.640  0.00  0.00    +0.000 OA
BRANCH  22  23
ATOM     23  C   UNL     1      48.145   8.921  12.243  0.00  0.00    +0.000 C 
ATOM     24  C   UNL     1      47.091  10.031  12.005  0.00  0.00    +0.000 C 
ATOM     25  C   UNL     1      48.236  11.005  11.687  0.00  0.00    +0.000 C 
ATOM     26  C   UNL     1      49.146   9.794  11.445  0.00  0.00    +0.000 C 
ENDBRANCH  22  23
ENDBRANCH  20  22
ENDBRANCH  15  16
ENDBRANCH  14  15
ENDBRANCH   1  14
TORSDOF 7
ENDMDL
MODEL 4
REMARK VINA RESULT:    -7.089      3.359      7.225
REMARK INTER + INTRA:         -10.746
REMARK INTER:                  -9.913
REMARK INTRA:                  -0.833
REMARK UNBOUND:                -0.756
REMARK  Name = 
REMARK  7 active torsions:
REMARK  status: ('A' for Active; 'I' for Inactive)
REMARK    1  A    between atoms: C_2  and  C_4
REMARK    2  A    between atoms: C_7  and  N_8
REMARK    3  A    between atoms: N_8  and  C_9
REMARK    4  A    between atoms: C_9  and  C_10
REMARK    5  A    between atoms: C_10  and  C_11
REMARK    6  A    between atoms: C_15  and  O_16
REMARK    7  A    between atoms: O_16  and  C_17
REMARK                            x       y       z     vdW  Elec       q    Type
REMARK                         _______ _______ _______ _____ _____    ______ ____
ROOT
ATOM      1  N   UNL     1      47.551   6.600  12.838  0.00  0.00    +0.000 N 
ATOM      2  H   UNL     1      48.400   7.154  12.764  0.00  0.00    +0.000 HD
ENDROOT
BRANCH   1   6
ATOM      3  C   UNL     1      47.527   4.269  16.226  0.00  0.00    +0.000 A 
ATOM      4  C   UNL     1      48.337   5.389  16.150  0.00  0.00    +0.000 A 
ATOM      5  N   UNL     1      48.389   6.180  15.044  0.00  0.00    +0.000 NA
ATOM      6  C   UNL     1      47.607   5.818  14.004  0.00  0.00    +0.000 A 
ATOM      7  C   UNL     1      46.800   4.674  14.103  0.00  0.00    +0.000 A 
ATOM      8  N   UNL     1      46.738   3.867  15.194  0.00  0.00    +0.000 NA
BRANCH   3  10
ATOM      9  N   UNL     1      48.427   3.778  18.418  0.00  0.00    +0.000 N 
ATOM     10  C   UNL     1      47.479   3.468  17.480  0.00  0.00    +0.000 C 
ATOM     11  O   UNL     1      46.653   2.583  17.664  0.00  0.00    +0.000 OA
ATOM     12  H   UNL     1      48.469   3.252  19.278  0.00  0.00    +0.000 HD
ATOM     13  H   UNL     1      49.109   4.505  18.227  0.00  0.00    +0.000 HD
ENDBRANCH   3  10
ENDBRANCH   1   6
BRANCH   1  14
ATOM     14  C   UNL     1      46.343   7.421  12.697  0.00  0.00    +0.000 C 
BRANCH  14  15
ATOM     15  C   UNL     1      45.684   7.120  11.344  0.00  0.00    +0.000 C 
BRANCH  15  16
ATOM     16  C   UNL     1      44.838   5.871  11.371  0.00  0.00    +0.000 A 
ATOM     17  C   UNL     1      43.839   5.705  12.337  0.00  0.00    +0.000 A 
ATOM     18  C   UNL     1      43.052   4.550  12.344  0.00  0.00    +0.000 A 
ATOM     19  C   UNL     1      43.254   3.550  11.391  0.00  0.00    +0.000 A 
ATOM     20  C   UNL     1      44.245   3.707  10.426  0.00  0.00    +0.000 A 
ATOM     21  C   UNL     1      45.026   4.868  10.412  0.00  0.00    +0.000 A 
BRANCH  20  22
ATOM     22  O   UNL     1      44.514   2.814   9.421  0.00  0.00    +0.000 OA
BRANCH  22  23
ATOM     23  C   UNL     1      45.807   2.840   8.777  0.00  0.00    +0.000 C 
ATOM     24  C   UNL     1      45.871   3.417   7.341  0.00  0.00    +0.000 C 
ATOM     25  C   UNL     1      46.736   2.214   6.932  0.00  0.00    +0.000 C 
ATOM     26  C   UNL     1      46.228   1.476   8.176  0.00  0.00    +0.000 C 
ENDBRANCH  22  23
ENDBRANCH  20  22
ENDBRANCH  15  16
ENDBRANCH  14  15
ENDBRANCH   1  14
TORSDOF 7
ENDMDL
MODEL 5
REMARK VINA RESULT:    -6.365      2.226      2.857
REMARK INTER + INTRA:          -9.725
REMARK INTER:                  -9.287
REMARK INTRA:                  -0.438
REMARK UNBOUND:                -0.756
REMARK  Name = 
REMARK  7 active torsions:
REMARK  status: ('A' for Active; 'I' for Inactive)
REMARK    1  A    between atoms: C_2  and  C_4
REMARK    2  A    between atoms: C_7  and  N_8
REMARK    3  A    between atoms: N_8  and  C_9
REMARK    4  A    between atoms: C_9  and  C_10
REMARK    5  A    between atoms: C_10  and  C_11
REMARK    6  A    between atoms: C_15  and  O_16
REMARK    7  A    between atoms: O_16  and  C_17
REMARK                            x       y       z     vdW  Elec       q    Type
REMARK                         _______ _______ _______ _____ _____    ______ ____
ROOT
ATOM      1  N   UNL     1      43.789   4.496   9.882  0.00  0.00    +0.000 N 
ATOM      2  H   UNL     1      43.664   5.457   9.573  0.00  0.00    +0.000 HD
ENDROOT
BRANCH   1   6
ATOM      3  C   UNL     1      46.586   2.515   7.609  0.00  0.00    +0.000 A 
ATOM      4  C   UNL     1      46.411   3.882   7.473  0.00  0.00    +0.000 A 
ATOM      5  N   UNL     1      45.487   4.576   8.192  0.00  0.00    +0.000 NA
ATOM      6  C   UNL     1      44.732   3.863   9.056  0.00  0.00    +0.000 A 
ATOM      7  C   UNL     1      44.924   2.477   9.170  0.00  0.00    +0.000 A 
ATOM      8  N   UNL     1      45.835   1.763   8.457  0.00  0.00    +0.000 NA
BRANCH   3  10
ATOM      9  N   UNL     1      48.691   2.600   6.419  0.00  0.00    +0.000 N 
ATOM     10  C   UNL     1      47.644   1.819   6.826  0.00  0.00    +0.000 C 
ATOM     11  O   UNL     1      47.583   0.626   6.554  0.00  0.00    +0.000 OA
ATOM     12  H   UNL     1      49.427   2.196   5.858  0.00  0.00    +0.000 HD
ATOM     13  H   UNL     1      48.703   3.589   6.646  0.00  0.00    +0.000 HD
ENDBRANCH   3  10
ENDBRANCH   1   6
BRANCH   1  14
ATOM     14  C   UNL     1      44.064   4.411  11.321  0.00  0.00    +0.000 C 
BRANCH  14  15
ATOM     15  C   UNL     1      45.508   4.855  11.585  0.00  0.00    +0.000 C 
BRANCH  15  16
ATOM     16  C   UNL     1      45.615   6.317  11.943  0.00  0.00    +0.000 A 
ATOM     17  C   UNL     1      44.719   7.251  11.408  0.00  0.00    +0.000 A 
ATOM     18  C   UNL     1      44.819   8.600  11.757  0.00  0.00    +0.000 A 
ATOM     19  C   UNL     1      45.810   9.032  12.640  0.00  0.00    +0.000 A 
ATOM     20  C   UNL     1      46.704   8.110  13.178  0.00  0.00    +0.000 A 
ATOM     21  C   UNL     1      46.599   6.758  12.836  0.00  0.00    +0.000 A 
BRANCH  20  22
ATOM     22  O   UNL     1      47.695   8.407  14.078  0.00  0.00    +0.000 OA
BRANCH  22  23
ATOM     23  C   UNL     1      49.045   7.964  13.817  0.00  0.00    +0.000 C 
ATOM     24  C   UNL     1      49.750   7.148  14.929  0.00  0.00    +0.000 C 
ATOM     25  C   UNL     1      50.999   8.022  14.734  0.00  0.00    +0.000 C 
ATOM     26  C   UNL     1      50.112   9.065  14.042  0.00  0.00    +0.000 C 
ENDBRANCH  22  23
ENDBRANCH  20  22
ENDBRANCH  15  16
ENDBRANCH  14  15
ENDBRANCH   1  14
TORSDOF 7
ENDMDL
MODEL 6
REMARK VINA RESULT:    -6.206      3.922      7.503
REMARK INTER + INTRA:          -9.502
REMARK INTER:                  -8.643
REMARK INTRA:                  -0.859
REMARK UNBOUND:                -0.756
REMARK  Name = 
REMARK  7 active torsions:
REMARK  status: ('A' for Active; 'I' for Inactive)
REMARK    1  A    between atoms: C_2  and  C_4
REMARK    2  A    between atoms: C_7  and  N_8
REMARK    3  A    between atoms: N_8  and  C_9
REMARK    4  A    between atoms: C_9  and  C_10
REMARK    5  A    between atoms: C_10  and  C_11
REMARK    6  A    between atoms: C_15  and  O_16
REMARK    7  A    between atoms: O_16  and  C_17
REMARK                            x       y       z     vdW  Elec       q    Type
REMARK                         _______ _______ _______ _____ _____    ______ ____
ROOT
ATOM      1  N   UNL     1      49.477   7.375  14.424  0.00  0.00    +0.000 N 
ATOM      2  H   UNL     1      49.244   8.294  14.791  0.00  0.00    +0.000 HD
ENDROOT
BRANCH   1   6
ATOM      3  C   UNL     1      47.980   4.478  16.929  0.00  0.00    +0.000 A 
ATOM      4  C   UNL     1      47.558   4.555  15.613  0.00  0.00    +0.000 A 
ATOM      5  N   UNL     1      48.014   5.506  14.753  0.00  0.00    +0.000 NA
ATOM      6  C   UNL     1      48.908   6.389  15.247  0.00  0.00    +0.000 A 
ATOM      7  C   UNL     1      49.314   6.295  16.587  0.00  0.00    +0.000 A 
ATOM      8  N   UNL     1      48.867   5.358  17.464  0.00  0.00    +0.000 NA
BRANCH   3  10
ATOM      9  N   UNL     1      48.229   3.132  18.925  0.00  0.00    +0.000 N 
ATOM     10  C   UNL     1      47.478   3.386  17.809  0.00  0.00    +0.000 C 
ATOM     11  O   UNL     1      46.465   2.748  17.552  0.00  0.00    +0.000 OA
ATOM     12  H   UNL     1      47.960   2.384  19.547  0.00  0.00    +0.000 HD
ATOM     13  H   UNL     1      49.073   3.666  19.100  0.00  0.00    +0.000 HD
ENDBRANCH   3  10
ENDBRANCH   1   6
BRANCH   1  14
ATOM     14  C   UNL     1      49.160   7.255  12.997  0.00  0.00    +0.000 C 
BRANCH  14  15
ATOM     15  C   UNL     1      48.233   8.407  12.587  0.00  0.00    +0.000 C 
BRANCH  15  16
ATOM     16  C   UNL     1      46.866   7.934  12.160  0.00  0.00    +0.000 A 
ATOM     17  C   UNL     1      45.818   8.845  11.982  0.00  0.00    +0.000 A 
ATOM     18  C   UNL     1      44.559   8.397  11.572  0.00  0.00    +0.000 A 
ATOM     19  C   UNL     1      44.333   7.040  11.337  0.00  0.00    +0.000 A 
ATOM     20  C   UNL     1      45.369   6.128  11.510  0.00  0.00    +0.000 A 
ATOM     21  C   UNL     1      46.632   6.576  11.911  0.00  0.00    +0.000 A 
BRANCH  20  22
ATOM     22  O   UNL     1      45.278   4.779  11.279  0.00  0.00    +0.000 OA
BRANCH  22  23
ATOM     23  C   UNL     1      44.638   4.309  10.072  0.00  0.00    +0.000 C 
ATOM     24  C   UNL     1      44.717   2.790   9.774  0.00  0.00    +0.000 C 
ATOM     25  C   UNL     1      45.096   3.127   8.323  0.00  0.00    +0.000 C 
ATOM     26  C   UNL     1      45.485   4.534   8.794  0.00  0.00    +0.000 C 
ENDBRANCH  22  23
ENDBRANCH  20  22
ENDBRANCH  15  16
ENDBRANCH  14  15
ENDBRANCH   1  14
TORSDOF 7
ENDMDL
MODEL 7
REMARK VINA RESULT:    -6.007      3.068      5.260
REMARK INTER + INTRA:          -9.222
REMARK INTER:                  -8.573
REMARK INTRA:                  -0.648
REMARK UNBOUND:                -0.756
REMARK  Name = 
REMARK  7 active torsions:
REMARK  status: ('A' for Active; 'I' for Inactive)
REMARK    1  A    between atoms: C_2  and  C_4
REMARK    2  A    between atoms: C_7  and  N_8
REMARK    3  A    between atoms: N_8  and  C_9
REMARK    4  A    between atoms: C_9  and  C_10
REMARK    5  A    between atoms: C_10  and  C_11
REMARK    6  A    between atoms: C_15  and  O_16
REMARK    7  A    between atoms: O_16  and  C_17
REMARK                            x       y       z     vdW  Elec       q    Type
REMARK                         _______ _______ _______ _____ _____    ______ ____
ROOT
ATOM      1  N   UNL     1      47.022   6.977  13.752  0.00  0.00    +0.000 N 
ATOM      2  H   UNL     1      47.092   7.860  13.251  0.00  0.00    +0.000 HD
ENDROOT
BRANCH   1   6
ATOM      3  C   UNL     1      44.855   4.192  11.640  0.00  0.00    +0.000 A 
ATOM      4  C   UNL     1      45.261   5.371  11.037  0.00  0.00    +0.000 A 
ATOM      5  N   UNL     1      45.965   6.327  11.701  0.00  0.00    +0.000 NA
ATOM      6  C   UNL     1      46.253   6.076  12.996  0.00  0.00    +0.000 A 
ATOM      7  C   UNL     1      45.824   4.877  13.587  0.00  0.00    +0.000 A 
ATOM      8  N   UNL     1      45.114   3.912  12.945  0.00  0.00    +0.000 NA
BRANCH   3  10
ATOM      9  N   UNL     1      43.410   2.252  11.576  0.00  0.00    +0.000 N 
ATOM     10  C   UNL     1      44.125   3.164  10.848  0.00  0.00    +0.000 C 
ATOM     11  O   UNL     1      44.165   3.126   9.625  0.00  0.00    +0.000 OA
ATOM     12  H   UNL     1      42.918   1.509  11.101  0.00  0.00    +0.000 HD
ATOM     13  H   UNL     1      43.413   2.299  12.590  0.00  0.00    +0.000 HD
ENDBRANCH   3  10
ENDBRANCH   1   6
BRANCH   1  14
ATOM     14  C   UNL     1      48.336   6.476  14.172  0.00  0.00    +0.000 C 
BRANCH  14  15
ATOM     15  C   UNL     1      48.526   6.754  15.669  0.00  0.00    +0.000 C 
BRANCH  15  16
ATOM     16  C   UNL     1      48.521   5.496  16.502  0.00  0.00    +0.000 A 
ATOM     17  C   UNL     1      47.356   4.731  16.633  0.00  0.00    +0.000 A 
ATOM     18  C   UNL     1      47.366   3.560  17.396  0.00  0.00    +0.000 A 
ATOM     19  C   UNL     1      48.534   3.142  18.036  0.00  0.00    +0.000 A 
ATOM     20  C   UNL     1      49.697   3.897  17.911  0.00  0.00    +0.000 A 
ATOM     21  C   UNL     1      49.690   5.063  17.139  0.00  0.00    +0.000 A 
BRANCH  20  22
ATOM     22  O   UNL     1      50.910   3.573  18.463  0.00  0.00    +0.000 OA
BRANCH  22  23
ATOM     23  C   UNL     1      51.872   2.837  17.676  0.00  0.00    +0.000 C 
ATOM     24  C   UNL     1      51.588   1.334  17.432  0.00  0.00    +0.000 C 
ATOM     25  C   UNL     1      53.052   1.032  17.790  0.00  0.00    +0.000 C 
ATOM     26  C   UNL     1      53.124   2.401  18.478  0.00  0.00    +0.000 C 
ENDBRANCH  22  23
ENDBRANCH  20  22
ENDBRANCH  15  16
ENDBRANCH  14  15
ENDBRANCH   1  14
TORSDOF 7
ENDMDL
MODEL 8
REMARK VINA RESULT:    -5.926      2.726      4.365
REMARK INTER + INTRA:          -9.107
REMARK INTER:                  -8.293
REMARK INTRA:                  -0.814
REMARK UNBOUND:                -0.756
REMARK  Name = 
REMARK  7 active torsions:
REMARK  status: ('A' for Active; 'I' for Inactive)
REMARK    1  A    between atoms: C_2  and  C_4
REMARK    2  A    between atoms: C_7  and  N_8
REMARK    3  A    between atoms: N_8  and  C_9
REMARK    4  A    between atoms: C_9  and  C_10
REMARK    5  A    between atoms: C_10  and  C_11
REMARK    6  A    between atoms: C_15  and  O_16
REMARK    7  A    between atoms: O_16  and  C_17
REMARK                            x       y       z     vdW  Elec       q    Type
REMARK                         _______ _______ _______ _____ _____    ______ ____
ROOT
ATOM      1  N   UNL     1      45.797   7.783  13.190  0.00  0.00    +0.000 N 
ATOM      2  H   UNL     1      44.972   8.363  13.322  0.00  0.00    +0.000 HD
ENDROOT
BRANCH   1   6
ATOM      3  C   UNL     1      44.487   4.201  11.651  0.00  0.00    +0.000 A 
ATOM      4  C   UNL     1      45.298   4.229  12.773  0.00  0.00    +0.000 A 
ATOM      5  N   UNL     1      45.768   5.389  13.307  0.00  0.00    +0.000 NA
ATOM      6  C   UNL     1      45.407   6.532  12.684  0.00  0.00    +0.000 A 
ATOM      7  C   UNL     1      44.590   6.476  11.545  0.00  0.00    +0.000 A 
ATOM      8  N   UNL     1      44.116   5.329  10.990  0.00  0.00    +0.000 NA
BRANCH   3  10
ATOM      9  N   UNL     1      44.659   2.359  10.091  0.00  0.00    +0.000 N 
ATOM     10  C   UNL     1      43.968   2.902  11.140  0.00  0.00    +0.000 C 
ATOM     11  O   UNL     1      42.983   2.354  11.619  0.00  0.00    +0.000 OA
ATOM     12  H   UNL     1      44.340   1.495   9.677  0.00  0.00    +0.000 HD
ATOM     13  H   UNL     1      45.460   2.848   9.705  0.00  0.00    +0.000 HD
ENDBRANCH   3  10
ENDBRANCH   1   6
BRANCH   1  14
ATOM     14  C   UNL     1      46.836   8.472  12.417  0.00  0.00    +0.000 C 
BRANCH  14  15
ATOM     15  C   UNL     1      48.214   7.960  12.857  0.00  0.00    +0.000 C 
BRANCH  15  16
ATOM     16  C   UNL     1      48.408   8.013  14.351  0.00  0.00    +0.000 A 
ATOM     17  C   UNL     1      48.242   9.214  15.051  0.00  0.00    +0.000 A 
ATOM     18  C   UNL     1      48.410   9.250  16.438  0.00  0.00    +0.000 A 
ATOM     19  C   UNL     1      48.747   8.090  17.140  0.00  0.00    +0.000 A 
ATOM     20  C   UNL     1      48.913   6.892  16.453  0.00  0.00    +0.000 A 
ATOM     21  C   UNL     1      48.735   6.854  15.066  0.00  0.00    +0.000 A 
BRANCH  20  22
ATOM     22  O   UNL     1      49.209   5.686  17.034  0.00  0.00    +0.000 OA
BRANCH  22  23
ATOM     23  C   UNL     1      48.154   4.921  17.658  0.00  0.00    +0.000 C 
ATOM     24  C   UNL     1      48.554   3.591  18.344  0.00  0.00    +0.000 C 
ATOM     25  C   UNL     1      47.357   2.915  17.656  0.00  0.00    +0.000 C 
ATOM     26  C   UNL     1      47.324   4.078  16.657  0.00  0.00    +0.000 C 
ENDBRANCH  22  23
ENDBRANCH  20  22
ENDBRANCH  15  16
ENDBRANCH  14  15
ENDBRANCH   1  14
TORSDOF 7
ENDMDL
MODEL 9
REMARK VINA RESULT:    -5.726      2.690      4.555
REMARK INTER + INTRA:          -8.825
REMARK INTER:                  -7.956
REMARK INTRA:                  -0.869
REMARK UNBOUND:                -0.756
REMARK  Name = 
REMARK  7 active torsions:
REMARK  status: ('A' for Active; 'I' for Inactive)
REMARK    1  A    between atoms: C_2  and  C_4
REMARK    2  A    between atoms: C_7  and  N_8
REMARK    3  A    between atoms: N_8  and  C_9
REMARK    4  A    between atoms: C_9  and  C_10
REMARK    5  A    between atoms: C_10  and  C_11
REMARK    6  A    between atoms: C_15  and  O_16
REMARK    7  A    between atoms: O_16  and  C_17
REMARK                            x       y       z     vdW  Elec       q    Type
REMARK                         _______ _______ _______ _____ _____    ______ ____
ROOT
ATOM      1  N   UNL     1      43.652   4.707  10.965  0.00  0.00    +0.000 N 
ATOM      2  H   UNL     1      43.240   5.552  10.579  0.00  0.00    +0.000 HD
ENDROOT
BRANCH   1   6
ATOM      3  C   UNL     1      45.975   3.071   7.992  0.00  0.00    +0.000 A 
ATOM      4  C   UNL     1      45.181   2.263   8.788  0.00  0.00    +0.000 A 
ATOM      5  N   UNL     1      44.408   2.758   9.793  0.00  0.00    +0.000 NA
ATOM      6  C   UNL     1      44.453   4.094   9.988  0.00  0.00    +0.000 A 
ATOM      7  C   UNL     1      45.273   4.890   9.173  0.00  0.00    +0.000 A 
ATOM      8  N   UNL     1      46.057   4.416   8.169  0.00  0.00    +0.000 NA
BRANCH   3  10
ATOM      9  N   UNL     1      46.991   3.296   5.808  0.00  0.00    +0.000 N 
ATOM     10  C   UNL     1      46.764   2.475   6.879  0.00  0.00    +0.000 C 
ATOM     11  O   UNL     1      47.178   1.323   6.910  0.00  0.00    +0.000 OA
ATOM     12  H   UNL     1      47.493   2.943   5.006  0.00  0.00    +0.000 HD
ATOM     13  H   UNL     1      46.619   4.239   5.805  0.00  0.00    +0.000 HD
ENDBRANCH   3  10
ENDBRANCH   1   6
BRANCH   1  14
ATOM     14  C   UNL     1      44.316   4.955  12.250  0.00  0.00    +0.000 C 
BRANCH  14  15
ATOM     15  C   UNL     1      44.449   6.468  12.465  0.00  0.00    +0.000 C 
BRANCH  15  16
ATOM     16  C   UNL     1      45.881   6.914  12.616  0.00  0.00    +0.000 A 
ATOM     17  C   UNL     1      46.931   5.993  12.517  0.00  0.00    +0.000 A 
ATOM     18  C   UNL     1      48.256   6.419  12.645  0.00  0.00    +0.000 A 
ATOM     19  C   UNL     1      48.547   7.765  12.873  0.00  0.00    +0.000 A 
ATOM     20  C   UNL     1      47.510   8.688  12.972  0.00  0.00    +0.000 A 
ATOM     21  C   UNL     1      46.185   8.264  12.834  0.00  0.00    +0.000 A 
BRANCH  20  22
ATOM     22  O   UNL     1      47.672  10.037  13.161  0.00  0.00    +0.000 OA
BRANCH  22  23
ATOM     23  C   UNL     1      47.399  10.943  12.069  0.00  0.00    +0.000 C 
ATOM     24  C   UNL     1      48.377  10.918  10.867  0.00  0.00    +0.000 C 
ATOM     25  C   UNL     1      48.403  12.455  10.899  0.00  0.00    +0.000 C 
ATOM     26  C   UNL     1      47.871  12.395  12.336  0.00  0.00    +0.000 C 
ENDBRANCH  22  23
ENDBRANCH  20  22
ENDBRANCH  15  16
ENDBRANCH  14  15
ENDBRANCH   1  14
TORSDOF 7
ENDMDL
