MODEL 1
REMARK VINA RESULT:    -8.551      0.000      0.000
REMARK INTER + INTRA:         -12.613
REMARK INTER:                 -11.550
REMARK INTRA:                  -1.063
REMARK UNBOUND:                -1.063
REMARK  Name = 
REMARK  6 active torsions:
REMARK  status: ('A' for Active; 'I' for Inactive)
REMARK    1  A    between atoms: C_2  and  C_25
REMARK    2  A    between atoms: N_3  and  C_4
REMARK    3  A    between atoms: C_4  and  C_5
REMARK    4  A    between atoms: C_8  and  C_9
REMARK    5  A    between atoms: C_9  and  N_10
REMARK    6  A    between atoms: C_11  and  C_13
REMARK                            x       y       z     vdW  Elec       q    Type
REMARK                         _______ _______ _______ _____ _____    ______ ____
ROOT
ATOM      1  C   UNL     1      44.741   4.392  11.442  0.00  0.00    +0.000 A 
ATOM      2  C   UNL     1      44.988   5.634  12.029  0.00  0.00    +0.000 A 
ATOM      3  C   UNL     1      45.717   5.711  13.213  0.00  0.00    +0.000 A 
ATOM      4  C   UNL     1      46.161   4.533  13.807  0.00  0.00    +0.000 A 
ATOM      5  N   UNL     1      45.938   3.313  13.254  0.00  0.00    +0.000 NA
ATOM      6  C   UNL     1      45.245   3.271  12.093  0.00  0.00    +0.000 A 
ENDROOT
BRANCH   1   7
ATOM      7  C   UNL     1      43.939   4.263  10.182  0.00  0.00    +0.000 C 
BRANCH   7  10
ATOM      8  O   UNL     1      45.909   5.102   8.398  0.00  0.00    +0.000 OA
ATOM      9  C   UNL     1      45.561   3.927   8.381  0.00  0.00    +0.000 C 
ATOM     10  N   UNL     1      44.596   3.410   9.218  0.00  0.00    +0.000 N 
ATOM     11  H   UNL     1      44.511   2.408   9.319  0.00  0.00    +0.000 HD
BRANCH   9  12
ATOM     12  C   UNL     1      46.216   2.961   7.458  0.00  0.00    +0.000 A 
ATOM     13  C   UNL     1      46.474   1.663   7.912  0.00  0.00    +0.000 A 
ATOM     14  C   UNL     1      47.089   0.736   7.068  0.00  0.00    +0.000 A 
ATOM     15  C   UNL     1      47.459   1.106   5.776  0.00  0.00    +0.000 A 
ATOM     16  C   UNL     1      47.224   2.406   5.327  0.00  0.00    +0.000 A 
ATOM     17  C   UNL     1      46.605   3.336   6.165  0.00  0.00    +0.000 A 
ENDBRANCH   9  12
ENDBRANCH   7  10
ENDBRANCH   1   7
BRANCH   4  18
ATOM     18  C   UNL     1      46.911   4.579  15.117  0.00  0.00    +0.000 C 
BRANCH  18  19
ATOM     19  N   UNL     1      47.726   5.764  15.252  0.00  0.00    +0.000 N 
ATOM     20  C   UNL     1      48.864   5.805  16.013  0.00  0.00    +0.000 C 
ATOM     21  O   UNL     1      49.254   4.834  16.655  0.00  0.00    +0.000 OA
ATOM     22  H   UNL     1      47.306   6.626  14.920  0.00  0.00    +0.000 HD
BRANCH  20  23
ATOM     23  C   UNL     1      49.636   7.052  15.958  0.00  0.00    +0.000 A 
ATOM     24  C   UNL     1      50.097   7.629  17.136  0.00  0.00    +0.000 A 
ATOM     25  S   UNL     1      51.005   9.052  16.892  0.00  0.00    +0.000 S 
ATOM     26  C   UNL     1      50.782   8.971  15.208  0.00  0.00    +0.000 A 
ATOM     27  N   UNL     1      51.293   9.928  14.386  0.00  0.00    +0.000 NA
ATOM     28  C   UNL     1      51.021   9.759  13.136  0.00  0.00    +0.000 A 
ATOM     29  N   UNL     1      50.297   8.712  12.628  0.00  0.00    +0.000 N 
ATOM     30  C   UNL     1      49.809   7.691  13.413  0.00  0.00    +0.000 A 
ATOM     31  O   UNL     1      49.246   6.719  12.910  0.00  0.00    +0.000 OA
ATOM     32  C   UNL     1      50.049   7.861  14.834  0.00  0.00    +0.000 A 
ATOM     33  H   UNL     1      50.142   8.620  11.637  0.00  0.00    +0.000 HD
ENDBRANCH  20  23
ENDBRANCH  18  19
ENDBRANCH   4  18
TORSDOF 6
ENDMDL
MODEL 2
REMARK VINA RESULT:    -8.420      2.165      3.606
REMARK INTER + INTRA:         -12.437
REMARK INTER:                 -11.315
REMARK INTRA:                  -1.122
REMARK UNBOUND:                -1.063
REMARK  Name = 
REMARK  6 active torsions:
REMARK  status: ('A' for Active; 'I' for Inactive)
REMARK    1  A    between atoms: C_2  and  C_25
REMARK    2  A    between atoms: N_3  and  C_4
REMARK    3  A    between atoms: C_4  and  C_5
REMARK    4  A    between atoms: C_8  and  C_9
REMARK    5  A    between atoms: C_9  and  N_10
REMARK    6  A    between atoms: C_11  and  C_13
REMARK                            x       y       z     vdW  Elec       q    Type
REMARK                         _______ _______ _______ _____ _____    ______ ____
ROOT
ATOM      1  C   UNL     1      44.884   5.688  10.841  0.00  0.00    +0.000 A 
ATOM      2  C   UNL     1      46.197   6.047  10.532  0.00  0.00    +0.000 A 
ATOM      3  C   UNL     1      46.929   6.835  11.417  0.00  0.00    +0.000 A 
ATOM      4  C   UNL     1      46.318   7.276  12.587  0.00  0.00    +0.000 A 
ATOM      5  N   UNL     1      45.044   6.937  12.913  0.00  0.00    +0.000 NA
ATOM      6  C   UNL     1      44.365   6.154  12.044  0.00  0.00    +0.000 A 
ENDROOT
BRANCH   1   7
ATOM      7  C   UNL     1      44.054   4.864   9.904  0.00  0.00    +0.000 C 
BRANCH   7  10
ATOM      8  O   UNL     1      44.971   2.235   9.781  0.00  0.00    +0.000 OA
ATOM      9  C   UNL     1      45.250   2.999   8.864  0.00  0.00    +0.000 C 
ATOM     10  N   UNL     1      44.849   4.317   8.828  0.00  0.00    +0.000 N 
ATOM     11  H   UNL     1      44.909   4.831   7.960  0.00  0.00    +0.000 HD
BRANCH   9  12
ATOM     12  C   UNL     1      46.022   2.515   7.688  0.00  0.00    +0.000 A 
ATOM     13  C   UNL     1      46.661   1.272   7.765  0.00  0.00    +0.000 A 
ATOM     14  C   UNL     1      47.394   0.793   6.678  0.00  0.00    +0.000 A 
ATOM     15  C   UNL     1      47.501   1.559   5.518  0.00  0.00    +0.000 A 
ATOM     16  C   UNL     1      46.886   2.808   5.445  0.00  0.00    +0.000 A 
ATOM     17  C   UNL     1      46.148   3.290   6.528  0.00  0.00    +0.000 A 
ENDBRANCH   9  12
ENDBRANCH   7  10
ENDBRANCH   1   7
BRANCH   4  18
ATOM     18  C   UNL     1      47.069   8.173  13.544  0.00  0.00    +0.000 C 
BRANCH  18  19
ATOM     19  N   UNL     1      47.563   7.465  14.701  0.00  0.00    +0.000 N 
ATOM     20  C   UNL     1      48.800   6.879  14.745  0.00  0.00    +0.000 C 
ATOM     21  O   UNL     1      49.565   6.897  13.785  0.00  0.00    +0.000 OA
ATOM     22  H   UNL     1      46.872   7.246  15.411  0.00  0.00    +0.000 HD
BRANCH  20  23
ATOM     23  C   UNL     1      49.195   6.292  16.032  0.00  0.00    +0.000 A 
ATOM     24  C   UNL     1      50.231   6.866  16.761  0.00  0.00    +0.000 A 
ATOM     25  S   UNL     1      50.537   6.083  18.245  0.00  0.00    +0.000 S 
ATOM     26  C   UNL     1      49.326   4.927  17.949  0.00  0.00    +0.000 A 
ATOM     27  N   UNL     1      49.081   3.925  18.837  0.00  0.00    +0.000 NA
ATOM     28  C   UNL     1      48.157   3.101  18.471  0.00  0.00    +0.000 A 
ATOM     29  N   UNL     1      47.443   3.196  17.305  0.00  0.00    +0.000 N 
ATOM     30  C   UNL     1      47.615   4.224  16.404  0.00  0.00    +0.000 A 
ATOM     31  O   UNL     1      46.890   4.327  15.416  0.00  0.00    +0.000 OA
ATOM     32  C   UNL     1      48.677   5.150  16.750  0.00  0.00    +0.000 A 
ATOM     33  H   UNL     1      46.712   2.537  17.088  0.00  0.00    +0.000 HD
ENDBRANCH  20  23
ENDBRANCH  18  19
ENDBRANCH   4  18
TORSDOF 6
ENDMDL
MODEL 3
REMARK VINA RESULT:    -8.257      2.482      4.041
REMARK INTER + INTRA:         -12.217
REMARK INTER:                 -11.435
REMARK INTRA:                  -0.782
REMARK UNBOUND:                -1.063
REMARK  Name = 
REMARK  6 active torsions:
REMARK  status: ('A' for Active; 'I' for Inactive)
REMARK    1  A    between atoms: C_2  and  C_25
REMARK    2  A    between atoms: N_3  and  C_4
REMARK    3  A    between atoms: C_4  and  C_5
REMARK    4  A    between atoms: C_8  and  C_9
REMARK    5  A    between atoms: C_9  and  N_10
REMARK    6  A    between atoms: C_11  and  C_13
REMARK                            x       y       z     vdW  Elec       q    Type
REMARK                         _______ _______ _______ _____ _____    ______ ____
ROOT
ATOM      1  C   UNL     1      45.425   4.530  11.812  0.00  0.00    +0.000 A 
ATOM      2  C   UNL     1      46.006   3.997  12.965  0.00  0.00    +0.000 A 
ATOM      3  C   UNL     1      46.926   4.749  13.692  0.00  0.00    +0.000 A 
ATOM      4  C   UNL     1      47.271   6.017  13.231  0.00  0.00    +0.000 A 
ATOM      5  N   UNL     1      46.718   6.560  12.116  0.00  0.00    +0.000 NA
ATOM      6  C   UNL     1      45.812   5.814  11.442  0.00  0.00    +0.000 A 
ENDROOT
BRANCH   1   7
ATOM      7  C   UNL     1      44.451   3.745  10.988  0.00  0.00    +0.000 C 
BRANCH   7  10
ATOM      8  O   UNL     1      44.933   4.631   8.390  0.00  0.00    +0.000 OA
ATOM      9  C   UNL     1      45.310   3.510   8.708  0.00  0.00    +0.000 C 
ATOM     10  N   UNL     1      45.120   2.974   9.964  0.00  0.00    +0.000 N 
ATOM     11  H   UNL     1      45.641   2.152  10.238  0.00  0.00    +0.000 HD
BRANCH   9  12
ATOM     12  C   UNL     1      46.052   2.661   7.738  0.00  0.00    +0.000 A 
ATOM     13  C   UNL     1      46.375   3.193   6.484  0.00  0.00    +0.000 A 
ATOM     14  C   UNL     1      47.069   2.419   5.553  0.00  0.00    +0.000 A 
ATOM     15  C   UNL     1      47.431   1.109   5.866  0.00  0.00    +0.000 A 
ATOM     16  C   UNL     1      47.091   0.567   7.105  0.00  0.00    +0.000 A 
ATOM     17  C   UNL     1      46.400   1.338   8.042  0.00  0.00    +0.000 A 
ENDBRANCH   9  12
ENDBRANCH   7  10
ENDBRANCH   1   7
BRANCH   4  18
ATOM     18  C   UNL     1      48.303   6.838  13.969  0.00  0.00    +0.000 C 
BRANCH  18  19
ATOM     19  N   UNL     1      48.058   6.894  15.391  0.00  0.00    +0.000 N 
ATOM     20  C   UNL     1      49.013   6.596  16.325  0.00  0.00    +0.000 C 
ATOM     21  O   UNL     1      50.143   6.233  16.010  0.00  0.00    +0.000 OA
ATOM     22  H   UNL     1      47.084   6.970  15.666  0.00  0.00    +0.000 HD
BRANCH  20  23
ATOM     23  C   UNL     1      48.637   6.808  17.729  0.00  0.00    +0.000 A 
ATOM     24  C   UNL     1      48.262   8.076  18.157  0.00  0.00    +0.000 A 
ATOM     25  S   UNL     1      47.823   8.140  19.804  0.00  0.00    +0.000 S 
ATOM     26  C   UNL     1      48.156   6.485  20.014  0.00  0.00    +0.000 A 
ATOM     27  N   UNL     1      48.011   5.889  21.229  0.00  0.00    +0.000 NA
ATOM     28  C   UNL     1      48.329   4.638  21.251  0.00  0.00    +0.000 A 
ATOM     29  N   UNL     1      48.764   3.923  20.166  0.00  0.00    +0.000 N 
ATOM     30  C   UNL     1      48.871   4.468  18.906  0.00  0.00    +0.000 A 
ATOM     31  O   UNL     1      49.173   3.771  17.938  0.00  0.00    +0.000 OA
ATOM     32  C   UNL     1      48.570   5.886  18.840  0.00  0.00    +0.000 A 
ATOM     33  H   UNL     1      48.969   2.939  20.241  0.00  0.00    +0.000 HD
ENDBRANCH  20  23
ENDBRANCH  18  19
ENDBRANCH   4  18
TORSDOF 6
ENDMDL
MODEL 4
REMARK VINA RESULT:    -8.151      2.763      3.968
REMARK INTER + INTRA:         -12.074
REMARK INTER:                 -11.039
REMARK INTRA:                  -1.034
REMARK UNBOUND:                -1.063
REMARK  Name = 
REMARK  6 active torsions:
REMARK  status: ('A' for Active; 'I' for Inactive)
REMARK    1  A    between atoms: C_2  and  C_25
REMARK    2  A    between atoms: N_3  and  C_4
REMARK    3  A    between atoms: C_4  and  C_5
REMARK    4  A    between atoms: C_8  and  C_9
REMARK    5  A    between atoms: C_9  and  N_10
REMARK    6  A    between atoms: C_11  and  C_13
REMARK                            x       y       z     vdW  Elec       q    Type
REMARK                         _______ _______ _______ _____ _____    ______ ____
ROOT
ATOM      1  C   UNL     1      45.395   4.098  12.203  0.00  0.00    +0.000 A 
ATOM      2  C   UNL     1      46.084   3.493  13.256  0.00  0.00    +0.000 A 
ATOM      3  C   UNL     1      46.955   4.245  14.039  0.00  0.00    +0.000 A 
ATOM      4  C   UNL     1      47.145   5.589  13.733  0.00  0.00    +0.000 A 
ATOM      5  N   UNL     1      46.484   6.203  12.718  0.00  0.00    +0.000 NA
ATOM      6  C   UNL     1      45.628   5.452  11.987  0.00  0.00    +0.000 A 
ENDROOT
BRANCH   1   7
ATOM      7  C   UNL     1      44.468   3.319  11.320  0.00  0.00    +0.000 C 
BRANCH   7  10
ATOM      8  O   UNL     1      44.475   4.254   8.695  0.00  0.00    +0.000 OA
ATOM      9  C   UNL     1      45.113   3.243   8.960  0.00  0.00    +0.000 C 
ATOM     10  N   UNL     1      45.174   2.695  10.224  0.00  0.00    +0.000 N 
ATOM     11  H   UNL     1      45.884   2.006  10.434  0.00  0.00    +0.000 HD
BRANCH   9  12
ATOM     12  C   UNL     1      45.914   2.559   7.909  0.00  0.00    +0.000 A 
ATOM     13  C   UNL     1      46.229   3.258   6.739  0.00  0.00    +0.000 A 
ATOM     14  C   UNL     1      46.977   2.642   5.734  0.00  0.00    +0.000 A 
ATOM     15  C   UNL     1      47.400   1.323   5.890  0.00  0.00    +0.000 A 
ATOM     16  C   UNL     1      47.070   0.614   7.045  0.00  0.00    +0.000 A 
ATOM     17  C   UNL     1      46.324   1.227   8.055  0.00  0.00    +0.000 A 
ENDBRANCH   9  12
ENDBRANCH   7  10
ENDBRANCH   1   7
BRANCH   4  18
ATOM     18  C   UNL     1      48.122   6.420  14.532  0.00  0.00    +0.000 C 
BRANCH  18  19
ATOM     19  N   UNL     1      48.006   6.201  15.955  0.00  0.00    +0.000 N 
ATOM     20  C   UNL     1      49.080   5.925  16.758  0.00  0.00    +0.000 C 
ATOM     21  O   UNL     1      50.218   5.818  16.310  0.00  0.00    +0.000 OA
ATOM     22  H   UNL     1      47.063   6.062  16.303  0.00  0.00    +0.000 HD
BRANCH  20  23
ATOM     23  C   UNL     1      48.809   5.837  18.198  0.00  0.00    +0.000 A 
ATOM     24  C   UNL     1      49.081   4.657  18.880  0.00  0.00    +0.000 A 
ATOM     25  S   UNL     1      48.741   4.737  20.549  0.00  0.00    +0.000 S 
ATOM     26  C   UNL     1      48.181   6.337  20.415  0.00  0.00    +0.000 A 
ATOM     27  N   UNL     1      47.705   7.007  21.500  0.00  0.00    +0.000 NA
ATOM     28  C   UNL     1      47.284   8.201  21.247  0.00  0.00    +0.000 A 
ATOM     29  N   UNL     1      47.309   8.794  20.012  0.00  0.00    +0.000 N 
ATOM     30  C   UNL     1      47.834   8.177  18.898  0.00  0.00    +0.000 A 
ATOM     31  O   UNL     1      47.926   8.776  17.828  0.00  0.00    +0.000 OA
ATOM     32  C   UNL     1      48.277   6.814  19.122  0.00  0.00    +0.000 A 
ATOM     33  H   UNL     1      46.992   9.741  19.885  0.00  0.00    +0.000 HD
ENDBRANCH  20  23
ENDBRANCH  18  19
ENDBRANCH   4  18
TORSDOF 6
ENDMDL
MODEL 5
REMARK VINA RESULT:    -7.197      2.012      3.164
REMARK INTER + INTRA:         -10.785
REMARK INTER:                 -10.187
REMARK INTRA:                  -0.598
REMARK UNBOUND:                -1.063
REMARK  Name = 
REMARK  6 active torsions:
REMARK  status: ('A' for Active; 'I' for Inactive)
REMARK    1  A    between atoms: C_2  and  C_25
REMARK    2  A    between atoms: N_3  and  C_4
REMARK    3  A    between atoms: C_4  and  C_5
REMARK    4  A    between atoms: C_8  and  C_9
REMARK    5  A    between atoms: C_9  and  N_10
REMARK    6  A    between atoms: C_11  and  C_13
REMARK                            x       y       z     vdW  Elec       q    Type
REMARK                         _______ _______ _______ _____ _____    ______ ____
ROOT
ATOM      1  C   UNL     1      44.717   4.891  11.599  0.00  0.00    +0.000 A 
ATOM      2  C   UNL     1      43.994   5.701  12.478  0.00  0.00    +0.000 A 
ATOM      3  C   UNL     1      44.480   6.959  12.824  0.00  0.00    +0.000 A 
ATOM      4  C   UNL     1      45.704   7.373  12.305  0.00  0.00    +0.000 A 
ATOM      5  N   UNL     1      46.424   6.607  11.446  0.00  0.00    +0.000 NA
ATOM      6  C   UNL     1      45.917   5.398  11.112  0.00  0.00    +0.000 A 
ENDROOT
BRANCH   1   7
ATOM      7  C   UNL     1      44.242   3.521  11.221  0.00  0.00    +0.000 C 
BRANCH   7  10
ATOM      8  O   UNL     1      44.061   4.053   8.491  0.00  0.00    +0.000 OA
ATOM      9  C   UNL     1      44.911   3.261   8.881  0.00  0.00    +0.000 C 
ATOM     10  N   UNL     1      45.083   2.927  10.208  0.00  0.00    +0.000 N 
ATOM     11  H   UNL     1      45.930   2.454  10.495  0.00  0.00    +0.000 HD
BRANCH   9  12
ATOM     12  C   UNL     1      45.857   2.636   7.919  0.00  0.00    +0.000 A 
ATOM     13  C   UNL     1      46.285   3.380   6.813  0.00  0.00    +0.000 A 
ATOM     14  C   UNL     1      47.171   2.819   5.892  0.00  0.00    +0.000 A 
ATOM     15  C   UNL     1      47.621   1.511   6.065  0.00  0.00    +0.000 A 
ATOM     16  C   UNL     1      47.180   0.757   7.153  0.00  0.00    +0.000 A 
ATOM     17  C   UNL     1      46.296   1.316   8.080  0.00  0.00    +0.000 A 
ENDBRANCH   9  12
ENDBRANCH   7  10
ENDBRANCH   1   7
BRANCH   4  18
ATOM     18  C   UNL     1      46.283   8.711  12.701  0.00  0.00    +0.000 C 
BRANCH  18  19
ATOM     19  N   UNL     1      46.858   8.699  14.026  0.00  0.00    +0.000 N 
ATOM     20  C   UNL     1      48.165   8.370  14.269  0.00  0.00    +0.000 C 
ATOM     21  O   UNL     1      48.931   8.035  13.370  0.00  0.00    +0.000 OA
ATOM     22  H   UNL     1      46.196   8.751  14.793  0.00  0.00    +0.000 HD
BRANCH  20  23
ATOM     23  C   UNL     1      48.623   8.512  15.657  0.00  0.00    +0.000 A 
ATOM     24  C   UNL     1      48.775   9.781  16.205  0.00  0.00    +0.000 A 
ATOM     25  S   UNL     1      49.280   9.766  17.834  0.00  0.00    +0.000 S 
ATOM     26  C   UNL     1      49.351   8.067  17.855  0.00  0.00    +0.000 A 
ATOM     27  N   UNL     1      49.749   7.395  18.969  0.00  0.00    +0.000 NA
ATOM     28  C   UNL     1      49.786   6.112  18.834  0.00  0.00    +0.000 A 
ATOM     29  N   UNL     1      49.446   5.436  17.692  0.00  0.00    +0.000 N 
ATOM     30  C   UNL     1      48.984   6.069  16.559  0.00  0.00    +0.000 A 
ATOM     31  O   UNL     1      48.599   5.422  15.586  0.00  0.00    +0.000 OA
ATOM     32  C   UNL     1      48.969   7.517  16.646  0.00  0.00    +0.000 A 
ATOM     33  H   UNL     1      49.469   4.429  17.658  0.00  0.00    +0.000 HD
ENDBRANCH  20  23
ENDBRANCH  18  19
ENDBRANCH   4  18
TORSDOF 6
ENDMDL
MODEL 6
REMARK VINA RESULT:    -7.098      4.849      7.397
REMARK INTER + INTRA:         -10.651
REMARK INTER:                  -9.694
REMARK INTRA:                  -0.957
REMARK UNBOUND:                -1.063
REMARK  Name = 
REMARK  6 active torsions:
REMARK  status: ('A' for Active; 'I' for Inactive)
REMARK    1  A    between atoms: C_2  and  C_25
REMARK    2  A    between atoms: N_3  and  C_4
REMARK    3  A    between atoms: C_4  and  C_5
REMARK    4  A    between atoms: C_8  and  C_9
REMARK    5  A    between atoms: C_9  and  N_10
REMARK    6  A    between atoms: C_11  and  C_13
REMARK                            x       y       z     vdW  Elec       q    Type
REMARK                         _______ _______ _______ _____ _____    ______ ____
ROOT
ATOM      1  C   UNL     1      44.860   9.174  11.939  0.00  0.00    +0.000 A 
ATOM      2  C   UNL     1      44.323   8.023  11.360  0.00  0.00    +0.000 A 
ATOM      3  C   UNL     1      44.802   6.769  11.730  0.00  0.00    +0.000 A 
ATOM      4  C   UNL     1      45.838   6.693  12.657  0.00  0.00    +0.000 A 
ATOM      5  N   UNL     1      46.375   7.796  13.238  0.00  0.00    +0.000 NA
ATOM      6  C   UNL     1      45.875   8.999  12.874  0.00  0.00    +0.000 A 
ENDROOT
BRANCH   1   7
ATOM      7  C   UNL     1      44.390  10.543  11.549  0.00  0.00    +0.000 C 
BRANCH   7  10
ATOM      8  O   UNL     1      42.093  10.578   9.972  0.00  0.00    +0.000 OA
ATOM      9  C   UNL     1      41.985  10.799  11.173  0.00  0.00    +0.000 C 
ATOM     10  N   UNL     1      43.057  10.808  12.040  0.00  0.00    +0.000 N 
ATOM     11  H   UNL     1      42.890  10.769  13.036  0.00  0.00    +0.000 HD
BRANCH   9  12
ATOM     12  C   UNL     1      40.647  11.032  11.780  0.00  0.00    +0.000 A 
ATOM     13  C   UNL     1      40.521  11.999  12.783  0.00  0.00    +0.000 A 
ATOM     14  C   UNL     1      39.278  12.238  13.373  0.00  0.00    +0.000 A 
ATOM     15  C   UNL     1      38.163  11.504  12.971  0.00  0.00    +0.000 A 
ATOM     16  C   UNL     1      38.289  10.524  11.987  0.00  0.00    +0.000 A 
ATOM     17  C   UNL     1      39.529  10.283  11.391  0.00  0.00    +0.000 A 
ENDBRANCH   9  12
ENDBRANCH   7  10
ENDBRANCH   1   7
BRANCH   4  18
ATOM     18  C   UNL     1      46.415   5.351  13.042  0.00  0.00    +0.000 C 
BRANCH  18  19
ATOM     19  N   UNL     1      46.893   5.319  14.404  0.00  0.00    +0.000 N 
ATOM     20  C   UNL     1      47.357   4.180  15.007  0.00  0.00    +0.000 C 
ATOM     21  O   UNL     1      47.372   3.097  14.429  0.00  0.00    +0.000 OA
ATOM     22  H   UNL     1      46.681   6.139  14.963  0.00  0.00    +0.000 HD
BRANCH  20  23
ATOM     23  C   UNL     1      47.908   4.339  16.358  0.00  0.00    +0.000 A 
ATOM     24  C   UNL     1      47.523   3.463  17.367  0.00  0.00    +0.000 A 
ATOM     25  S   UNL     1      48.282   3.766  18.863  0.00  0.00    +0.000 S 
ATOM     26  C   UNL     1      49.122   5.102  18.229  0.00  0.00    +0.000 A 
ATOM     27  N   UNL     1      49.949   5.847  19.013  0.00  0.00    +0.000 NA
ATOM     28  C   UNL     1      50.497   6.848  18.411  0.00  0.00    +0.000 A 
ATOM     29  N   UNL     1      50.307   7.166  17.091  0.00  0.00    +0.000 N 
ATOM     30  C   UNL     1      49.525   6.410  16.246  0.00  0.00    +0.000 A 
ATOM     31  O   UNL     1      49.455   6.671  15.046  0.00  0.00    +0.000 OA
ATOM     32  C   UNL     1      48.850   5.299  16.889  0.00  0.00    +0.000 A 
ATOM     33  H   UNL     1      50.786   7.946  16.670  0.00  0.00    +0.000 HD
ENDBRANCH  20  23
ENDBRANCH  18  19
ENDBRANCH   4  18
TORSDOF 6
ENDMDL
MODEL 7
REMARK VINA RESULT:    -7.093      4.159      9.162
REMARK INTER + INTRA:         -10.645
REMARK INTER:                  -9.616
REMARK INTRA:                  -1.028
REMARK UNBOUND:                -1.063
REMARK  Name = 
REMARK  6 active torsions:
REMARK  status: ('A' for Active; 'I' for Inactive)
REMARK    1  A    between atoms: C_2  and  C_25
REMARK    2  A    between atoms: N_3  and  C_4
REMARK    3  A    between atoms: C_4  and  C_5
REMARK    4  A    between atoms: C_8  and  C_9
REMARK    5  A    between atoms: C_9  and  N_10
REMARK    6  A    between atoms: C_11  and  C_13
REMARK                            x       y       z     vdW  Elec       q    Type
REMARK                         _______ _______ _______ _____ _____    ______ ____
ROOT
ATOM      1  C   UNL     1      49.517   5.675  17.080  0.00  0.00    +0.000 A 
ATOM      2  C   UNL     1      50.245   6.731  16.528  0.00  0.00    +0.000 A 
ATOM      3  C   UNL     1      49.880   7.254  15.289  0.00  0.00    +0.000 A 
ATOM      4  C   UNL     1      48.806   6.687  14.610  0.00  0.00    +0.000 A 
ATOM      5  N   UNL     1      48.079   5.663  15.127  0.00  0.00    +0.000 NA
ATOM      6  C   UNL     1      48.444   5.189  16.341  0.00  0.00    +0.000 A 
ENDROOT
BRANCH   1   7
ATOM      7  C   UNL     1      49.892   5.067  18.398  0.00  0.00    +0.000 C 
BRANCH   7  10
ATOM      8  O   UNL     1      50.001   2.394  17.617  0.00  0.00    +0.000 OA
ATOM      9  C   UNL     1      51.046   2.968  17.898  0.00  0.00    +0.000 C 
ATOM     10  N   UNL     1      51.103   4.286  18.298  0.00  0.00    +0.000 N 
ATOM     11  H   UNL     1      51.993   4.767  18.297  0.00  0.00    +0.000 HD
BRANCH   9  12
ATOM     12  C   UNL     1      52.350   2.261  17.777  0.00  0.00    +0.000 A 
ATOM     13  C   UNL     1      53.531   2.982  17.989  0.00  0.00    +0.000 A 
ATOM     14  C   UNL     1      54.769   2.346  17.880  0.00  0.00    +0.000 A 
ATOM     15  C   UNL     1      54.830   0.994  17.547  0.00  0.00    +0.000 A 
ATOM     16  C   UNL     1      53.657   0.276  17.312  0.00  0.00    +0.000 A 
ATOM     17  C   UNL     1      52.416   0.907  17.423  0.00  0.00    +0.000 A 
ENDBRANCH   9  12
ENDBRANCH   7  10
ENDBRANCH   1   7
BRANCH   4  18
ATOM     18  C   UNL     1      48.417   7.198  13.243  0.00  0.00    +0.000 C 
BRANCH  18  19
ATOM     19  N   UNL     1      47.563   6.280  12.526  0.00  0.00    +0.000 N 
ATOM     20  C   UNL     1      46.464   6.683  11.816  0.00  0.00    +0.000 C 
ATOM     21  O   UNL     1      46.117   7.859  11.762  0.00  0.00    +0.000 OA
ATOM     22  H   UNL     1      47.697   5.297  12.740  0.00  0.00    +0.000 HD
BRANCH  20  23
ATOM     23  C   UNL     1      45.765   5.639  11.055  0.00  0.00    +0.000 A 
ATOM     24  C   UNL     1      45.827   5.640   9.666  0.00  0.00    +0.000 A 
ATOM     25  S   UNL     1      44.990   4.342   8.943  0.00  0.00    +0.000 S 
ATOM     26  C   UNL     1      44.481   3.755  10.455  0.00  0.00    +0.000 A 
ATOM     27  N   UNL     1      43.688   2.653  10.549  0.00  0.00    +0.000 NA
ATOM     28  C   UNL     1      43.352   2.338  11.754  0.00  0.00    +0.000 A 
ATOM     29  N   UNL     1      43.749   3.014  12.878  0.00  0.00    +0.000 N 
ATOM     30  C   UNL     1      44.597   4.099  12.838  0.00  0.00    +0.000 A 
ATOM     31  O   UNL     1      45.006   4.621  13.873  0.00  0.00    +0.000 OA
ATOM     32  C   UNL     1      44.965   4.520  11.499  0.00  0.00    +0.000 A 
ATOM     33  H   UNL     1      43.476   2.701  13.796  0.00  0.00    +0.000 HD
ENDBRANCH  20  23
ENDBRANCH  18  19
ENDBRANCH   4  18
TORSDOF 6
ENDMDL
MODEL 8
REMARK VINA RESULT:    -7.072      2.800      3.659
REMARK INTER + INTRA:         -10.616
REMARK INTER:                  -9.562
REMARK INTRA:                  -1.055
REMARK UNBOUND:                -1.063
REMARK  Name = 
REMARK  6 active torsions:
REMARK  status: ('A' for Active; 'I' for Inactive)
REMARK    1  A    between atoms: C_2  and  C_25
REMARK    2  A    between atoms: N_3  and  C_4
REMARK    3  A    between atoms: C_4  and  C_5
REMARK    4  A    between atoms: C_8  and  C_9
REMARK    5  A    between atoms: C_9  and  N_10
REMARK    6  A    between atoms: C_11  and  C_13
REMARK                            x       y       z     vdW  Elec       q    Type
REMARK                         _______ _______ _______ _____ _____    ______ ____
ROOT
ATOM      1  C   UNL     1      44.940   5.948  11.316  0.00  0.00    +0.000 A 
ATOM      2  C   UNL     1      45.990   5.491  12.115  0.00  0.00    +0.000 A 
ATOM      3  C   UNL     1      46.692   6.385  12.919  0.00  0.00    +0.000 A 
ATOM      4  C   UNL     1      46.347   7.733  12.886  0.00  0.00    +0.000 A 
ATOM      5  N   UNL     1      45.327   8.203  12.121  0.00  0.00    +0.000 NA
ATOM      6  C   UNL     1      44.651   7.307  11.366  0.00  0.00    +0.000 A 
ENDROOT
BRANCH   1   7
ATOM      7  C   UNL     1      44.177   5.023  10.417  0.00  0.00    +0.000 C 
BRANCH   7  10
ATOM      8  O   UNL     1      44.304   2.318   9.757  0.00  0.00    +0.000 OA
ATOM      9  C   UNL     1      45.007   3.108   9.139  0.00  0.00    +0.000 C 
ATOM     10  N   UNL     1      45.022   4.464   9.387  0.00  0.00    +0.000 N 
ATOM     11  H   UNL     1      45.440   5.088   8.709  0.00  0.00    +0.000 HD
BRANCH   9  12
ATOM     12  C   UNL     1      45.873   2.634   8.026  0.00  0.00    +0.000 A 
ATOM     13  C   UNL     1      46.102   3.486   6.939  0.00  0.00    +0.000 A 
ATOM     14  C   UNL     1      46.909   3.067   5.879  0.00  0.00    +0.000 A 
ATOM     15  C   UNL     1      47.477   1.794   5.896  0.00  0.00    +0.000 A 
ATOM     16  C   UNL     1      47.233   0.933   6.966  0.00  0.00    +0.000 A 
ATOM     17  C   UNL     1      46.429   1.348   8.031  0.00  0.00    +0.000 A 
ENDBRANCH   9  12
ENDBRANCH   7  10
ENDBRANCH   1   7
BRANCH   4  18
ATOM     18  C   UNL     1      47.121   8.736  13.708  0.00  0.00    +0.000 C 
BRANCH  18  19
ATOM     19  N   UNL     1      48.454   8.964  13.200  0.00  0.00    +0.000 N 
ATOM     20  C   UNL     1      48.797  10.075  12.477  0.00  0.00    +0.000 C 
ATOM     21  O   UNL     1      47.979  10.944  12.190  0.00  0.00    +0.000 OA
ATOM     22  H   UNL     1      49.078   8.165  13.230  0.00  0.00    +0.000 HD
BRANCH  20  23
ATOM     23  C   UNL     1      50.217  10.209  12.127  0.00  0.00    +0.000 A 
ATOM     24  C   UNL     1      50.855  11.432  12.296  0.00  0.00    +0.000 A 
ATOM     25  S   UNL     1      52.508  11.405  11.875  0.00  0.00    +0.000 S 
ATOM     26  C   UNL     1      52.421   9.770  11.415  0.00  0.00    +0.000 A 
ATOM     27  N   UNL     1      53.511   9.121  10.923  0.00  0.00    +0.000 NA
ATOM     28  C   UNL     1      53.294   7.894  10.584  0.00  0.00    +0.000 A 
ATOM     29  N   UNL     1      52.091   7.250  10.707  0.00  0.00    +0.000 N 
ATOM     30  C   UNL     1      50.976   7.848  11.252  0.00  0.00    +0.000 A 
ATOM     31  O   UNL     1      49.941   7.209  11.433  0.00  0.00    +0.000 OA
ATOM     32  C   UNL     1      51.157   9.244  11.605  0.00  0.00    +0.000 A 
ATOM     33  H   UNL     1      51.992   6.281  10.451  0.00  0.00    +0.000 HD
ENDBRANCH  20  23
ENDBRANCH  18  19
ENDBRANCH   4  18
TORSDOF 6
ENDMDL
MODEL 9
REMARK VINA RESULT:    -6.591      4.134     10.228
REMARK INTER + INTRA:          -9.966
REMARK INTER:                  -9.018
REMARK INTRA:                  -0.948
REMARK UNBOUND:                -1.063
REMARK  Name = 
REMARK  6 active torsions:
REMARK  status: ('A' for Active; 'I' for Inactive)
REMARK    1  A    between atoms: C_2  and  C_25
REMARK    2  A    between atoms: N_3  and  C_4
REMARK    3  A    between atoms: C_4  and  C_5
REMARK    4  A    between atoms: C_8  and  C_9
REMARK    5  A    between atoms: C_9  and  N_10
REMARK    6  A    between atoms: C_11  and  C_13
REMARK                            x       y       z     vdW  Elec       q    Type
REMARK                         _______ _______ _______ _____ _____    ______ ____
ROOT
ATOM      1  C   UNL     1      48.924   6.376  19.108  0.00  0.00    +0.000 A 
ATOM      2  C   UNL     1      47.642   5.824  19.093  0.00  0.00    +0.000 A 
ATOM      3  C   UNL     1      47.279   4.937  18.082  0.00  0.00    +0.000 A 
ATOM      4  C   UNL     1      48.202   4.642  17.083  0.00  0.00    +0.000 A 
ATOM      5  N   UNL     1      49.457   5.162  17.078  0.00  0.00    +0.000 NA
ATOM      6  C   UNL     1      49.788   6.004  18.083  0.00  0.00    +0.000 A 
ENDROOT
BRANCH   1   7
ATOM      7  C   UNL     1      49.346   7.353  20.163  0.00  0.00    +0.000 C 
BRANCH   7  10
ATOM      8  O   UNL     1      49.133   9.774  18.799  0.00  0.00    +0.000 OA
ATOM      9  C   UNL     1      48.311   9.516  19.670  0.00  0.00    +0.000 C 
ATOM     10  N   UNL     1      48.327   8.349  20.405  0.00  0.00    +0.000 N 
ATOM     11  H   UNL     1      47.510   8.088  20.940  0.00  0.00    +0.000 HD
BRANCH   9  12
ATOM     12  C   UNL     1      47.195  10.456  19.955  0.00  0.00    +0.000 A 
ATOM     13  C   UNL     1      47.144  11.673  19.265  0.00  0.00    +0.000 A 
ATOM     14  C   UNL     1      46.109  12.577  19.514  0.00  0.00    +0.000 A 
ATOM     15  C   UNL     1      45.131  12.273  20.460  0.00  0.00    +0.000 A 
ATOM     16  C   UNL     1      45.190  11.072  21.167  0.00  0.00    +0.000 A 
ATOM     17  C   UNL     1      46.221  10.163  20.919  0.00  0.00    +0.000 A 
ENDBRANCH   9  12
ENDBRANCH   7  10
ENDBRANCH   1   7
BRANCH   4  18
ATOM     18  C   UNL     1      47.823   3.724  15.945  0.00  0.00    +0.000 C 
BRANCH  18  19
ATOM     19  N   UNL     1      46.898   4.336  15.019  0.00  0.00    +0.000 N 
ATOM     20  C   UNL     1      47.274   5.286  14.108  0.00  0.00    +0.000 C 
ATOM     21  O   UNL     1      48.428   5.701  14.037  0.00  0.00    +0.000 OA
ATOM     22  H   UNL     1      45.915   4.176  15.210  0.00  0.00    +0.000 HD
BRANCH  20  23
ATOM     23  C   UNL     1      46.238   5.728  13.167  0.00  0.00    +0.000 A 
ATOM     24  C   UNL     1      46.090   7.083  12.892  0.00  0.00    +0.000 A 
ATOM     25  S   UNL     1      44.866   7.420  11.753  0.00  0.00    +0.000 S 
ATOM     26  C   UNL     1      44.463   5.774  11.616  0.00  0.00    +0.000 A 
ATOM     27  N   UNL     1      43.451   5.364  10.803  0.00  0.00    +0.000 NA
ATOM     28  C   UNL     1      43.234   4.092  10.820  0.00  0.00    +0.000 A 
ATOM     29  N   UNL     1      43.946   3.188  11.563  0.00  0.00    +0.000 N 
ATOM     30  C   UNL     1      45.014   3.547  12.354  0.00  0.00    +0.000 A 
ATOM     31  O   UNL     1      45.689   2.695  12.932  0.00  0.00    +0.000 OA
ATOM     32  C   UNL     1      45.268   4.974  12.405  0.00  0.00    +0.000 A 
ATOM     33  H   UNL     1      43.746   2.201  11.511  0.00  0.00    +0.000 HD
ENDBRANCH  20  23
ENDBRANCH  18  19
ENDBRANCH   4  18
TORSDOF 6
ENDMDL
