MODEL 1
REMARK VINA RESULT:    -6.314      0.000      0.000
REMARK INTER + INTRA:         -10.069
REMARK INTER:                  -8.898
REMARK INTRA:                  -1.171
REMARK UNBOUND:                -1.171
REMARK  Name = 
REMARK  8 active torsions:
REMARK  status: ('A' for Active; 'I' for Inactive)
REMARK    1  A    between atoms: C_1  and  C_2
REMARK    2  A    between atoms: C_2  and  O_3
REMARK    3  A    between atoms: O_3  and  C_4
REMARK    4  A    between atoms: C_6  and  C_7
REMARK    5  A    between atoms: C_11  and  N_12
REMARK    6  A    between atoms: N_12  and  C_13
REMARK    7  A    between atoms: C_13  and  C_14
REMARK    8  A    between atoms: C_18  and  C_19
REMARK                            x       y       z     vdW  Elec       q    Type
REMARK                         _______ _______ _______ _____ _____    ______ ____
ROOT
ATOM      1  C   UNL     1      47.080   7.761  13.188  0.00  0.00    +0.000 C 
ATOM      2  C   UNL     1      48.372   6.991  12.992  0.00  0.00    +0.000 C 
ATOM      3  C   UNL     1      48.133   7.708  14.280  0.00  0.00    +0.000 C 
ENDROOT
BRANCH   1   4
ATOM      4  C   UNL     1      46.869   9.112  12.514  0.00  0.00    +0.000 A 
ATOM      5  C   UNL     1      47.914   9.880  11.990  0.00  0.00    +0.000 A 
ATOM      6  C   UNL     1      47.651  11.041  11.263  0.00  0.00    +0.000 A 
ATOM      7  C   UNL     1      46.332  11.432  11.010  0.00  0.00    +0.000 A 
ATOM      8  C   UNL     1      45.246  10.701  11.513  0.00  0.00    +0.000 A 
ATOM      9  C   UNL     1      45.557   9.584  12.309  0.00  0.00    +0.000 A 
BRANCH   8  10
ATOM     10  C   UNL     1      43.841  11.010  11.158  0.00  0.00    +0.000 A 
ATOM     11  C   UNL     1      42.916  10.034  10.762  0.00  0.00    +0.000 A 
ATOM     12  C   UNL     1      41.582  10.373  10.521  0.00  0.00    +0.000 A 
ATOM     13  C   UNL     1      41.197  11.693  10.662  0.00  0.00    +0.000 A 
ATOM     14  N   UNL     1      42.041  12.676  11.019  0.00  0.00    +0.000 NA
ATOM     15  C   UNL     1      43.324  12.311  11.260  0.00  0.00    +0.000 A 
ENDBRANCH   8  10
ENDBRANCH   1   4
BRANCH   1  16
ATOM     16  N   UNL     1      45.855   6.930  13.236  0.00  0.00    +0.000 N 
ATOM     17  H   UNL     1      45.575   6.632  14.169  0.00  0.00    +0.000 HD
BRANCH  16  23
ATOM     18  C   UNL     1      45.581   4.536  12.905  0.00  0.00    +0.000 A 
ATOM     19  C   UNL     1      45.245   3.472  12.067  0.00  0.00    +0.000 A 
ATOM     20  C   UNL     1      45.045   3.711  10.708  0.00  0.00    +0.000 A 
ATOM     21  C   UNL     1      45.187   5.006  10.239  0.00  0.00    +0.000 A 
ATOM     22  N   UNL     1      45.477   6.059  11.029  0.00  0.00    +0.000 NA
ATOM     23  C   UNL     1      45.670   5.834  12.352  0.00  0.00    +0.000 A 
BRANCH  20  24
ATOM     24  C   UNL     1      44.693   2.651   9.815  0.00  0.00    +0.000 C 
ATOM     25  N   UNL     1      44.425   1.788   9.093  0.00  0.00    +0.000 NA
ENDBRANCH  20  24
BRANCH  18  26
ATOM     26  O   UNL     1      45.850   4.412  14.247  0.00  0.00    +0.000 OA
BRANCH  26  28
ATOM     27  C   UNL     1      47.367   4.188  16.083  0.00  0.00    +0.000 C 
ATOM     28  C   UNL     1      47.136   3.901  14.610  0.00  0.00    +0.000 C 
ENDBRANCH  26  28
ENDBRANCH  18  26
ENDBRANCH  16  23
ENDBRANCH   1  16
TORSDOF 7
ENDMDL
MODEL 2
REMARK VINA RESULT:    -6.161      3.178      6.463
REMARK INTER + INTRA:          -9.853
REMARK INTER:                  -8.643
REMARK INTRA:                  -1.210
REMARK UNBOUND:                -1.171
REMARK  Name = 
REMARK  8 active torsions:
REMARK  status: ('A' for Active; 'I' for Inactive)
REMARK    1  A    between atoms: C_1  and  C_2
REMARK    2  A    between atoms: C_2  and  O_3
REMARK    3  A    between atoms: O_3  and  C_4
REMARK    4  A    between atoms: C_6  and  C_7
REMARK    5  A    between atoms: C_11  and  N_12
REMARK    6  A    between atoms: N_12  and  C_13
REMARK    7  A    between atoms: C_13  and  C_14
REMARK    8  A    between atoms: C_18  and  C_19
REMARK                            x       y       z     vdW  Elec       q    Type
REMARK                         _______ _______ _______ _____ _____    ______ ____
ROOT
ATOM      1  C   UNL     1      49.230   7.802  12.609  0.00  0.00    +0.000 C 
ATOM      2  C   UNL     1      50.129   7.640  11.397  0.00  0.00    +0.000 C 
ATOM      3  C   UNL     1      49.851   9.009  11.929  0.00  0.00    +0.000 C 
ENDROOT
BRANCH   1   4
ATOM      4  C   UNL     1      47.718   7.655  12.482  0.00  0.00    +0.000 A 
ATOM      5  C   UNL     1      46.814   8.635  12.902  0.00  0.00    +0.000 A 
ATOM      6  C   UNL     1      45.450   8.508  12.638  0.00  0.00    +0.000 A 
ATOM      7  C   UNL     1      44.971   7.414  11.907  0.00  0.00    +0.000 A 
ATOM      8  C   UNL     1      45.834   6.401  11.463  0.00  0.00    +0.000 A 
ATOM      9  C   UNL     1      47.187   6.528  11.823  0.00  0.00    +0.000 A 
BRANCH   8  10
ATOM     10  C   UNL     1      45.385   5.299  10.579  0.00  0.00    +0.000 A 
ATOM     11  C   UNL     1      45.759   5.195   9.233  0.00  0.00    +0.000 A 
ATOM     12  C   UNL     1      45.374   4.089   8.471  0.00  0.00    +0.000 A 
ATOM     13  C   UNL     1      44.600   3.110   9.066  0.00  0.00    +0.000 A 
ATOM     14  N   UNL     1      44.195   3.163  10.346  0.00  0.00    +0.000 NA
ATOM     15  C   UNL     1      44.598   4.242  11.062  0.00  0.00    +0.000 A 
ENDBRANCH   8  10
ENDBRANCH   1   4
BRANCH   1  16
ATOM     16  N   UNL     1      49.772   7.246  13.870  0.00  0.00    +0.000 N 
ATOM     17  H   UNL     1      49.857   6.231  13.890  0.00  0.00    +0.000 HD
BRANCH  16  23
ATOM     18  C   UNL     1      48.876   6.680  16.060  0.00  0.00    +0.000 A 
ATOM     19  C   UNL     1      48.544   7.073  17.357  0.00  0.00    +0.000 A 
ATOM     20  C   UNL     1      48.586   8.425  17.692  0.00  0.00    +0.000 A 
ATOM     21  C   UNL     1      48.961   9.334  16.718  0.00  0.00    +0.000 A 
ATOM     22  N   UNL     1      49.320   8.983  15.468  0.00  0.00    +0.000 NA
ATOM     23  C   UNL     1      49.285   7.669  15.136  0.00  0.00    +0.000 A 
BRANCH  20  24
ATOM     24  C   UNL     1      48.258   8.869  19.012  0.00  0.00    +0.000 C 
ATOM     25  N   UNL     1      47.977   9.230  20.074  0.00  0.00    +0.000 NA
ENDBRANCH  20  24
BRANCH  18  26
ATOM     26  O   UNL     1      48.822   5.385  15.602  0.00  0.00    +0.000 OA
BRANCH  26  28
ATOM     27  C   UNL     1      46.791   4.527  14.675  0.00  0.00    +0.000 C 
ATOM     28  C   UNL     1      47.651   4.629  15.922  0.00  0.00    +0.000 C 
ENDBRANCH  26  28
ENDBRANCH  18  26
ENDBRANCH  16  23
ENDBRANCH   1  16
TORSDOF 7
ENDMDL
MODEL 3
REMARK VINA RESULT:    -6.009      2.537      7.233
REMARK INTER + INTRA:          -9.639
REMARK INTER:                  -8.565
REMARK INTRA:                  -1.073
REMARK UNBOUND:                -1.171
REMARK  Name = 
REMARK  8 active torsions:
REMARK  status: ('A' for Active; 'I' for Inactive)
REMARK    1  A    between atoms: C_1  and  C_2
REMARK    2  A    between atoms: C_2  and  O_3
REMARK    3  A    between atoms: O_3  and  C_4
REMARK    4  A    between atoms: C_6  and  C_7
REMARK    5  A    between atoms: C_11  and  N_12
REMARK    6  A    between atoms: N_12  and  C_13
REMARK    7  A    between atoms: C_13  and  C_14
REMARK    8  A    between atoms: C_18  and  C_19
REMARK                            x       y       z     vdW  Elec       q    Type
REMARK                         _______ _______ _______ _____ _____    ______ ____
ROOT
ATOM      1  C   UNL     1      44.023   6.561  11.782  0.00  0.00    +0.000 C 
ATOM      2  C   UNL     1      43.967   7.584  10.663  0.00  0.00    +0.000 C 
ATOM      3  C   UNL     1      42.727   7.270  11.435  0.00  0.00    +0.000 C 
ENDROOT
BRANCH   1   4
ATOM      4  C   UNL     1      44.085   5.069  11.470  0.00  0.00    +0.000 A 
ATOM      5  C   UNL     1      43.292   4.117  12.117  0.00  0.00    +0.000 A 
ATOM      6  C   UNL     1      43.291   2.786  11.698  0.00  0.00    +0.000 A 
ATOM      7  C   UNL     1      44.053   2.393  10.592  0.00  0.00    +0.000 A 
ATOM      8  C   UNL     1      44.868   3.307   9.908  0.00  0.00    +0.000 A 
ATOM      9  C   UNL     1      44.902   4.618  10.414  0.00  0.00    +0.000 A 
BRANCH   8  10
ATOM     10  C   UNL     1      45.585   2.958   8.659  0.00  0.00    +0.000 A 
ATOM     11  C   UNL     1      45.920   3.900   7.677  0.00  0.00    +0.000 A 
ATOM     12  C   UNL     1      46.671   3.528   6.559  0.00  0.00    +0.000 A 
ATOM     13  C   UNL     1      47.061   2.208   6.431  0.00  0.00    +0.000 A 
ATOM     14  N   UNL     1      46.754   1.255   7.329  0.00  0.00    +0.000 NA
ATOM     15  C   UNL     1      46.037   1.653   8.409  0.00  0.00    +0.000 A 
ENDBRANCH   8  10
ENDBRANCH   1   4
BRANCH   1  16
ATOM     16  N   UNL     1      44.845   6.953  12.949  0.00  0.00    +0.000 N 
ATOM     17  H   UNL     1      44.324   7.358  13.725  0.00  0.00    +0.000 HD
BRANCH  16  23
ATOM     18  C   UNL     1      47.239   6.988  12.519  0.00  0.00    +0.000 A 
ATOM     19  C   UNL     1      48.391   7.712  12.211  0.00  0.00    +0.000 A 
ATOM     20  C   UNL     1      48.344   9.105  12.219  0.00  0.00    +0.000 A 
ATOM     21  C   UNL     1      47.146   9.721  12.535  0.00  0.00    +0.000 A 
ATOM     22  N   UNL     1      46.008   9.051  12.803  0.00  0.00    +0.000 NA
ATOM     23  C   UNL     1      46.046   7.695  12.793  0.00  0.00    +0.000 A 
BRANCH  20  24
ATOM     24  C   UNL     1      49.500   9.886  11.904  0.00  0.00    +0.000 C 
ATOM     25  N   UNL     1      50.436  10.521  11.665  0.00  0.00    +0.000 NA
ENDBRANCH  20  24
BRANCH  18  26
ATOM     26  O   UNL     1      47.180   5.617  12.590  0.00  0.00    +0.000 OA
BRANCH  26  28
ATOM     27  C   UNL     1      46.868   3.563  13.777  0.00  0.00    +0.000 C 
ATOM     28  C   UNL     1      47.254   5.027  13.891  0.00  0.00    +0.000 C 
ENDBRANCH  26  28
ENDBRANCH  18  26
ENDBRANCH  16  23
ENDBRANCH   1  16
TORSDOF 7
ENDMDL
MODEL 4
REMARK VINA RESULT:    -5.864      2.606      6.941
REMARK INTER + INTRA:          -9.435
REMARK INTER:                  -8.709
REMARK INTRA:                  -0.726
REMARK UNBOUND:                -1.171
REMARK  Name = 
REMARK  8 active torsions:
REMARK  status: ('A' for Active; 'I' for Inactive)
REMARK    1  A    between atoms: C_1  and  C_2
REMARK    2  A    between atoms: C_2  and  O_3
REMARK    3  A    between atoms: O_3  and  C_4
REMARK    4  A    between atoms: C_6  and  C_7
REMARK    5  A    between atoms: C_11  and  N_12
REMARK    6  A    between atoms: N_12  and  C_13
REMARK    7  A    between atoms: C_13  and  C_14
REMARK    8  A    between atoms: C_18  and  C_19
REMARK                            x       y       z     vdW  Elec       q    Type
REMARK                         _______ _______ _______ _____ _____    ______ ____
ROOT
ATOM      1  C   UNL     1      45.783   7.932  11.891  0.00  0.00    +0.000 C 
ATOM      2  C   UNL     1      45.458   9.237  11.189  0.00  0.00    +0.000 C 
ATOM      3  C   UNL     1      45.011   9.030  12.600  0.00  0.00    +0.000 C 
ENDROOT
BRANCH   1   4
ATOM      4  C   UNL     1      45.009   6.660  11.566  0.00  0.00    +0.000 A 
ATOM      5  C   UNL     1      43.706   6.419  12.013  0.00  0.00    +0.000 A 
ATOM      6  C   UNL     1      42.996   5.301  11.573  0.00  0.00    +0.000 A 
ATOM      7  C   UNL     1      43.564   4.426  10.641  0.00  0.00    +0.000 A 
ATOM      8  C   UNL     1      44.869   4.617  10.162  0.00  0.00    +0.000 A 
ATOM      9  C   UNL     1      45.577   5.709  10.694  0.00  0.00    +0.000 A 
BRANCH   8  10
ATOM     10  C   UNL     1      45.454   3.788   9.082  0.00  0.00    +0.000 A 
ATOM     11  C   UNL     1      46.080   4.330   7.952  0.00  0.00    +0.000 A 
ATOM     12  C   UNL     1      46.689   3.499   7.008  0.00  0.00    +0.000 A 
ATOM     13  C   UNL     1      46.643   2.130   7.201  0.00  0.00    +0.000 A 
ATOM     14  N   UNL     1      46.041   1.551   8.254  0.00  0.00    +0.000 NA
ATOM     15  C   UNL     1      45.474   2.387   9.159  0.00  0.00    +0.000 A 
ENDBRANCH   8  10
ENDBRANCH   1   4
BRANCH   1  16
ATOM     16  N   UNL     1      47.224   7.697  12.142  0.00  0.00    +0.000 N 
ATOM     17  H   UNL     1      47.608   6.869  11.690  0.00  0.00    +0.000 HD
BRANCH  16  23
ATOM     18  C   UNL     1      48.106   6.571  14.109  0.00  0.00    +0.000 A 
ATOM     19  C   UNL     1      48.785   6.640  15.326  0.00  0.00    +0.000 A 
ATOM     20  C   UNL     1      49.076   7.888  15.875  0.00  0.00    +0.000 A 
ATOM     21  C   UNL     1      48.679   9.020  15.185  0.00  0.00    +0.000 A 
ATOM     22  N   UNL     1      48.053   8.987  13.992  0.00  0.00    +0.000 NA
ATOM     23  C   UNL     1      47.770   7.776  13.450  0.00  0.00    +0.000 A 
BRANCH  20  24
ATOM     24  C   UNL     1      49.774   8.004  17.118  0.00  0.00    +0.000 C 
ATOM     25  N   UNL     1      50.351   8.106  18.115  0.00  0.00    +0.000 NA
ENDBRANCH  20  24
BRANCH  18  26
ATOM     26  O   UNL     1      47.723   5.401  13.499  0.00  0.00    +0.000 OA
BRANCH  26  28
ATOM     27  C   UNL     1      46.398   3.420  13.284  0.00  0.00    +0.000 C 
ATOM     28  C   UNL     1      46.718   4.622  14.155  0.00  0.00    +0.000 C 
ENDBRANCH  26  28
ENDBRANCH  18  26
ENDBRANCH  16  23
ENDBRANCH   1  16
TORSDOF 7
ENDMDL
MODEL 5
REMARK VINA RESULT:    -5.797      3.143      6.720
REMARK INTER + INTRA:          -9.340
REMARK INTER:                  -8.716
REMARK INTRA:                  -0.624
REMARK UNBOUND:                -1.171
REMARK  Name = 
REMARK  8 active torsions:
REMARK  status: ('A' for Active; 'I' for Inactive)
REMARK    1  A    between atoms: C_1  and  C_2
REMARK    2  A    between atoms: C_2  and  O_3
REMARK    3  A    between atoms: O_3  and  C_4
REMARK    4  A    between atoms: C_6  and  C_7
REMARK    5  A    between atoms: C_11  and  N_12
REMARK    6  A    between atoms: N_12  and  C_13
REMARK    7  A    between atoms: C_13  and  C_14
REMARK    8  A    between atoms: C_18  and  C_19
REMARK                            x       y       z     vdW  Elec       q    Type
REMARK                         _______ _______ _______ _____ _____    ______ ____
ROOT
ATOM      1  C   UNL     1      46.313   7.471  12.334  0.00  0.00    +0.000 C 
ATOM      2  C   UNL     1      46.335   8.907  11.844  0.00  0.00    +0.000 C 
ATOM      3  C   UNL     1      45.687   8.585  13.151  0.00  0.00    +0.000 C 
ENDROOT
BRANCH   1   4
ATOM      4  C   UNL     1      45.352   6.455  11.724  0.00  0.00    +0.000 A 
ATOM      5  C   UNL     1      43.970   6.486  11.932  0.00  0.00    +0.000 A 
ATOM      6  C   UNL     1      43.125   5.617  11.241  0.00  0.00    +0.000 A 
ATOM      7  C   UNL     1      43.648   4.728  10.295  0.00  0.00    +0.000 A 
ATOM      8  C   UNL     1      45.026   4.653  10.049  0.00  0.00    +0.000 A 
ATOM      9  C   UNL     1      45.848   5.489  10.826  0.00  0.00    +0.000 A 
BRANCH   8  10
ATOM     10  C   UNL     1      45.601   3.819   8.967  0.00  0.00    +0.000 A 
ATOM     11  C   UNL     1      45.626   2.419   9.007  0.00  0.00    +0.000 A 
ATOM     12  C   UNL     1      46.104   1.683   7.919  0.00  0.00    +0.000 A 
ATOM     13  C   UNL     1      46.571   2.365   6.811  0.00  0.00    +0.000 A 
ATOM     14  N   UNL     1      46.591   3.706   6.721  0.00  0.00    +0.000 NA
ATOM     15  C   UNL     1      46.106   4.389   7.788  0.00  0.00    +0.000 A 
ENDBRANCH   8  10
ENDBRANCH   1   4
BRANCH   1  16
ATOM     16  N   UNL     1      47.639   6.901  12.666  0.00  0.00    +0.000 N 
ATOM     17  H   UNL     1      48.078   6.370  11.915  0.00  0.00    +0.000 HD
BRANCH  16  23
ATOM     18  C   UNL     1      48.656   6.826  14.874  0.00  0.00    +0.000 A 
ATOM     19  C   UNL     1      48.753   6.224  16.129  0.00  0.00    +0.000 A 
ATOM     20  C   UNL     1      48.101   5.014  16.358  0.00  0.00    +0.000 A 
ATOM     21  C   UNL     1      47.373   4.453  15.324  0.00  0.00    +0.000 A 
ATOM     22  N   UNL     1      47.231   5.025  14.112  0.00  0.00    +0.000 NA
ATOM     23  C   UNL     1      47.861   6.204  13.884  0.00  0.00    +0.000 A 
BRANCH  20  24
ATOM     24  C   UNL     1      48.170   4.367  17.631  0.00  0.00    +0.000 C 
ATOM     25  N   UNL     1      48.241   3.852  18.664  0.00  0.00    +0.000 NA
ENDBRANCH  20  24
BRANCH  18  26
ATOM     26  O   UNL     1      49.295   7.990  14.519  0.00  0.00    +0.000 OA
BRANCH  26  28
ATOM     27  C   UNL     1      48.889  10.311  14.104  0.00  0.00    +0.000 C 
ATOM     28  C   UNL     1      48.842   9.198  15.136  0.00  0.00    +0.000 C 
ENDBRANCH  26  28
ENDBRANCH  18  26
ENDBRANCH  16  23
ENDBRANCH   1  16
TORSDOF 7
ENDMDL
MODEL 6
REMARK VINA RESULT:    -5.715      3.733      8.316
REMARK INTER + INTRA:          -9.225
REMARK INTER:                  -7.971
REMARK INTRA:                  -1.254
REMARK UNBOUND:                -1.171
REMARK  Name = 
REMARK  8 active torsions:
REMARK  status: ('A' for Active; 'I' for Inactive)
REMARK    1  A    between atoms: C_1  and  C_2
REMARK    2  A    between atoms: C_2  and  O_3
REMARK    3  A    between atoms: O_3  and  C_4
REMARK    4  A    between atoms: C_6  and  C_7
REMARK    5  A    between atoms: C_11  and  N_12
REMARK    6  A    between atoms: N_12  and  C_13
REMARK    7  A    between atoms: C_13  and  C_14
REMARK    8  A    between atoms: C_18  and  C_19
REMARK                            x       y       z     vdW  Elec       q    Type
REMARK                         _______ _______ _______ _____ _____    ______ ____
ROOT
ATOM      1  C   UNL     1      49.099   7.481  15.251  0.00  0.00    +0.000 C 
ATOM      2  C   UNL     1      48.192   8.695  15.170  0.00  0.00    +0.000 C 
ATOM      3  C   UNL     1      49.671   8.873  15.053  0.00  0.00    +0.000 C 
ENDROOT
BRANCH   1   4
ATOM      4  C   UNL     1      49.387   6.813  16.591  0.00  0.00    +0.000 A 
ATOM      5  C   UNL     1      48.716   7.142  17.772  0.00  0.00    +0.000 A 
ATOM      6  C   UNL     1      48.923   6.405  18.939  0.00  0.00    +0.000 A 
ATOM      7  C   UNL     1      49.776   5.296  18.932  0.00  0.00    +0.000 A 
ATOM      8  C   UNL     1      50.477   4.924  17.776  0.00  0.00    +0.000 A 
ATOM      9  C   UNL     1      50.302   5.742  16.646  0.00  0.00    +0.000 A 
BRANCH   8  10
ATOM     10  C   UNL     1      51.286   3.685  17.696  0.00  0.00    +0.000 A 
ATOM     11  C   UNL     1      52.639   3.626  18.056  0.00  0.00    +0.000 A 
ATOM     12  C   UNL     1      53.328   2.410  18.040  0.00  0.00    +0.000 A 
ATOM     13  C   UNL     1      52.654   1.271  17.643  0.00  0.00    +0.000 A 
ATOM     14  N   UNL     1      51.363   1.267  17.268  0.00  0.00    +0.000 NA
ATOM     15  C   UNL     1      50.720   2.460  17.309  0.00  0.00    +0.000 A 
ENDBRANCH   8  10
ENDBRANCH   1   4
BRANCH   1  16
ATOM     16  N   UNL     1      48.962   6.521  14.132  0.00  0.00    +0.000 N 
ATOM     17  H   UNL     1      49.629   6.648  13.373  0.00  0.00    +0.000 HD
BRANCH  16  23
ATOM     18  C   UNL     1      46.952   5.151  14.095  0.00  0.00    +0.000 A 
ATOM     19  C   UNL     1      45.646   4.951  13.646  0.00  0.00    +0.000 A 
ATOM     20  C   UNL     1      45.127   5.788  12.661  0.00  0.00    +0.000 A 
ATOM     21  C   UNL     1      45.934   6.796  12.162  0.00  0.00    +0.000 A 
ATOM     22  N   UNL     1      47.186   7.037  12.598  0.00  0.00    +0.000 NA
ATOM     23  C   UNL     1      47.696   6.227  13.559  0.00  0.00    +0.000 A 
BRANCH  20  24
ATOM     24  C   UNL     1      43.791   5.621  12.177  0.00  0.00    +0.000 C 
ATOM     25  N   UNL     1      42.707   5.501  11.794  0.00  0.00    +0.000 NA
ENDBRANCH  20  24
BRANCH  18  26
ATOM     26  O   UNL     1      47.585   4.359  15.023  0.00  0.00    +0.000 OA
BRANCH  26  28
ATOM     27  C   UNL     1      47.485   2.990  16.983  0.00  0.00    +0.000 C 
ATOM     28  C   UNL     1      46.979   4.256  16.314  0.00  0.00    +0.000 C 
ENDBRANCH  26  28
ENDBRANCH  18  26
ENDBRANCH  16  23
ENDBRANCH   1  16
TORSDOF 7
ENDMDL
MODEL 7
REMARK VINA RESULT:    -5.563      3.064      6.225
REMARK INTER + INTRA:          -9.010
REMARK INTER:                  -8.220
REMARK INTRA:                  -0.791
REMARK UNBOUND:                -1.171
REMARK  Name = 
REMARK  8 active torsions:
REMARK  status: ('A' for Active; 'I' for Inactive)
REMARK    1  A    between atoms: C_1  and  C_2
REMARK    2  A    between atoms: C_2  and  O_3
REMARK    3  A    between atoms: O_3  and  C_4
REMARK    4  A    between atoms: C_6  and  C_7
REMARK    5  A    between atoms: C_11  and  N_12
REMARK    6  A    between atoms: N_12  and  C_13
REMARK    7  A    between atoms: C_13  and  C_14
REMARK    8  A    between atoms: C_18  and  C_19
REMARK                            x       y       z     vdW  Elec       q    Type
REMARK                         _______ _______ _______ _____ _____    ______ ____
ROOT
ATOM      1  C   UNL     1      48.431   7.947  12.781  0.00  0.00    +0.000 C 
ATOM      2  C   UNL     1      49.565   7.168  12.140  0.00  0.00    +0.000 C 
ATOM      3  C   UNL     1      49.356   8.601  11.772  0.00  0.00    +0.000 C 
ENDROOT
BRANCH   1   4
ATOM      4  C   UNL     1      46.989   7.729  12.338  0.00  0.00    +0.000 A 
ATOM      5  C   UNL     1      46.008   8.723  12.401  0.00  0.00    +0.000 A 
ATOM      6  C   UNL     1      44.741   8.511  11.855  0.00  0.00    +0.000 A 
ATOM      7  C   UNL     1      44.448   7.312  11.197  0.00  0.00    +0.000 A 
ATOM      8  C   UNL     1      45.393   6.279  11.108  0.00  0.00    +0.000 A 
ATOM      9  C   UNL     1      46.628   6.504  11.742  0.00  0.00    +0.000 A 
BRANCH   8  10
ATOM     10  C   UNL     1      45.163   5.052  10.310  0.00  0.00    +0.000 A 
ATOM     11  C   UNL     1      45.625   4.892   8.996  0.00  0.00    +0.000 A 
ATOM     12  C   UNL     1      45.452   3.680   8.323  0.00  0.00    +0.000 A 
ATOM     13  C   UNL     1      44.798   2.649   8.971  0.00  0.00    +0.000 A 
ATOM     14  N   UNL     1      44.316   2.748  10.221  0.00  0.00    +0.000 NA
ATOM     15  C   UNL     1      44.514   3.932  10.852  0.00  0.00    +0.000 A 
ENDBRANCH   8  10
ENDBRANCH   1   4
BRANCH   1  16
ATOM     16  N   UNL     1      48.571   8.174  14.238  0.00  0.00    +0.000 N 
ATOM     17  H   UNL     1      49.282   8.854  14.501  0.00  0.00    +0.000 HD
BRANCH  16  23
ATOM     18  C   UNL     1      49.209   7.326  16.427  0.00  0.00    +0.000 A 
ATOM     19  C   UNL     1      49.147   6.313  17.385  0.00  0.00    +0.000 A 
ATOM     20  C   UNL     1      48.568   5.090  17.049  0.00  0.00    +0.000 A 
ATOM     21  C   UNL     1      48.073   4.927  15.767  0.00  0.00    +0.000 A 
ATOM     22  N   UNL     1      48.087   5.895  14.830  0.00  0.00    +0.000 NA
ATOM     23  C   UNL     1      48.645   7.089  15.152  0.00  0.00    +0.000 A 
BRANCH  20  24
ATOM     24  C   UNL     1      48.479   4.028  18.002  0.00  0.00    +0.000 C 
ATOM     25  N   UNL     1      48.390   3.169  18.771  0.00  0.00    +0.000 NA
ENDBRANCH  20  24
BRANCH  18  26
ATOM     26  O   UNL     1      49.799   8.550  16.629  0.00  0.00    +0.000 OA
BRANCH  26  28
ATOM     27  C   UNL     1      48.479  10.479  17.141  0.00  0.00    +0.000 C 
ATOM     28  C   UNL     1      49.306   9.341  17.714  0.00  0.00    +0.000 C 
ENDBRANCH  26  28
ENDBRANCH  18  26
ENDBRANCH  16  23
ENDBRANCH   1  16
TORSDOF 7
ENDMDL
MODEL 8
REMARK VINA RESULT:    -5.543      3.671      8.759
REMARK INTER + INTRA:          -8.981
REMARK INTER:                  -7.822
REMARK INTRA:                  -1.160
REMARK UNBOUND:                -1.171
REMARK  Name = 
REMARK  8 active torsions:
REMARK  status: ('A' for Active; 'I' for Inactive)
REMARK    1  A    between atoms: C_1  and  C_2
REMARK    2  A    between atoms: C_2  and  O_3
REMARK    3  A    between atoms: O_3  and  C_4
REMARK    4  A    between atoms: C_6  and  C_7
REMARK    5  A    between atoms: C_11  and  N_12
REMARK    6  A    between atoms: N_12  and  C_13
REMARK    7  A    between atoms: C_13  and  C_14
REMARK    8  A    between atoms: C_18  and  C_19
REMARK                            x       y       z     vdW  Elec       q    Type
REMARK                         _______ _______ _______ _____ _____    ______ ____
ROOT
ATOM      1  C   UNL     1      49.281   7.525  15.802  0.00  0.00    +0.000 C 
ATOM      2  C   UNL     1      48.477   8.810  15.863  0.00  0.00    +0.000 C 
ATOM      3  C   UNL     1      49.946   8.849  16.129  0.00  0.00    +0.000 C 
ENDROOT
BRANCH   1   4
ATOM      4  C   UNL     1      49.207   6.505  16.933  0.00  0.00    +0.000 A 
ATOM      5  C   UNL     1      48.151   6.450  17.848  0.00  0.00    +0.000 A 
ATOM      6  C   UNL     1      48.066   5.412  18.777  0.00  0.00    +0.000 A 
ATOM      7  C   UNL     1      49.015   4.384  18.777  0.00  0.00    +0.000 A 
ATOM      8  C   UNL     1      50.096   4.391  17.883  0.00  0.00    +0.000 A 
ATOM      9  C   UNL     1      50.188   5.497  17.020  0.00  0.00    +0.000 A 
BRANCH   8  10
ATOM     10  C   UNL     1      51.044   3.258  17.767  0.00  0.00    +0.000 A 
ATOM     11  C   UNL     1      52.398   3.351  18.116  0.00  0.00    +0.000 A 
ATOM     12  C   UNL     1      53.225   2.226  18.066  0.00  0.00    +0.000 A 
ATOM     13  C   UNL     1      52.687   1.024  17.645  0.00  0.00    +0.000 A 
ATOM     14  N   UNL     1      51.402   0.877  17.279  0.00  0.00    +0.000 NA
ATOM     15  C   UNL     1      50.622   1.984  17.354  0.00  0.00    +0.000 A 
ENDBRANCH   8  10
ENDBRANCH   1   4
BRANCH   1  16
ATOM     16  N   UNL     1      49.376   6.908  14.459  0.00  0.00    +0.000 N 
ATOM     17  H   UNL     1      50.000   7.384  13.810  0.00  0.00    +0.000 HD
BRANCH  16  23
ATOM     18  C   UNL     1      47.872   7.241  12.576  0.00  0.00    +0.000 A 
ATOM     19  C   UNL     1      46.827   6.772  11.779  0.00  0.00    +0.000 A 
ATOM     20  C   UNL     1      46.129   5.631  12.170  0.00  0.00    +0.000 A 
ATOM     21  C   UNL     1      46.504   5.000  13.344  0.00  0.00    +0.000 A 
ATOM     22  N   UNL     1      47.529   5.408  14.117  0.00  0.00    +0.000 NA
ATOM     23  C   UNL     1      48.214   6.516  13.741  0.00  0.00    +0.000 A 
BRANCH  20  24
ATOM     24  C   UNL     1      45.056   5.113  11.379  0.00  0.00    +0.000 C 
ATOM     25  N   UNL     1      44.177   4.701  10.751  0.00  0.00    +0.000 NA
ENDBRANCH  20  24
BRANCH  18  26
ATOM     26  O   UNL     1      48.595   8.381  12.318  0.00  0.00    +0.000 OA
BRANCH  26  28
ATOM     27  C   UNL     1      48.668  10.592  11.406  0.00  0.00    +0.000 C 
ATOM     28  C   UNL     1      47.870   9.612  12.248  0.00  0.00    +0.000 C 
ENDBRANCH  26  28
ENDBRANCH  18  26
ENDBRANCH  16  23
ENDBRANCH   1  16
TORSDOF 7
ENDMDL
MODEL 9
REMARK VINA RESULT:    -5.502      2.892      6.376
REMARK INTER + INTRA:          -8.924
REMARK INTER:                  -8.302
REMARK INTRA:                  -0.622
REMARK UNBOUND:                -1.171
REMARK  Name = 
REMARK  8 active torsions:
REMARK  status: ('A' for Active; 'I' for Inactive)
REMARK    1  A    between atoms: C_1  and  C_2
REMARK    2  A    between atoms: C_2  and  O_3
REMARK    3  A    between atoms: O_3  and  C_4
REMARK    4  A    between atoms: C_6  and  C_7
REMARK    5  A    between atoms: C_11  and  N_12
REMARK    6  A    between atoms: N_12  and  C_13
REMARK    7  A    between atoms: C_13  and  C_14
REMARK    8  A    between atoms: C_18  and  C_19
REMARK                            x       y       z     vdW  Elec       q    Type
REMARK                         _______ _______ _______ _____ _____    ______ ____
ROOT
ATOM      1  C   UNL     1      48.085   7.578  13.471  0.00  0.00    +0.000 C 
ATOM      2  C   UNL     1      49.265   6.844  12.863  0.00  0.00    +0.000 C 
ATOM      3  C   UNL     1      49.172   8.329  12.723  0.00  0.00    +0.000 C 
ENDROOT
BRANCH   1   4
ATOM      4  C   UNL     1      46.713   7.532  12.808  0.00  0.00    +0.000 A 
ATOM      5  C   UNL     1      45.868   8.642  12.714  0.00  0.00    +0.000 A 
ATOM      6  C   UNL     1      44.685   8.578  11.977  0.00  0.00    +0.000 A 
ATOM      7  C   UNL     1      44.348   7.410  11.283  0.00  0.00    +0.000 A 
ATOM      8  C   UNL     1      45.157   6.266  11.345  0.00  0.00    +0.000 A 
ATOM      9  C   UNL     1      46.297   6.349  12.165  0.00  0.00    +0.000 A 
BRANCH   8  10
ATOM     10  C   UNL     1      44.901   5.060  10.523  0.00  0.00    +0.000 A 
ATOM     11  C   UNL     1      45.445   4.871   9.246  0.00  0.00    +0.000 A 
ATOM     12  C   UNL     1      45.237   3.676   8.552  0.00  0.00    +0.000 A 
ATOM     13  C   UNL     1      44.467   2.692   9.143  0.00  0.00    +0.000 A 
ATOM     14  N   UNL     1      43.903   2.821  10.356  0.00  0.00    +0.000 NA
ATOM     15  C   UNL     1      44.137   3.987  11.009  0.00  0.00    +0.000 A 
ENDBRANCH   8  10
ENDBRANCH   1   4
BRANCH   1  16
ATOM     16  N   UNL     1      48.025   7.551  14.951  0.00  0.00    +0.000 N 
ATOM     17  H   UNL     1      47.751   8.430  15.386  0.00  0.00    +0.000 HD
BRANCH  16  23
ATOM     18  C   UNL     1      48.839   5.754  16.373  0.00  0.00    +0.000 A 
ATOM     19  C   UNL     1      49.907   5.116  17.006  0.00  0.00    +0.000 A 
ATOM     20  C   UNL     1      51.160   5.727  17.013  0.00  0.00    +0.000 A 
ATOM     21  C   UNL     1      51.298   6.953  16.386  0.00  0.00    +0.000 A 
ATOM     22  N   UNL     1      50.295   7.578  15.738  0.00  0.00    +0.000 NA
ATOM     23  C   UNL     1      49.075   6.987  15.724  0.00  0.00    +0.000 A 
BRANCH  20  24
ATOM     24  C   UNL     1      52.282   5.105  17.644  0.00  0.00    +0.000 C 
ATOM     25  N   UNL     1      53.182   4.587  18.153  0.00  0.00    +0.000 NA
ENDBRANCH  20  24
BRANCH  18  26
ATOM     26  O   UNL     1      47.553   5.272  16.346  0.00  0.00    +0.000 OA
BRANCH  26  28
ATOM     27  C   UNL     1      47.060   3.937  14.423  0.00  0.00    +0.000 C 
ATOM     28  C   UNL     1      47.371   3.922  15.909  0.00  0.00    +0.000 C 
ENDBRANCH  26  28
ENDBRANCH  18  26
ENDBRANCH  16  23
ENDBRANCH   1  16
TORSDOF 7
ENDMDL
