MODEL 1
REMARK VINA RESULT:    -7.415      0.000      0.000
REMARK INTER + INTRA:          -9.922
REMARK INTER:                  -9.149
REMARK INTRA:                  -0.773
REMARK UNBOUND:                -0.773
REMARK  Name = 
REMARK  4 active torsions:
REMARK  status: ('A' for Active; 'I' for Inactive)
REMARK    1  A    between atoms: C_5  and  N_6
REMARK    2  A    between atoms: N_6  and  C_7
REMARK    3  A    between atoms: C_7  and  C_8
REMARK    4  A    between atoms: C_12  and  N_13
REMARK                            x       y       z     vdW  Elec       q    Type
REMARK                         _______ _______ _______ _____ _____    ______ ____
ROOT
ATOM      1  C   UNL     1      43.756   4.795  11.484  0.00  0.00    +0.000 C 
ATOM      2  C   UNL     1      42.445   5.305  12.079  0.00  0.00    +0.000 C 
ATOM      3  C   UNL     1      43.141   6.116  11.041  0.00  0.00    +0.000 C 
ENDROOT
BRANCH   1   4
ATOM      4  C   UNL     1      44.989   4.872  12.390  0.00  0.00    +0.000 A 
ATOM      5  C   UNL     1      45.581   3.716  12.918  0.00  0.00    +0.000 A 
ATOM      6  C   UNL     1      46.812   3.771  13.562  0.00  0.00    +0.000 A 
ATOM      7  C   UNL     1      47.486   4.987  13.667  0.00  0.00    +0.000 A 
ATOM      8  C   UNL     1      46.926   6.182  13.195  0.00  0.00    +0.000 A 
ATOM      9  C   UNL     1      45.650   6.102  12.621  0.00  0.00    +0.000 A 
BRANCH   8  10
ATOM     10  N   UNL     1      47.640   7.368  13.261  0.00  0.00    +0.000 N 
ATOM     11  C   UNL     1      46.987   8.671  13.394  0.00  0.00    +0.000 C 
ATOM     12  C   UNL     1      47.139   9.501  12.121  0.00  0.00    +0.000 C 
ATOM     13  C   UNL     1      48.601   9.587  11.689  0.00  0.00    +0.000 C 
ATOM     14  C   UNL     1      49.191   8.189  11.531  0.00  0.00    +0.000 C 
ATOM     15  C   UNL     1      49.038   7.369  12.813  0.00  0.00    +0.000 C 
ENDBRANCH   8  10
ENDBRANCH   1   4
BRANCH   1  16
ATOM     16  N   UNL     1      43.688   3.618  10.601  0.00  0.00    +0.000 N 
ATOM     17  H   UNL     1      43.519   2.716  11.042  0.00  0.00    +0.000 HD
BRANCH  16  22
ATOM     18 CL   UNL     1      47.501   2.677   6.304  0.00  0.00    +0.000 Cl
ATOM     19  C   UNL     1      46.359   2.944   7.550  0.00  0.00    +0.000 A 
ATOM     20  C   UNL     1      45.889   1.920   8.352  0.00  0.00    +0.000 A 
ATOM     21  N   UNL     1      45.003   2.126   9.365  0.00  0.00    +0.000 NA
ATOM     22  C   UNL     1      44.600   3.401   9.555  0.00  0.00    +0.000 A 
ATOM     23  C   UNL     1      45.067   4.411   8.706  0.00  0.00    +0.000 A 
ATOM     24  N   UNL     1      45.959   4.213   7.702  0.00  0.00    +0.000 NA
ENDBRANCH  16  22
ENDBRANCH   1  16
TORSDOF 4
ENDMDL
MODEL 2
REMARK VINA RESULT:    -7.208      2.090      3.544
REMARK INTER + INTRA:          -9.667
REMARK INTER:                  -9.227
REMARK INTRA:                  -0.439
REMARK UNBOUND:                -0.773
REMARK  Name = 
REMARK  4 active torsions:
REMARK  status: ('A' for Active; 'I' for Inactive)
REMARK    1  A    between atoms: C_5  and  N_6
REMARK    2  A    between atoms: N_6  and  C_7
REMARK    3  A    between atoms: C_7  and  C_8
REMARK    4  A    between atoms: C_12  and  N_13
REMARK                            x       y       z     vdW  Elec       q    Type
REMARK                         _______ _______ _______ _____ _____    ______ ____
ROOT
ATOM      1  C   UNL     1      44.499   4.686  12.086  0.00  0.00    +0.000 C 
ATOM      2  C   UNL     1      43.246   4.958  12.916  0.00  0.00    +0.000 C 
ATOM      3  C   UNL     1      43.518   5.790  11.711  0.00  0.00    +0.000 C 
ENDROOT
BRANCH   1   4
ATOM      4  C   UNL     1      45.831   5.122  12.704  0.00  0.00    +0.000 A 
ATOM      5  C   UNL     1      46.618   6.119  12.112  0.00  0.00    +0.000 A 
ATOM      6  C   UNL     1      47.714   6.658  12.779  0.00  0.00    +0.000 A 
ATOM      7  C   UNL     1      48.025   6.222  14.066  0.00  0.00    +0.000 A 
ATOM      8  C   UNL     1      47.299   5.200  14.693  0.00  0.00    +0.000 A 
ATOM      9  C   UNL     1      46.251   4.626  13.961  0.00  0.00    +0.000 A 
BRANCH   8  10
ATOM     10  N   UNL     1      47.594   4.823  15.993  0.00  0.00    +0.000 N 
ATOM     11  C   UNL     1      48.519   5.579  16.839  0.00  0.00    +0.000 C 
ATOM     12  C   UNL     1      49.805   4.795  17.096  0.00  0.00    +0.000 C 
ATOM     13  C   UNL     1      49.502   3.392  17.616  0.00  0.00    +0.000 C 
ATOM     14  C   UNL     1      48.570   2.659  16.656  0.00  0.00    +0.000 C 
ATOM     15  C   UNL     1      47.284   3.451  16.412  0.00  0.00    +0.000 C 
ENDBRANCH   8  10
ENDBRANCH   1   4
BRANCH   1  16
ATOM     16  N   UNL     1      44.538   3.439  11.303  0.00  0.00    +0.000 N 
ATOM     17  H   UNL     1      44.848   2.598  11.786  0.00  0.00    +0.000 HD
BRANCH  16  22
ATOM     18 CL   UNL     1      46.710   3.141   5.911  0.00  0.00    +0.000 Cl
ATOM     19  C   UNL     1      46.046   3.222   7.485  0.00  0.00    +0.000 A 
ATOM     20  C   UNL     1      45.795   2.090   8.240  0.00  0.00    +0.000 A 
ATOM     21  N   UNL     1      45.293   2.144   9.504  0.00  0.00    +0.000 NA
ATOM     22  C   UNL     1      45.053   3.378   9.998  0.00  0.00    +0.000 A 
ATOM     23  C   UNL     1      45.285   4.503   9.199  0.00  0.00    +0.000 A 
ATOM     24  N   UNL     1      45.795   4.456   7.942  0.00  0.00    +0.000 NA
ENDBRANCH  16  22
ENDBRANCH   1  16
TORSDOF 4
ENDMDL
MODEL 3
REMARK VINA RESULT:    -7.194      3.095      6.738
REMARK INTER + INTRA:          -9.650
REMARK INTER:                  -8.978
REMARK INTRA:                  -0.672
REMARK UNBOUND:                -0.773
REMARK  Name = 
REMARK  4 active torsions:
REMARK  status: ('A' for Active; 'I' for Inactive)
REMARK    1  A    between atoms: C_5  and  N_6
REMARK    2  A    between atoms: N_6  and  C_7
REMARK    3  A    between atoms: C_7  and  C_8
REMARK    4  A    between atoms: C_12  and  N_13
REMARK                            x       y       z     vdW  Elec       q    Type
REMARK                         _______ _______ _______ _____ _____    ______ ____
ROOT
ATOM      1  C   UNL     1      46.367   6.640  12.657  0.00  0.00    +0.000 C 
ATOM      2  C   UNL     1      46.478   7.890  11.787  0.00  0.00    +0.000 C 
ATOM      3  C   UNL     1      45.911   8.003  13.159  0.00  0.00    +0.000 C 
ENDROOT
BRANCH   1   4
ATOM      4  C   UNL     1      45.273   5.639  12.273  0.00  0.00    +0.000 A 
ATOM      5  C   UNL     1      44.063   5.575  12.979  0.00  0.00    +0.000 A 
ATOM      6  C   UNL     1      42.995   4.819  12.505  0.00  0.00    +0.000 A 
ATOM      7  C   UNL     1      43.115   4.132  11.298  0.00  0.00    +0.000 A 
ATOM      8  C   UNL     1      44.312   4.126  10.569  0.00  0.00    +0.000 A 
ATOM      9  C   UNL     1      45.391   4.834  11.115  0.00  0.00    +0.000 A 
BRANCH   8  10
ATOM     10  N   UNL     1      44.388   3.481   9.345  0.00  0.00    +0.000 N 
ATOM     11  C   UNL     1      44.458   2.024   9.229  0.00  0.00    +0.000 C 
ATOM     12  C   UNL     1      45.828   1.571   8.728  0.00  0.00    +0.000 C 
ATOM     13  C   UNL     1      46.221   2.310   7.451  0.00  0.00    +0.000 C 
ATOM     14  C   UNL     1      46.165   3.818   7.671  0.00  0.00    +0.000 C 
ATOM     15  C   UNL     1      44.786   4.260   8.167  0.00  0.00    +0.000 C 
ENDBRANCH   8  10
ENDBRANCH   1   4
BRANCH   1  16
ATOM     16  N   UNL     1      47.619   6.051  13.163  0.00  0.00    +0.000 N 
ATOM     17  H   UNL     1      48.152   5.468  12.519  0.00  0.00    +0.000 HD
BRANCH  16  22
ATOM     18 CL   UNL     1      48.104   3.617  18.428  0.00  0.00    +0.000 Cl
ATOM     19  C   UNL     1      47.942   4.351  16.891  0.00  0.00    +0.000 A 
ATOM     20  C   UNL     1      48.602   5.521  16.560  0.00  0.00    +0.000 A 
ATOM     21  N   UNL     1      48.503   6.098  15.331  0.00  0.00    +0.000 NA
ATOM     22  C   UNL     1      47.721   5.460  14.433  0.00  0.00    +0.000 A 
ATOM     23  C   UNL     1      47.040   4.297  14.808  0.00  0.00    +0.000 A 
ATOM     24  N   UNL     1      47.143   3.711  16.029  0.00  0.00    +0.000 NA
ENDBRANCH  16  22
ENDBRANCH   1  16
TORSDOF 4
ENDMDL
MODEL 4
REMARK VINA RESULT:    -7.078      1.798      2.622
REMARK INTER + INTRA:          -9.507
REMARK INTER:                  -9.220
REMARK INTRA:                  -0.287
REMARK UNBOUND:                -0.773
REMARK  Name = 
REMARK  4 active torsions:
REMARK  status: ('A' for Active; 'I' for Inactive)
REMARK    1  A    between atoms: C_5  and  N_6
REMARK    2  A    between atoms: N_6  and  C_7
REMARK    3  A    between atoms: C_7  and  C_8
REMARK    4  A    between atoms: C_12  and  N_13
REMARK                            x       y       z     vdW  Elec       q    Type
REMARK                         _______ _______ _______ _____ _____    ______ ____
ROOT
ATOM      1  C   UNL     1      43.765   5.304  11.289  0.00  0.00    +0.000 C 
ATOM      2  C   UNL     1      43.352   4.186  12.244  0.00  0.00    +0.000 C 
ATOM      3  C   UNL     1      42.477   5.383  12.098  0.00  0.00    +0.000 C 
ENDROOT
BRANCH   1   4
ATOM      4  C   UNL     1      44.927   6.193  11.745  0.00  0.00    +0.000 A 
ATOM      5  C   UNL     1      46.221   5.678  11.903  0.00  0.00    +0.000 A 
ATOM      6  C   UNL     1      47.308   6.520  12.111  0.00  0.00    +0.000 A 
ATOM      7  C   UNL     1      47.118   7.901  12.140  0.00  0.00    +0.000 A 
ATOM      8  C   UNL     1      45.843   8.473  12.027  0.00  0.00    +0.000 A 
ATOM      9  C   UNL     1      44.762   7.590  11.897  0.00  0.00    +0.000 A 
BRANCH   8  10
ATOM     10  N   UNL     1      45.688   9.849  12.003  0.00  0.00    +0.000 N 
ATOM     11  C   UNL     1      44.456  10.493  11.545  0.00  0.00    +0.000 C 
ATOM     12  C   UNL     1      44.671  11.226  10.222  0.00  0.00    +0.000 C 
ATOM     13  C   UNL     1      45.866  12.172  10.303  0.00  0.00    +0.000 C 
ATOM     14  C   UNL     1      47.115  11.415  10.744  0.00  0.00    +0.000 C 
ATOM     15  C   UNL     1      46.889  10.690  12.072  0.00  0.00    +0.000 C 
ENDBRANCH   8  10
ENDBRANCH   1   4
BRANCH   1  16
ATOM     16  N   UNL     1      43.710   5.018   9.845  0.00  0.00    +0.000 N 
ATOM     17  H   UNL     1      42.788   4.901   9.429  0.00  0.00    +0.000 HD
BRANCH  16  22
ATOM     18 CL   UNL     1      47.242   1.216   7.208  0.00  0.00    +0.000 Cl
ATOM     19  C   UNL     1      46.225   2.340   8.001  0.00  0.00    +0.000 A 
ATOM     20  C   UNL     1      46.286   3.698   7.745  0.00  0.00    +0.000 A 
ATOM     21  N   UNL     1      45.462   4.598   8.349  0.00  0.00    +0.000 NA
ATOM     22  C   UNL     1      44.564   4.093   9.222  0.00  0.00    +0.000 A 
ATOM     23  C   UNL     1      44.549   2.719   9.486  0.00  0.00    +0.000 A 
ATOM     24  N   UNL     1      45.361   1.815   8.879  0.00  0.00    +0.000 NA
ENDBRANCH  16  22
ENDBRANCH   1  16
TORSDOF 4
ENDMDL
MODEL 5
REMARK VINA RESULT:    -7.037      1.920      3.249
REMARK INTER + INTRA:          -9.455
REMARK INTER:                  -8.828
REMARK INTRA:                  -0.627
REMARK UNBOUND:                -0.773
REMARK  Name = 
REMARK  4 active torsions:
REMARK  status: ('A' for Active; 'I' for Inactive)
REMARK    1  A    between atoms: C_5  and  N_6
REMARK    2  A    between atoms: N_6  and  C_7
REMARK    3  A    between atoms: C_7  and  C_8
REMARK    4  A    between atoms: C_12  and  N_13
REMARK                            x       y       z     vdW  Elec       q    Type
REMARK                         _______ _______ _______ _____ _____    ______ ____
ROOT
ATOM      1  C   UNL     1      44.123   4.881  12.017  0.00  0.00    +0.000 C 
ATOM      2  C   UNL     1      42.880   5.019  12.894  0.00  0.00    +0.000 C 
ATOM      3  C   UNL     1      42.947   5.757  11.602  0.00  0.00    +0.000 C 
ENDROOT
BRANCH   1   4
ATOM      4  C   UNL     1      45.384   5.599  12.506  0.00  0.00    +0.000 A 
ATOM      5  C   UNL     1      45.676   6.912  12.112  0.00  0.00    +0.000 A 
ATOM      6  C   UNL     1      46.701   7.632  12.717  0.00  0.00    +0.000 A 
ATOM      7  C   UNL     1      47.439   7.053  13.748  0.00  0.00    +0.000 A 
ATOM      8  C   UNL     1      47.221   5.730  14.157  0.00  0.00    +0.000 A 
ATOM      9  C   UNL     1      46.232   5.010  13.474  0.00  0.00    +0.000 A 
BRANCH   8  10
ATOM     10  N   UNL     1      47.930   5.197  15.221  0.00  0.00    +0.000 N 
ATOM     11  C   UNL     1      47.518   3.968  15.902  0.00  0.00    +0.000 C 
ATOM     12  C   UNL     1      47.028   4.255  17.320  0.00  0.00    +0.000 C 
ATOM     13  C   UNL     1      48.050   5.078  18.101  0.00  0.00    +0.000 C 
ATOM     14  C   UNL     1      48.390   6.359  17.345  0.00  0.00    +0.000 C 
ATOM     15  C   UNL     1      48.884   6.058  15.929  0.00  0.00    +0.000 C 
ENDBRANCH   8  10
ENDBRANCH   1   4
BRANCH   1  16
ATOM     16  N   UNL     1      44.345   3.585  11.353  0.00  0.00    +0.000 N 
ATOM     17  H   UNL     1      44.738   2.835  11.919  0.00  0.00    +0.000 HD
BRANCH  16  22
ATOM     18 CL   UNL     1      46.733   3.083   6.069  0.00  0.00    +0.000 Cl
ATOM     19  C   UNL     1      46.006   3.224   7.610  0.00  0.00    +0.000 A 
ATOM     20  C   UNL     1      45.706   2.121   8.389  0.00  0.00    +0.000 A 
ATOM     21  N   UNL     1      45.154   2.223   9.629  0.00  0.00    +0.000 NA
ATOM     22  C   UNL     1      44.912   3.475  10.073  0.00  0.00    +0.000 A 
ATOM     23  C   UNL     1      45.195   4.571   9.249  0.00  0.00    +0.000 A 
ATOM     24  N   UNL     1      45.755   4.475   8.017  0.00  0.00    +0.000 NA
ENDBRANCH  16  22
ENDBRANCH   1  16
TORSDOF 4
ENDMDL
MODEL 6
REMARK VINA RESULT:    -6.991      3.060      6.488
REMARK INTER + INTRA:          -9.399
REMARK INTER:                  -8.647
REMARK INTRA:                  -0.752
REMARK UNBOUND:                -0.773
REMARK  Name = 
REMARK  4 active torsions:
REMARK  status: ('A' for Active; 'I' for Inactive)
REMARK    1  A    between atoms: C_5  and  N_6
REMARK    2  A    between atoms: N_6  and  C_7
REMARK    3  A    between atoms: C_7  and  C_8
REMARK    4  A    between atoms: C_12  and  N_13
REMARK                            x       y       z     vdW  Elec       q    Type
REMARK                         _______ _______ _______ _____ _____    ______ ____
ROOT
ATOM      1  C   UNL     1      45.992   6.739  12.478  0.00  0.00    +0.000 C 
ATOM      2  C   UNL     1      47.320   6.575  13.215  0.00  0.00    +0.000 C 
ATOM      3  C   UNL     1      47.326   6.953  11.774  0.00  0.00    +0.000 C 
ENDROOT
BRANCH   1   4
ATOM      4  C   UNL     1      45.234   5.449  12.150  0.00  0.00    +0.000 A 
ATOM      5  C   UNL     1      44.244   4.947  13.006  0.00  0.00    +0.000 A 
ATOM      6  C   UNL     1      43.416   3.901  12.610  0.00  0.00    +0.000 A 
ATOM      7  C   UNL     1      43.552   3.355  11.335  0.00  0.00    +0.000 A 
ATOM      8  C   UNL     1      44.549   3.788  10.450  0.00  0.00    +0.000 A 
ATOM      9  C   UNL     1      45.414   4.789  10.911  0.00  0.00    +0.000 A 
BRANCH   8  10
ATOM     10  N   UNL     1      44.627   3.267   9.168  0.00  0.00    +0.000 N 
ATOM     11  C   UNL     1      44.725   1.830   8.909  0.00  0.00    +0.000 C 
ATOM     12  C   UNL     1      46.099   1.456   8.357  0.00  0.00    +0.000 C 
ATOM     13  C   UNL     1      46.467   2.325   7.157  0.00  0.00    +0.000 C 
ATOM     14  C   UNL     1      46.384   3.803   7.524  0.00  0.00    +0.000 C 
ATOM     15  C   UNL     1      45.001   4.166   8.069  0.00  0.00    +0.000 C 
ENDBRANCH   8  10
ENDBRANCH   1   4
BRANCH   1  16
ATOM     16  N   UNL     1      45.154   7.896  12.836  0.00  0.00    +0.000 N 
ATOM     17  H   UNL     1      44.244   7.700  13.249  0.00  0.00    +0.000 HD
BRANCH  16  22
ATOM     18 CL   UNL     1      44.472  12.457   9.284  0.00  0.00    +0.000 Cl
ATOM     19  C   UNL     1      44.651  11.126  10.344  0.00  0.00    +0.000 A 
ATOM     20  C   UNL     1      43.825  10.019  10.284  0.00  0.00    +0.000 A 
ATOM     21  N   UNL     1      43.976   8.942  11.104  0.00  0.00    +0.000 NA
ATOM     22  C   UNL     1      44.993   9.006  11.991  0.00  0.00    +0.000 A 
ATOM     23  C   UNL     1      45.791  10.154  12.051  0.00  0.00    +0.000 A 
ATOM     24  N   UNL     1      45.651  11.226  11.229  0.00  0.00    +0.000 NA
ENDBRANCH  16  22
ENDBRANCH   1  16
TORSDOF 4
ENDMDL
MODEL 7
REMARK VINA RESULT:    -6.444      2.303      6.261
REMARK INTER + INTRA:          -8.725
REMARK INTER:                  -7.873
REMARK INTRA:                  -0.852
REMARK UNBOUND:                -0.773
REMARK  Name = 
REMARK  4 active torsions:
REMARK  status: ('A' for Active; 'I' for Inactive)
REMARK    1  A    between atoms: C_5  and  N_6
REMARK    2  A    between atoms: N_6  and  C_7
REMARK    3  A    between atoms: C_7  and  C_8
REMARK    4  A    between atoms: C_12  and  N_13
REMARK                            x       y       z     vdW  Elec       q    Type
REMARK                         _______ _______ _______ _____ _____    ______ ____
ROOT
ATOM      1  C   UNL     1      46.335   5.016  13.685  0.00  0.00    +0.000 C 
ATOM      2  C   UNL     1      46.527   4.099  14.892  0.00  0.00    +0.000 C 
ATOM      3  C   UNL     1      47.406   3.932  13.701  0.00  0.00    +0.000 C 
ENDROOT
BRANCH   1   4
ATOM      4  C   UNL     1      45.096   4.754  12.823  0.00  0.00    +0.000 A 
ATOM      5  C   UNL     1      43.856   5.329  13.134  0.00  0.00    +0.000 A 
ATOM      6  C   UNL     1      42.791   5.263  12.242  0.00  0.00    +0.000 A 
ATOM      7  C   UNL     1      42.959   4.638  11.008  0.00  0.00    +0.000 A 
ATOM      8  C   UNL     1      44.162   4.010  10.657  0.00  0.00    +0.000 A 
ATOM      9  C   UNL     1      45.189   4.029  11.611  0.00  0.00    +0.000 A 
BRANCH   8  10
ATOM     10  N   UNL     1      44.321   3.444   9.403  0.00  0.00    +0.000 N 
ATOM     11  C   UNL     1      44.472   2.002   9.206  0.00  0.00    +0.000 C 
ATOM     12  C   UNL     1      45.883   1.648   8.740  0.00  0.00    +0.000 C 
ATOM     13  C   UNL     1      46.289   2.481   7.527  0.00  0.00    +0.000 C 
ATOM     14  C   UNL     1      46.146   3.969   7.831  0.00  0.00    +0.000 C 
ATOM     15  C   UNL     1      44.727   4.311   8.290  0.00  0.00    +0.000 C 
ENDBRANCH   8  10
ENDBRANCH   1   4
BRANCH   1  16
ATOM     16  N   UNL     1      46.717   6.430  13.840  0.00  0.00    +0.000 N 
ATOM     17  H   UNL     1      45.980   7.124  13.732  0.00  0.00    +0.000 HD
BRANCH  16  22
ATOM     18 CL   UNL     1      51.537   8.704  11.500  0.00  0.00    +0.000 Cl
ATOM     19  C   UNL     1      50.133   8.010  12.186  0.00  0.00    +0.000 A 
ATOM     20  C   UNL     1      50.048   7.692  13.530  0.00  0.00    +0.000 A 
ATOM     21  N   UNL     1      48.925   7.166  14.092  0.00  0.00    +0.000 NA
ATOM     22  C   UNL     1      47.878   6.970  13.262  0.00  0.00    +0.000 A 
ATOM     23  C   UNL     1      48.005   7.269  11.901  0.00  0.00    +0.000 A 
ATOM     24  N   UNL     1      49.118   7.803  11.337  0.00  0.00    +0.000 NA
ENDBRANCH  16  22
ENDBRANCH   1  16
TORSDOF 4
ENDMDL
MODEL 8
REMARK VINA RESULT:    -6.303      1.534      2.522
REMARK INTER + INTRA:          -8.551
REMARK INTER:                  -7.863
REMARK INTRA:                  -0.688
REMARK UNBOUND:                -0.773
REMARK  Name = 
REMARK  4 active torsions:
REMARK  status: ('A' for Active; 'I' for Inactive)
REMARK    1  A    between atoms: C_5  and  N_6
REMARK    2  A    between atoms: N_6  and  C_7
REMARK    3  A    between atoms: C_7  and  C_8
REMARK    4  A    between atoms: C_12  and  N_13
REMARK                            x       y       z     vdW  Elec       q    Type
REMARK                         _______ _______ _______ _____ _____    ______ ____
ROOT
ATOM      1  C   UNL     1      43.976   5.516  11.849  0.00  0.00    +0.000 C 
ATOM      2  C   UNL     1      42.968   5.318  12.978  0.00  0.00    +0.000 C 
ATOM      3  C   UNL     1      42.484   5.394  11.572  0.00  0.00    +0.000 C 
ENDROOT
BRANCH   1   4
ATOM      4  C   UNL     1      44.593   6.913  11.726  0.00  0.00    +0.000 A 
ATOM      5  C   UNL     1      43.872   7.983  11.177  0.00  0.00    +0.000 A 
ATOM      6  C   UNL     1      44.352   9.286  11.257  0.00  0.00    +0.000 A 
ATOM      7  C   UNL     1      45.555   9.543  11.913  0.00  0.00    +0.000 A 
ATOM      8  C   UNL     1      46.339   8.511  12.445  0.00  0.00    +0.000 A 
ATOM      9  C   UNL     1      45.863   7.203  12.278  0.00  0.00    +0.000 A 
BRANCH   8  10
ATOM     10  N   UNL     1      47.502   8.797  13.141  0.00  0.00    +0.000 N 
ATOM     11  C   UNL     1      48.458   9.809  12.688  0.00  0.00    +0.000 C 
ATOM     12  C   UNL     1      49.763   9.170  12.218  0.00  0.00    +0.000 C 
ATOM     13  C   UNL     1      50.325   8.221  13.273  0.00  0.00    +0.000 C 
ATOM     14  C   UNL     1      49.284   7.174  13.655  0.00  0.00    +0.000 C 
ATOM     15  C   UNL     1      47.984   7.826  14.130  0.00  0.00    +0.000 C 
ENDBRANCH   8  10
ENDBRANCH   1   4
BRANCH   1  16
ATOM     16  N   UNL     1      44.877   4.393  11.538  0.00  0.00    +0.000 N 
ATOM     17  H   UNL     1      45.717   4.300  12.106  0.00  0.00    +0.000 HD
BRANCH  16  22
ATOM     18 CL   UNL     1      46.362   2.893   6.113  0.00  0.00    +0.000 Cl
ATOM     19  C   UNL     1      45.898   3.333   7.699  0.00  0.00    +0.000 A 
ATOM     20  C   UNL     1      45.455   2.403   8.623  0.00  0.00    +0.000 A 
ATOM     21  N   UNL     1      45.111   2.738   9.897  0.00  0.00    +0.000 NA
ATOM     22  C   UNL     1      45.228   4.044  10.223  0.00  0.00    +0.000 A 
ATOM     23  C   UNL     1      45.646   4.966   9.257  0.00  0.00    +0.000 A 
ATOM     24  N   UNL     1      46.001   4.637   7.989  0.00  0.00    +0.000 NA
ENDBRANCH  16  22
ENDBRANCH   1  16
TORSDOF 4
ENDMDL
MODEL 9
REMARK VINA RESULT:    -6.059      3.432      5.914
REMARK INTER + INTRA:          -8.249
REMARK INTER:                  -7.531
REMARK INTRA:                  -0.717
REMARK UNBOUND:                -0.773
REMARK  Name = 
REMARK  4 active torsions:
REMARK  status: ('A' for Active; 'I' for Inactive)
REMARK    1  A    between atoms: C_5  and  N_6
REMARK    2  A    between atoms: N_6  and  C_7
REMARK    3  A    between atoms: C_7  and  C_8
REMARK    4  A    between atoms: C_12  and  N_13
REMARK                            x       y       z     vdW  Elec       q    Type
REMARK                         _______ _______ _______ _____ _____    ______ ____
ROOT
ATOM      1  C   UNL     1      47.635   7.543  13.341  0.00  0.00    +0.000 C 
ATOM      2  C   UNL     1      48.331   8.403  12.289  0.00  0.00    +0.000 C 
ATOM      3  C   UNL     1      48.488   6.923  12.243  0.00  0.00    +0.000 C 
ENDROOT
BRANCH   1   4
ATOM      4  C   UNL     1      48.234   7.575  14.751  0.00  0.00    +0.000 A 
ATOM      5  C   UNL     1      48.401   8.782  15.445  0.00  0.00    +0.000 A 
ATOM      6  C   UNL     1      48.746   8.793  16.793  0.00  0.00    +0.000 A 
ATOM      7  C   UNL     1      48.906   7.588  17.476  0.00  0.00    +0.000 A 
ATOM      8  C   UNL     1      48.791   6.351  16.827  0.00  0.00    +0.000 A 
ATOM      9  C   UNL     1      48.519   6.380  15.452  0.00  0.00    +0.000 A 
BRANCH   8  10
ATOM     10  N   UNL     1      48.900   5.169  17.540  0.00  0.00    +0.000 N 
ATOM     11  C   UNL     1      50.152   4.741  18.166  0.00  0.00    +0.000 C 
ATOM     12  C   UNL     1      50.735   3.517  17.462  0.00  0.00    +0.000 C 
ATOM     13  C   UNL     1      49.697   2.404  17.339  0.00  0.00    +0.000 C 
ATOM     14  C   UNL     1      48.444   2.921  16.639  0.00  0.00    +0.000 C 
ATOM     15  C   UNL     1      47.867   4.142  17.356  0.00  0.00    +0.000 C 
ENDBRANCH   8  10
ENDBRANCH   1   4
BRANCH   1  16
ATOM     16  N   UNL     1      46.166   7.446  13.276  0.00  0.00    +0.000 N 
ATOM     17  H   UNL     1      45.640   7.842  14.052  0.00  0.00    +0.000 HD
BRANCH  16  22
ATOM     18 CL   UNL     1      43.355   2.621  11.631  0.00  0.00    +0.000 Cl
ATOM     19  C   UNL     1      44.201   4.034  12.094  0.00  0.00    +0.000 A 
ATOM     20  C   UNL     1      44.085   5.225  11.400  0.00  0.00    +0.000 A 
ATOM     21  N   UNL     1      44.730   6.363  11.777  0.00  0.00    +0.000 NA
ATOM     22  C   UNL     1      45.501   6.273  12.882  0.00  0.00    +0.000 A 
ATOM     23  C   UNL     1      45.626   5.046  13.544  0.00  0.00    +0.000 A 
ATOM     24  N   UNL     1      44.976   3.912  13.180  0.00  0.00    +0.000 NA
ENDBRANCH  16  22
ENDBRANCH   1  16
TORSDOF 4
ENDMDL
