MODEL 1
REMARK VINA RESULT:    -8.182      0.000      0.000
REMARK INTER + INTRA:         -12.465
REMARK INTER:                 -11.770
REMARK INTRA:                  -0.695
REMARK UNBOUND:                -0.695
REMARK  Name = 
REMARK  9 active torsions:
REMARK  status: ('A' for Active; 'I' for Inactive)
REMARK    1  A    between atoms: C_1  and  C_2
REMARK    2  A    between atoms: C_2  and  N_3
REMARK    3  A    between atoms: C_2  and  C_19
REMARK    4  A    between atoms: N_3  and  C_4
REMARK    5  A    between atoms: C_7  and  C_8
REMARK    6  A    between atoms: C_8  and  C_9
REMARK    7  A    between atoms: C_9  and  O_10
REMARK    8  A    between atoms: C_9  and  C_11
REMARK    9  A    between atoms: C_19  and  C_21
REMARK                            x       y       z     vdW  Elec       q    Type
REMARK                         _______ _______ _______ _____ _____    ______ ____
ROOT
ATOM      1  N   UNL     1      47.188   5.340  15.173  0.00  0.00    +0.000 N 
ATOM      2  H   UNL     1      47.784   6.117  14.863  0.00  0.00    +0.000 HD
ENDROOT
BRANCH   1   3
ATOM      3  C   UNL     1      46.436   4.812  14.140  0.00  0.00    +0.000 A 
ATOM      4  C   UNL     1      45.456   5.569  13.514  0.00  0.00    +0.000 A 
ATOM      5  N   UNL     1      44.668   5.139  12.508  0.00  0.00    +0.000 NA
ATOM      6  C   UNL     1      44.887   3.883  12.093  0.00  0.00    +0.000 A 
ATOM      7  N   UNL     1      45.839   3.063  12.578  0.00  0.00    +0.000 NA
ATOM      8  C   UNL     1      46.591   3.563  13.580  0.00  0.00    +0.000 A 
BRANCH   6   9
ATOM      9  C   UNL     1      43.956   3.296  11.071  0.00  0.00    +0.000 C 
BRANCH   9  10
ATOM     10  C   UNL     1      44.080   3.991   9.711  0.00  0.00    +0.000 C 
BRANCH  10  11
ATOM     11  C   UNL     1      45.110   3.288   8.850  0.00  0.00    +0.000 A 
ATOM     12  C   UNL     1      45.289   1.912   8.948  0.00  0.00    +0.000 A 
ATOM     13  N   UNL     1      46.211   1.236   8.219  0.00  0.00    +0.000 NA
ATOM     14  C   UNL     1      46.938   1.988   7.363  0.00  0.00    +0.000 A 
ATOM     15  C   UNL     1      46.748   3.350   7.232  0.00  0.00    +0.000 A 
ATOM     16  N   UNL     1      45.833   4.027   7.962  0.00  0.00    +0.000 NA
ENDBRANCH  10  11
BRANCH  10  17
ATOM     17  O   UNL     1      44.471   5.364   9.820  0.00  0.00    +0.000 OA
ATOM     18  H   UNL     1      44.642   5.542  10.763  0.00  0.00    +0.000 HD
ENDBRANCH  10  17
ENDBRANCH   9  10
ENDBRANCH   6   9
ENDBRANCH   1   3
BRANCH   1  20
ATOM     19  C   UNL     1      47.076   4.531  17.465  0.00  0.00    +0.000 C 
ATOM     20  C   UNL     1      47.883   4.493  16.168  0.00  0.00    +0.000 C 
BRANCH  20  21
ATOM     21  C   UNL     1      49.290   5.070  16.402  0.00  0.00    +0.000 C 
ATOM     22  O   UNL     1      49.699   5.982  15.673  0.00  0.00    +0.000 OA
BRANCH  21  23
ATOM     23  C   UNL     1      50.131   4.586  17.500  0.00  0.00    +0.000 A 
ATOM     24  C   UNL     1      50.548   5.319  18.599  0.00  0.00    +0.000 A 
ATOM     25  S   UNL     1      51.851   4.561  19.423  0.00  0.00    +0.000 S 
ATOM     26  C   UNL     1      51.766   3.189  18.418  0.00  0.00    +0.000 A 
ATOM     27  N   UNL     1      52.656   2.166  18.503  0.00  0.00    +0.000 NA
ATOM     28  C   UNL     1      52.402   1.178  17.706  0.00  0.00    +0.000 A 
ATOM     29  N   UNL     1      51.317   1.099  16.869  0.00  0.00    +0.000 N 
ATOM     30  C   UNL     1      50.354   2.078  16.803  0.00  0.00    +0.000 A 
ATOM     31  O   UNL     1      49.282   1.888  16.241  0.00  0.00    +0.000 OA
ATOM     32  C   UNL     1      50.691   3.268  17.560  0.00  0.00    +0.000 A 
ATOM     33  H   UNL     1      51.108   0.246  16.370  0.00  0.00    +0.000 HD
ENDBRANCH  21  23
ENDBRANCH  20  21
ENDBRANCH   1  20
TORSDOF 8
ENDMDL
MODEL 2
REMARK VINA RESULT:    -8.128      2.200      2.879
REMARK INTER + INTRA:         -12.387
REMARK INTER:                 -11.023
REMARK INTRA:                  -1.364
REMARK UNBOUND:                -0.695
REMARK  Name = 
REMARK  9 active torsions:
REMARK  status: ('A' for Active; 'I' for Inactive)
REMARK    1  A    between atoms: C_1  and  C_2
REMARK    2  A    between atoms: C_2  and  N_3
REMARK    3  A    between atoms: C_2  and  C_19
REMARK    4  A    between atoms: N_3  and  C_4
REMARK    5  A    between atoms: C_7  and  C_8
REMARK    6  A    between atoms: C_8  and  C_9
REMARK    7  A    between atoms: C_9  and  O_10
REMARK    8  A    between atoms: C_9  and  C_11
REMARK    9  A    between atoms: C_19  and  C_21
REMARK                            x       y       z     vdW  Elec       q    Type
REMARK                         _______ _______ _______ _____ _____    ______ ____
ROOT
ATOM      1  N   UNL     1      46.996   6.126  14.314  0.00  0.00    +0.000 N 
ATOM      2  H   UNL     1      46.430   6.378  15.134  0.00  0.00    +0.000 HD
ENDROOT
BRANCH   1   3
ATOM      3  C   UNL     1      46.228   5.618  13.283  0.00  0.00    +0.000 A 
ATOM      4  C   UNL     1      46.225   4.260  13.000  0.00  0.00    +0.000 A 
ATOM      5  N   UNL     1      45.519   3.674  12.011  0.00  0.00    +0.000 NA
ATOM      6  C   UNL     1      44.757   4.496  11.275  0.00  0.00    +0.000 A 
ATOM      7  N   UNL     1      44.630   5.822  11.478  0.00  0.00    +0.000 NA
ATOM      8  C   UNL     1      45.363   6.335  12.487  0.00  0.00    +0.000 A 
BRANCH   6   9
ATOM      9  C   UNL     1      44.053   3.932  10.075  0.00  0.00    +0.000 C 
BRANCH   9  10
ATOM     10  C   UNL     1      44.751   4.311   8.764  0.00  0.00    +0.000 C 
BRANCH  10  11
ATOM     11  C   UNL     1      45.585   3.153   8.256  0.00  0.00    +0.000 A 
ATOM     12  C   UNL     1      45.403   1.875   8.771  0.00  0.00    +0.000 A 
ATOM     13  N   UNL     1      46.135   0.807   8.368  0.00  0.00    +0.000 NA
ATOM     14  C   UNL     1      47.049   1.062   7.405  0.00  0.00    +0.000 A 
ATOM     15  C   UNL     1      47.217   2.320   6.861  0.00  0.00    +0.000 A 
ATOM     16  N   UNL     1      46.491   3.386   7.265  0.00  0.00    +0.000 NA
ENDBRANCH  10  11
BRANCH  10  17
ATOM     17  O   UNL     1      45.619   5.442   8.904  0.00  0.00    +0.000 OA
ATOM     18  H   UNL     1      45.628   5.686   9.847  0.00  0.00    +0.000 HD
ENDBRANCH  10  17
ENDBRANCH   9  10
ENDBRANCH   6   9
ENDBRANCH   1   3
BRANCH   1  20
ATOM     19  C   UNL     1      48.760   6.761  12.764  0.00  0.00    +0.000 C 
ATOM     20  C   UNL     1      48.085   7.102  14.092  0.00  0.00    +0.000 C 
BRANCH  20  21
ATOM     21  C   UNL     1      49.095   6.978  15.246  0.00  0.00    +0.000 C 
ATOM     22  O   UNL     1      50.301   6.877  14.988  0.00  0.00    +0.000 OA
BRANCH  21  23
ATOM     23  C   UNL     1      48.653   7.024  16.643  0.00  0.00    +0.000 A 
ATOM     24  C   UNL     1      48.370   8.164  17.377  0.00  0.00    +0.000 A 
ATOM     25  S   UNL     1      48.312   7.846  19.065  0.00  0.00    +0.000 S 
ATOM     26  C   UNL     1      48.514   6.173  18.816  0.00  0.00    +0.000 A 
ATOM     27  N   UNL     1      48.645   5.294  19.844  0.00  0.00    +0.000 NA
ATOM     28  C   UNL     1      48.725   4.057  19.472  0.00  0.00    +0.000 A 
ATOM     29  N   UNL     1      48.639   3.615  18.175  0.00  0.00    +0.000 N 
ATOM     30  C   UNL     1      48.435   4.462  17.111  0.00  0.00    +0.000 A 
ATOM     31  O   UNL     1      48.121   4.042  16.005  0.00  0.00    +0.000 OA
ATOM     32  C   UNL     1      48.502   5.865  17.474  0.00  0.00    +0.000 A 
ATOM     33  H   UNL     1      48.579   2.629  17.965  0.00  0.00    +0.000 HD
ENDBRANCH  21  23
ENDBRANCH  20  21
ENDBRANCH   1  20
TORSDOF 8
ENDMDL
MODEL 3
REMARK VINA RESULT:    -8.007      2.741      8.899
REMARK INTER + INTRA:         -12.212
REMARK INTER:                 -10.933
REMARK INTRA:                  -1.278
REMARK UNBOUND:                -0.695
REMARK  Name = 
REMARK  9 active torsions:
REMARK  status: ('A' for Active; 'I' for Inactive)
REMARK    1  A    between atoms: C_1  and  C_2
REMARK    2  A    between atoms: C_2  and  N_3
REMARK    3  A    between atoms: C_2  and  C_19
REMARK    4  A    between atoms: N_3  and  C_4
REMARK    5  A    between atoms: C_7  and  C_8
REMARK    6  A    between atoms: C_8  and  C_9
REMARK    7  A    between atoms: C_9  and  O_10
REMARK    8  A    between atoms: C_9  and  C_11
REMARK    9  A    between atoms: C_19  and  C_21
REMARK                            x       y       z     vdW  Elec       q    Type
REMARK                         _______ _______ _______ _____ _____    ______ ____
ROOT
ATOM      1  N   UNL     1      46.794   6.466  13.711  0.00  0.00    +0.000 N 
ATOM      2  H   UNL     1      45.812   6.671  13.931  0.00  0.00    +0.000 HD
ENDROOT
BRANCH   1   3
ATOM      3  C   UNL     1      47.390   5.669  14.670  0.00  0.00    +0.000 A 
ATOM      4  C   UNL     1      46.968   4.362  14.872  0.00  0.00    +0.000 A 
ATOM      5  N   UNL     1      47.479   3.514  15.788  0.00  0.00    +0.000 NA
ATOM      6  C   UNL     1      48.484   3.997  16.532  0.00  0.00    +0.000 A 
ATOM      7  N   UNL     1      49.021   5.226  16.401  0.00  0.00    +0.000 NA
ATOM      8  C   UNL     1      48.461   6.016  15.463  0.00  0.00    +0.000 A 
BRANCH   6   9
ATOM      9  C   UNL     1      49.006   3.155  17.660  0.00  0.00    +0.000 C 
BRANCH   9  10
ATOM     10  C   UNL     1      49.769   1.925  17.156  0.00  0.00    +0.000 C 
BRANCH  10  11
ATOM     11  C   UNL     1      51.244   2.048  17.481  0.00  0.00    +0.000 A 
ATOM     12  C   UNL     1      51.762   3.247  17.957  0.00  0.00    +0.000 A 
ATOM     13  N   UNL     1      53.077   3.419  18.244  0.00  0.00    +0.000 NA
ATOM     14  C   UNL     1      53.857   2.331  18.056  0.00  0.00    +0.000 A 
ATOM     15  C   UNL     1      53.349   1.124  17.614  0.00  0.00    +0.000 A 
ATOM     16  N   UNL     1      52.040   0.953  17.325  0.00  0.00    +0.000 NA
ENDBRANCH  10  11
BRANCH  10  17
ATOM     17  O   UNL     1      49.651   1.738  15.741  0.00  0.00    +0.000 OA
ATOM     18  H   UNL     1      48.773   2.068  15.478  0.00  0.00    +0.000 HD
ENDBRANCH  10  17
ENDBRANCH   9  10
ENDBRANCH   6   9
ENDBRANCH   1   3
BRANCH   1  20
ATOM     19  C   UNL     1      47.927   7.333  11.741  0.00  0.00    +0.000 C 
ATOM     20  C   UNL     1      46.985   6.248  12.260  0.00  0.00    +0.000 C 
BRANCH  20  21
ATOM     21  C   UNL     1      45.617   6.356  11.565  0.00  0.00    +0.000 C 
ATOM     22  O   UNL     1      45.236   7.457  11.147  0.00  0.00    +0.000 OA
BRANCH  21  23
ATOM     23  C   UNL     1      44.783   5.170  11.353  0.00  0.00    +0.000 A 
ATOM     24  C   UNL     1      43.779   4.712  12.191  0.00  0.00    +0.000 A 
ATOM     25  S   UNL     1      43.337   3.089  11.841  0.00  0.00    +0.000 S 
ATOM     26  C   UNL     1      44.366   3.040  10.485  0.00  0.00    +0.000 A 
ATOM     27  N   UNL     1      44.555   1.911   9.753  0.00  0.00    +0.000 NA
ATOM     28  C   UNL     1      45.319   2.072   8.722  0.00  0.00    +0.000 A 
ATOM     29  N   UNL     1      45.873   3.266   8.328  0.00  0.00    +0.000 N 
ATOM     30  C   UNL     1      45.650   4.446   8.997  0.00  0.00    +0.000 A 
ATOM     31  O   UNL     1      45.945   5.529   8.507  0.00  0.00    +0.000 OA
ATOM     32  C   UNL     1      44.933   4.272  10.246  0.00  0.00    +0.000 A 
ATOM     33  H   UNL     1      46.352   3.349   7.444  0.00  0.00    +0.000 HD
ENDBRANCH  21  23
ENDBRANCH  20  21
ENDBRANCH   1  20
TORSDOF 8
ENDMDL
MODEL 4
REMARK VINA RESULT:    -7.636      2.172      2.905
REMARK INTER + INTRA:         -11.678
REMARK INTER:                 -10.481
REMARK INTRA:                  -1.197
REMARK UNBOUND:                -0.695
REMARK  Name = 
REMARK  9 active torsions:
REMARK  status: ('A' for Active; 'I' for Inactive)
REMARK    1  A    between atoms: C_1  and  C_2
REMARK    2  A    between atoms: C_2  and  N_3
REMARK    3  A    between atoms: C_2  and  C_19
REMARK    4  A    between atoms: N_3  and  C_4
REMARK    5  A    between atoms: C_7  and  C_8
REMARK    6  A    between atoms: C_8  and  C_9
REMARK    7  A    between atoms: C_9  and  O_10
REMARK    8  A    between atoms: C_9  and  C_11
REMARK    9  A    between atoms: C_19  and  C_21
REMARK                            x       y       z     vdW  Elec       q    Type
REMARK                         _______ _______ _______ _____ _____    ______ ____
ROOT
ATOM      1  N   UNL     1      47.653   5.744  14.773  0.00  0.00    +0.000 N 
ATOM      2  H   UNL     1      47.334   5.788  15.749  0.00  0.00    +0.000 HD
ENDROOT
BRANCH   1   3
ATOM      3  C   UNL     1      46.759   5.072  13.961  0.00  0.00    +0.000 A 
ATOM      4  C   UNL     1      45.715   5.745  13.341  0.00  0.00    +0.000 A 
ATOM      5  N   UNL     1      44.790   5.176  12.542  0.00  0.00    +0.000 NA
ATOM      6  C   UNL     1      44.929   3.859  12.337  0.00  0.00    +0.000 A 
ATOM      7  N   UNL     1      45.924   3.099  12.836  0.00  0.00    +0.000 NA
ATOM      8  C   UNL     1      46.814   3.738  13.622  0.00  0.00    +0.000 A 
BRANCH   6   9
ATOM      9  C   UNL     1      43.858   3.139  11.571  0.00  0.00    +0.000 C 
BRANCH   9  10
ATOM     10  C   UNL     1      43.631   3.749  10.183  0.00  0.00    +0.000 C 
BRANCH  10  11
ATOM     11  C   UNL     1      44.727   3.318   9.231  0.00  0.00    +0.000 A 
ATOM     12  C   UNL     1      45.388   4.257   8.446  0.00  0.00    +0.000 A 
ATOM     13  N   UNL     1      46.361   3.924   7.562  0.00  0.00    +0.000 NA
ATOM     14  C   UNL     1      46.668   2.609   7.507  0.00  0.00    +0.000 A 
ATOM     15  C   UNL     1      46.043   1.670   8.304  0.00  0.00    +0.000 A 
ATOM     16  N   UNL     1      45.070   2.000   9.182  0.00  0.00    +0.000 NA
ENDBRANCH  10  11
BRANCH  10  17
ATOM     17  O   UNL     1      43.611   5.181  10.202  0.00  0.00    +0.000 OA
ATOM     18  H   UNL     1      43.012   5.472   9.491  0.00  0.00    +0.000 HD
ENDBRANCH  10  17
ENDBRANCH   9  10
ENDBRANCH   6   9
ENDBRANCH   1   3
BRANCH   1  20
ATOM     19  C   UNL     1      48.956   6.779  12.999  0.00  0.00    +0.000 C 
ATOM     20  C   UNL     1      48.311   7.005  14.365  0.00  0.00    +0.000 C 
BRANCH  20  21
ATOM     21  C   UNL     1      49.386   7.354  15.408  0.00  0.00    +0.000 C 
ATOM     22  O   UNL     1      50.550   7.549  15.036  0.00  0.00    +0.000 OA
BRANCH  21  23
ATOM     23  C   UNL     1      49.043   7.504  16.825  0.00  0.00    +0.000 A 
ATOM     24  C   UNL     1      48.460   8.613  17.416  0.00  0.00    +0.000 A 
ATOM     25  S   UNL     1      48.614   8.587  19.127  0.00  0.00    +0.000 S 
ATOM     26  C   UNL     1      49.319   7.037  19.100  0.00  0.00    +0.000 A 
ATOM     27  N   UNL     1      49.787   6.429  20.221  0.00  0.00    +0.000 NA
ATOM     28  C   UNL     1      50.231   5.230  20.024  0.00  0.00    +0.000 A 
ATOM     29  N   UNL     1      50.207   4.567  18.821  0.00  0.00    +0.000 N 
ATOM     30  C   UNL     1      49.677   5.117  17.678  0.00  0.00    +0.000 A 
ATOM     31  O   UNL     1      49.443   4.437  16.686  0.00  0.00    +0.000 OA
ATOM     32  C   UNL     1      49.320   6.514  17.825  0.00  0.00    +0.000 A 
ATOM     33  H   UNL     1      50.449   3.588  18.763  0.00  0.00    +0.000 HD
ENDBRANCH  21  23
ENDBRANCH  20  21
ENDBRANCH   1  20
TORSDOF 8
ENDMDL
MODEL 5
REMARK VINA RESULT:    -7.426      1.921      2.643
REMARK INTER + INTRA:         -11.377
REMARK INTER:                 -10.402
REMARK INTRA:                  -0.976
REMARK UNBOUND:                -0.695
REMARK  Name = 
REMARK  9 active torsions:
REMARK  status: ('A' for Active; 'I' for Inactive)
REMARK    1  A    between atoms: C_1  and  C_2
REMARK    2  A    between atoms: C_2  and  N_3
REMARK    3  A    between atoms: C_2  and  C_19
REMARK    4  A    between atoms: N_3  and  C_4
REMARK    5  A    between atoms: C_7  and  C_8
REMARK    6  A    between atoms: C_8  and  C_9
REMARK    7  A    between atoms: C_9  and  O_10
REMARK    8  A    between atoms: C_9  and  C_11
REMARK    9  A    between atoms: C_19  and  C_21
REMARK                            x       y       z     vdW  Elec       q    Type
REMARK                         _______ _______ _______ _____ _____    ______ ____
ROOT
ATOM      1  N   UNL     1      48.579   6.309  14.651  0.00  0.00    +0.000 N 
ATOM      2  H   UNL     1      49.015   5.514  15.135  0.00  0.00    +0.000 HD
ENDROOT
BRANCH   1   3
ATOM      3  C   UNL     1      47.396   5.957  14.028  0.00  0.00    +0.000 A 
ATOM      4  C   UNL     1      46.834   4.704  14.225  0.00  0.00    +0.000 A 
ATOM      5  N   UNL     1      45.692   4.267  13.654  0.00  0.00    +0.000 NA
ATOM      6  C   UNL     1      45.069   5.144  12.855  0.00  0.00    +0.000 A 
ATOM      7  N   UNL     1      45.480   6.406  12.621  0.00  0.00    +0.000 NA
ATOM      8  C   UNL     1      46.626   6.772  13.228  0.00  0.00    +0.000 A 
BRANCH   6   9
ATOM      9  C   UNL     1      43.869   4.677  12.082  0.00  0.00    +0.000 C 
BRANCH   9  10
ATOM     10  C   UNL     1      44.048   3.256  11.540  0.00  0.00    +0.000 C 
BRANCH  10  11
ATOM     11  C   UNL     1      44.697   3.290  10.171  0.00  0.00    +0.000 A 
ATOM     12  C   UNL     1      44.943   4.504   9.539  0.00  0.00    +0.000 A 
ATOM     13  N   UNL     1      45.501   4.593   8.305  0.00  0.00    +0.000 NA
ATOM     14  C   UNL     1      45.827   3.414   7.732  0.00  0.00    +0.000 A 
ATOM     15  C   UNL     1      45.619   2.202   8.362  0.00  0.00    +0.000 A 
ATOM     16  N   UNL     1      45.059   2.112   9.589  0.00  0.00    +0.000 NA
ENDBRANCH  10  11
BRANCH  10  17
ATOM     17  O   UNL     1      42.810   2.547  11.415  0.00  0.00    +0.000 OA
ATOM     18  H   UNL     1      42.914   1.697  11.879  0.00  0.00    +0.000 HD
ENDBRANCH  10  17
ENDBRANCH   9  10
ENDBRANCH   6   9
ENDBRANCH   1   3
BRANCH   1  20
ATOM     19  C   UNL     1      49.965   8.293  14.897  0.00  0.00    +0.000 C 
ATOM     20  C   UNL     1      48.732   7.560  15.426  0.00  0.00    +0.000 C 
BRANCH  20  21
ATOM     21  C   UNL     1      48.926   7.196  16.908  0.00  0.00    +0.000 C 
ATOM     22  O   UNL     1      48.236   7.761  17.765  0.00  0.00    +0.000 OA
BRANCH  21  23
ATOM     23  C   UNL     1      49.883   6.162  17.311  0.00  0.00    +0.000 A 
ATOM     24  C   UNL     1      51.218   6.356  17.625  0.00  0.00    +0.000 A 
ATOM     25  S   UNL     1      52.102   4.883  17.621  0.00  0.00    +0.000 S 
ATOM     26  C   UNL     1      50.691   3.968  17.352  0.00  0.00    +0.000 A 
ATOM     27  N   UNL     1      50.720   2.625  17.153  0.00  0.00    +0.000 NA
ATOM     28  C   UNL     1      49.550   2.085  17.028  0.00  0.00    +0.000 A 
ATOM     29  N   UNL     1      48.356   2.756  17.131  0.00  0.00    +0.000 N 
ATOM     30  C   UNL     1      48.279   4.101  17.402  0.00  0.00    +0.000 A 
ATOM     31  O   UNL     1      47.224   4.632  17.728  0.00  0.00    +0.000 OA
ATOM     32  C   UNL     1      49.568   4.765  17.387  0.00  0.00    +0.000 A 
ATOM     33  H   UNL     1      47.480   2.255  17.153  0.00  0.00    +0.000 HD
ENDBRANCH  21  23
ENDBRANCH  20  21
ENDBRANCH   1  20
TORSDOF 8
ENDMDL
MODEL 6
REMARK VINA RESULT:    -7.289      2.659      3.704
REMARK INTER + INTRA:         -11.180
REMARK INTER:                 -10.348
REMARK INTRA:                  -0.831
REMARK UNBOUND:                -0.695
REMARK  Name = 
REMARK  9 active torsions:
REMARK  status: ('A' for Active; 'I' for Inactive)
REMARK    1  A    between atoms: C_1  and  C_2
REMARK    2  A    between atoms: C_2  and  N_3
REMARK    3  A    between atoms: C_2  and  C_19
REMARK    4  A    between atoms: N_3  and  C_4
REMARK    5  A    between atoms: C_7  and  C_8
REMARK    6  A    between atoms: C_8  and  C_9
REMARK    7  A    between atoms: C_9  and  O_10
REMARK    8  A    between atoms: C_9  and  C_11
REMARK    9  A    between atoms: C_19  and  C_21
REMARK                            x       y       z     vdW  Elec       q    Type
REMARK                         _______ _______ _______ _____ _____    ______ ____
ROOT
ATOM      1  N   UNL     1      47.846   5.822  14.680  0.00  0.00    +0.000 N 
ATOM      2  H   UNL     1      47.554   5.923  15.660  0.00  0.00    +0.000 HD
ENDROOT
BRANCH   1   3
ATOM      3  C   UNL     1      46.892   5.179  13.914  0.00  0.00    +0.000 A 
ATOM      4  C   UNL     1      45.877   5.894  13.294  0.00  0.00    +0.000 A 
ATOM      5  N   UNL     1      44.898   5.356  12.538  0.00  0.00    +0.000 NA
ATOM      6  C   UNL     1      44.951   4.026  12.378  0.00  0.00    +0.000 A 
ATOM      7  N   UNL     1      45.910   3.224  12.881  0.00  0.00    +0.000 NA
ATOM      8  C   UNL     1      46.857   3.834  13.623  0.00  0.00    +0.000 A 
BRANCH   6   9
ATOM      9  C   UNL     1      43.818   3.347  11.663  0.00  0.00    +0.000 C 
BRANCH   9  10
ATOM     10  C   UNL     1      43.592   3.925  10.262  0.00  0.00    +0.000 C 
BRANCH  10  11
ATOM     11  C   UNL     1      44.685   3.466   9.318  0.00  0.00    +0.000 A 
ATOM     12  C   UNL     1      45.368   4.387   8.532  0.00  0.00    +0.000 A 
ATOM     13  N   UNL     1      46.340   4.030   7.655  0.00  0.00    +0.000 NA
ATOM     14  C   UNL     1      46.622   2.709   7.611  0.00  0.00    +0.000 A 
ATOM     15  C   UNL     1      45.974   1.787   8.411  0.00  0.00    +0.000 A 
ATOM     16  N   UNL     1      45.002   2.142   9.281  0.00  0.00    +0.000 NA
ENDBRANCH  10  11
BRANCH  10  17
ATOM     17  O   UNL     1      43.578   5.357  10.246  0.00  0.00    +0.000 OA
ATOM     18  H   UNL     1      42.979   5.633   9.529  0.00  0.00    +0.000 HD
ENDBRANCH  10  17
ENDBRANCH   9  10
ENDBRANCH   6   9
ENDBRANCH   1   3
BRANCH   1  20
ATOM     19  C   UNL     1      48.952   6.800  12.747  0.00  0.00    +0.000 C 
ATOM     20  C   UNL     1      48.573   7.022  14.210  0.00  0.00    +0.000 C 
BRANCH  20  21
ATOM     21  C   UNL     1      49.839   7.193  15.066  0.00  0.00    +0.000 C 
ATOM     22  O   UNL     1      50.809   7.804  14.598  0.00  0.00    +0.000 OA
BRANCH  21  23
ATOM     23  C   UNL     1      49.897   6.683  16.438  0.00  0.00    +0.000 A 
ATOM     24  C   UNL     1      50.694   5.647  16.896  0.00  0.00    +0.000 A 
ATOM     25  S   UNL     1      50.174   5.060  18.425  0.00  0.00    +0.000 S 
ATOM     26  C   UNL     1      48.986   6.273  18.552  0.00  0.00    +0.000 A 
ATOM     27  N   UNL     1      48.100   6.321  19.581  0.00  0.00    +0.000 NA
ATOM     28  C   UNL     1      47.311   7.346  19.551  0.00  0.00    +0.000 A 
ATOM     29  N   UNL     1      47.357   8.350  18.615  0.00  0.00    +0.000 N 
ATOM     30  C   UNL     1      48.283   8.379  17.599  0.00  0.00    +0.000 A 
ATOM     31  O   UNL     1      48.469   9.386  16.926  0.00  0.00    +0.000 OA
ATOM     32  C   UNL     1      49.075   7.167  17.508  0.00  0.00    +0.000 A 
ATOM     33  H   UNL     1      46.801   9.186  18.722  0.00  0.00    +0.000 HD
ENDBRANCH  21  23
ENDBRANCH  20  21
ENDBRANCH   1  20
TORSDOF 8
ENDMDL
MODEL 7
REMARK VINA RESULT:    -7.129      2.780      4.054
REMARK INTER + INTRA:         -10.949
REMARK INTER:                  -9.472
REMARK INTRA:                  -1.477
REMARK UNBOUND:                -0.695
REMARK  Name = 
REMARK  9 active torsions:
REMARK  status: ('A' for Active; 'I' for Inactive)
REMARK    1  A    between atoms: C_1  and  C_2
REMARK    2  A    between atoms: C_2  and  N_3
REMARK    3  A    between atoms: C_2  and  C_19
REMARK    4  A    between atoms: N_3  and  C_4
REMARK    5  A    between atoms: C_7  and  C_8
REMARK    6  A    between atoms: C_8  and  C_9
REMARK    7  A    between atoms: C_9  and  O_10
REMARK    8  A    between atoms: C_9  and  C_11
REMARK    9  A    between atoms: C_19  and  C_21
REMARK                            x       y       z     vdW  Elec       q    Type
REMARK                         _______ _______ _______ _____ _____    ______ ____
ROOT
ATOM      1  N   UNL     1      49.153   8.104  16.472  0.00  0.00    +0.000 N 
ATOM      2  H   UNL     1      50.025   7.603  16.682  0.00  0.00    +0.000 HD
ENDROOT
BRANCH   1   3
ATOM      3  C   UNL     1      48.597   7.705  15.271  0.00  0.00    +0.000 A 
ATOM      4  C   UNL     1      47.862   8.593  14.498  0.00  0.00    +0.000 A 
ATOM      5  N   UNL     1      47.273   8.294  13.321  0.00  0.00    +0.000 NA
ATOM      6  C   UNL     1      47.447   7.038  12.886  0.00  0.00    +0.000 A 
ATOM      7  N   UNL     1      48.178   6.096  13.513  0.00  0.00    +0.000 NA
ATOM      8  C   UNL     1      48.739   6.469  14.681  0.00  0.00    +0.000 A 
BRANCH   6   9
ATOM      9  C   UNL     1      46.707   6.601  11.655  0.00  0.00    +0.000 C 
BRANCH   9  10
ATOM     10  C   UNL     1      45.187   6.690  11.832  0.00  0.00    +0.000 C 
BRANCH  10  11
ATOM     11  C   UNL     1      44.570   5.306  11.807  0.00  0.00    +0.000 A 
ATOM     12  C   UNL     1      44.099   4.724  12.978  0.00  0.00    +0.000 A 
ATOM     13  N   UNL     1      43.557   3.481  13.017  0.00  0.00    +0.000 NA
ATOM     14  C   UNL     1      43.483   2.845  11.827  0.00  0.00    +0.000 A 
ATOM     15  C   UNL     1      43.918   3.424  10.650  0.00  0.00    +0.000 A 
ATOM     16  N   UNL     1      44.462   4.661  10.611  0.00  0.00    +0.000 NA
ENDBRANCH  10  11
BRANCH  10  17
ATOM     17  O   UNL     1      44.553   7.466  10.810  0.00  0.00    +0.000 OA
ATOM     18  H   UNL     1      45.236   8.034  10.410  0.00  0.00    +0.000 HD
ENDBRANCH  10  17
ENDBRANCH   9  10
ENDBRANCH   6   9
ENDBRANCH   1   3
BRANCH   1  20
ATOM     19  C   UNL     1      48.445   9.793  18.073  0.00  0.00    +0.000 C 
ATOM     20  C   UNL     1      48.347   8.316  17.694  0.00  0.00    +0.000 C 
BRANCH  20  21
ATOM     21  C   UNL     1      48.926   7.441  18.819  0.00  0.00    +0.000 C 
ATOM     22  O   UNL     1      48.854   7.834  19.990  0.00  0.00    +0.000 OA
BRANCH  21  23
ATOM     23  C   UNL     1      49.518   6.133  18.527  0.00  0.00    +0.000 A 
ATOM     24  C   UNL     1      50.855   5.792  18.648  0.00  0.00    +0.000 A 
ATOM     25  S   UNL     1      51.227   4.336  17.814  0.00  0.00    +0.000 S 
ATOM     26  C   UNL     1      49.591   4.075  17.418  0.00  0.00    +0.000 A 
ATOM     27  N   UNL     1      49.187   3.047  16.628  0.00  0.00    +0.000 NA
ATOM     28  C   UNL     1      47.903   2.964  16.485  0.00  0.00    +0.000 A 
ATOM     29  N   UNL     1      46.987   3.784  17.096  0.00  0.00    +0.000 N 
ATOM     30  C   UNL     1      47.348   4.792  17.959  0.00  0.00    +0.000 A 
ATOM     31  O   UNL     1      46.526   5.350  18.675  0.00  0.00    +0.000 OA
ATOM     32  C   UNL     1      48.780   5.015  18.015  0.00  0.00    +0.000 A 
ATOM     33  H   UNL     1      45.998   3.586  17.046  0.00  0.00    +0.000 HD
ENDBRANCH  21  23
ENDBRANCH  20  21
ENDBRANCH   1  20
TORSDOF 8
ENDMDL
MODEL 8
REMARK VINA RESULT:    -6.946      1.849      2.306
REMARK INTER + INTRA:         -10.686
REMARK INTER:                  -9.586
REMARK INTRA:                  -1.100
REMARK UNBOUND:                -0.695
REMARK  Name = 
REMARK  9 active torsions:
REMARK  status: ('A' for Active; 'I' for Inactive)
REMARK    1  A    between atoms: C_1  and  C_2
REMARK    2  A    between atoms: C_2  and  N_3
REMARK    3  A    between atoms: C_2  and  C_19
REMARK    4  A    between atoms: N_3  and  C_4
REMARK    5  A    between atoms: C_7  and  C_8
REMARK    6  A    between atoms: C_8  and  C_9
REMARK    7  A    between atoms: C_9  and  O_10
REMARK    8  A    between atoms: C_9  and  C_11
REMARK    9  A    between atoms: C_19  and  C_21
REMARK                            x       y       z     vdW  Elec       q    Type
REMARK                         _______ _______ _______ _____ _____    ______ ____
ROOT
ATOM      1  N   UNL     1      48.564   5.809  15.554  0.00  0.00    +0.000 N 
ATOM      2  H   UNL     1      48.863   4.836  15.691  0.00  0.00    +0.000 HD
ENDROOT
BRANCH   1   3
ATOM      3  C   UNL     1      47.799   5.967  14.413  0.00  0.00    +0.000 A 
ATOM      4  C   UNL     1      46.926   4.971  13.999  0.00  0.00    +0.000 A 
ATOM      5  N   UNL     1      46.149   5.029  12.898  0.00  0.00    +0.000 NA
ATOM      6  C   UNL     1      46.240   6.157  12.180  0.00  0.00    +0.000 A 
ATOM      7  N   UNL     1      47.007   7.218  12.500  0.00  0.00    +0.000 NA
ATOM      8  C   UNL     1      47.752   7.089  13.616  0.00  0.00    +0.000 A 
BRANCH   6   9
ATOM      9  C   UNL     1      45.507   6.232  10.872  0.00  0.00    +0.000 C 
BRANCH   9  10
ATOM     10  C   UNL     1      44.560   5.044  10.672  0.00  0.00    +0.000 C 
BRANCH  10  11
ATOM     11  C   UNL     1      45.105   4.106   9.614  0.00  0.00    +0.000 A 
ATOM     12  C   UNL     1      44.948   2.730   9.745  0.00  0.00    +0.000 A 
ATOM     13  N   UNL     1      45.434   1.844   8.840  0.00  0.00    +0.000 NA
ATOM     14  C   UNL     1      46.067   2.391   7.778  0.00  0.00    +0.000 A 
ATOM     15  C   UNL     1      46.201   3.756   7.619  0.00  0.00    +0.000 A 
ATOM     16  N   UNL     1      45.722   4.640   8.523  0.00  0.00    +0.000 NA
ENDBRANCH  10  11
BRANCH  10  17
ATOM     17  O   UNL     1      43.246   5.442  10.263  0.00  0.00    +0.000 OA
ATOM     18  H   UNL     1      43.007   6.231  10.783  0.00  0.00    +0.000 HD
ENDBRANCH  10  17
ENDBRANCH   9  10
ENDBRANCH   6   9
ENDBRANCH   1   3
BRANCH   1  20
ATOM     19  C   UNL     1      49.422   7.275  17.296  0.00  0.00    +0.000 C 
ATOM     20  C   UNL     1      48.218   6.451  16.842  0.00  0.00    +0.000 C 
BRANCH  20  21
ATOM     21  C   UNL     1      47.912   5.349  17.870  0.00  0.00    +0.000 C 
ATOM     22  O   UNL     1      46.884   4.671  17.743  0.00  0.00    +0.000 OA
BRANCH  21  23
ATOM     23  C   UNL     1      48.839   5.062  18.968  0.00  0.00    +0.000 A 
ATOM     24  C   UNL     1      48.672   5.413  20.297  0.00  0.00    +0.000 A 
ATOM     25  S   UNL     1      50.138   5.298  21.185  0.00  0.00    +0.000 S 
ATOM     26  C   UNL     1      50.964   4.641  19.848  0.00  0.00    +0.000 A 
ATOM     27  N   UNL     1      52.297   4.380  19.871  0.00  0.00    +0.000 NA
ATOM     28  C   UNL     1      52.745   3.824  18.791  0.00  0.00    +0.000 A 
ATOM     29  N   UNL     1      51.975   3.463  17.712  0.00  0.00    +0.000 N 
ATOM     30  C   UNL     1      50.613   3.643  17.676  0.00  0.00    +0.000 A 
ATOM     31  O   UNL     1      49.916   3.104  16.825  0.00  0.00    +0.000 OA
ATOM     32  C   UNL     1      50.104   4.408  18.798  0.00  0.00    +0.000 A 
ATOM     33  H   UNL     1      52.364   2.917  16.958  0.00  0.00    +0.000 HD
ENDBRANCH  21  23
ENDBRANCH  20  21
ENDBRANCH   1  20
TORSDOF 8
ENDMDL
MODEL 9
REMARK VINA RESULT:    -6.845      2.760      4.805
REMARK INTER + INTRA:         -10.541
REMARK INTER:                  -9.340
REMARK INTRA:                  -1.201
REMARK UNBOUND:                -0.695
REMARK  Name = 
REMARK  9 active torsions:
REMARK  status: ('A' for Active; 'I' for Inactive)
REMARK    1  A    between atoms: C_1  and  C_2
REMARK    2  A    between atoms: C_2  and  N_3
REMARK    3  A    between atoms: C_2  and  C_19
REMARK    4  A    between atoms: N_3  and  C_4
REMARK    5  A    between atoms: C_7  and  C_8
REMARK    6  A    between atoms: C_8  and  C_9
REMARK    7  A    between atoms: C_9  and  O_10
REMARK    8  A    between atoms: C_9  and  C_11
REMARK    9  A    between atoms: C_19  and  C_21
REMARK                            x       y       z     vdW  Elec       q    Type
REMARK                         _______ _______ _______ _____ _____    ______ ____
ROOT
ATOM      1  N   UNL     1      48.536   3.457  19.287  0.00  0.00    +0.000 N 
ATOM      2  H   UNL     1      47.971   2.818  19.860  0.00  0.00    +0.000 HD
ENDROOT
BRANCH   1   3
ATOM      3  C   UNL     1      48.098   3.509  17.976  0.00  0.00    +0.000 A 
ATOM      4  C   UNL     1      48.708   2.745  16.991  0.00  0.00    +0.000 A 
ATOM      5  N   UNL     1      48.360   2.737  15.688  0.00  0.00    +0.000 NA
ATOM      6  C   UNL     1      47.328   3.527  15.357  0.00  0.00    +0.000 A 
ATOM      7  N   UNL     1      46.619   4.277  16.223  0.00  0.00    +0.000 NA
ATOM      8  C   UNL     1      47.023   4.231  17.508  0.00  0.00    +0.000 A 
BRANCH   6   9
ATOM      9  C   UNL     1      46.977   3.669  13.904  0.00  0.00    +0.000 C 
BRANCH   9  10
ATOM     10  C   UNL     1      45.852   4.685  13.680  0.00  0.00    +0.000 C 
BRANCH  10  11
ATOM     11  C   UNL     1      45.183   4.446  12.341  0.00  0.00    +0.000 A 
ATOM     12  C   UNL     1      44.141   3.532  12.229  0.00  0.00    +0.000 A 
ATOM     13  N   UNL     1      43.521   3.263  11.053  0.00  0.00    +0.000 NA
ATOM     14  C   UNL     1      43.969   3.965   9.989  0.00  0.00    +0.000 A 
ATOM     15  C   UNL     1      44.981   4.900  10.092  0.00  0.00    +0.000 A 
ATOM     16  N   UNL     1      45.603   5.165  11.263  0.00  0.00    +0.000 NA
ENDBRANCH  10  11
BRANCH  10  17
ATOM     17  O   UNL     1      46.315   6.040  13.696  0.00  0.00    +0.000 OA
ATOM     18  H   UNL     1      45.796   6.516  14.370  0.00  0.00    +0.000 HD
ENDBRANCH  10  17
ENDBRANCH   9  10
ENDBRANCH   6   9
ENDBRANCH   1   3
BRANCH   1  20
ATOM     19  C   UNL     1      47.675   5.533  20.216  0.00  0.00    +0.000 C 
ATOM     20  C   UNL     1      48.921   4.665  20.049  0.00  0.00    +0.000 C 
BRANCH  20  21
ATOM     21  C   UNL     1      49.993   5.426  19.249  0.00  0.00    +0.000 C 
ATOM     22  O   UNL     1      50.957   4.804  18.785  0.00  0.00    +0.000 OA
BRANCH  21  23
ATOM     23  C   UNL     1      49.865   6.863  18.993  0.00  0.00    +0.000 A 
ATOM     24  C   UNL     1      50.117   7.883  19.896  0.00  0.00    +0.000 A 
ATOM     25  S   UNL     1      49.447   9.379  19.381  0.00  0.00    +0.000 S 
ATOM     26  C   UNL     1      48.953   8.714  17.893  0.00  0.00    +0.000 A 
ATOM     27  N   UNL     1      48.229   9.417  16.984  0.00  0.00    +0.000 NA
ATOM     28  C   UNL     1      47.996   8.776  15.884  0.00  0.00    +0.000 A 
ATOM     29  N   UNL     1      48.460   7.516  15.592  0.00  0.00    +0.000 N 
ATOM     30  C   UNL     1      49.255   6.797  16.453  0.00  0.00    +0.000 A 
ATOM     31  O   UNL     1      49.854   5.793  16.088  0.00  0.00    +0.000 OA
ATOM     32  C   UNL     1      49.400   7.418  17.756  0.00  0.00    +0.000 A 
ATOM     33  H   UNL     1      48.353   7.125  14.668  0.00  0.00    +0.000 HD
ENDBRANCH  21  23
ENDBRANCH  20  21
ENDBRANCH   1  20
TORSDOF 8
ENDMDL
