MODEL 1
REMARK VINA RESULT:    -7.717      0.000      0.000
REMARK INTER + INTRA:         -11.191
REMARK INTER:                 -10.198
REMARK INTRA:                  -0.993
REMARK UNBOUND:                -0.993
REMARK  Name = 
REMARK  6 active torsions:
REMARK  status: ('A' for Active; 'I' for Inactive)
REMARK    1  A    between atoms: C_2  and  C_19
REMARK    2  A    between atoms: N_3  and  C_4
REMARK    3  A    between atoms: C_4  and  C_5
REMARK    4  A    between atoms: C_8  and  C_9
REMARK    5  A    between atoms: C_9  and  O_10
REMARK    6  A    between atoms: C_9  and  C_11
REMARK                            x       y       z     vdW  Elec       q    Type
REMARK                         _______ _______ _______ _____ _____    ______ ____
ROOT
ATOM      1  C   UNL     1      48.204   7.544  13.939  0.00  0.00    +0.000 C 
ENDROOT
BRANCH   1   2
ATOM      2  C   UNL     1      47.158   6.816  13.130  0.00  0.00    +0.000 A 
ATOM      3  C   UNL     1      46.367   7.497  12.195  0.00  0.00    +0.000 A 
ATOM      4  C   UNL     1      45.387   6.818  11.464  0.00  0.00    +0.000 A 
ATOM      5  C   UNL     1      45.167   5.445  11.661  0.00  0.00    +0.000 A 
ATOM      6  C   UNL     1      45.912   4.784  12.649  0.00  0.00    +0.000 A 
ATOM      7  C   UNL     1      46.893   5.462  13.378  0.00  0.00    +0.000 A 
BRANCH   5   8
ATOM      8  C   UNL     1      44.213   4.682  10.765  0.00  0.00    +0.000 C 
BRANCH   8   9
ATOM      9  C   UNL     1      44.861   3.926   9.605  0.00  0.00    +0.000 A 
ATOM     10  N   UNL     1      45.491   4.630   8.641  0.00  0.00    +0.000 NA
ATOM     11  C   UNL     1      46.170   3.913   7.722  0.00  0.00    +0.000 A 
ATOM     12  C   UNL     1      46.240   2.542   7.726  0.00  0.00    +0.000 A 
ATOM     13  C   UNL     1      45.557   1.913   8.739  0.00  0.00    +0.000 A 
ATOM     14  N   UNL     1      44.869   2.571   9.692  0.00  0.00    +0.000 NA
ENDBRANCH   8   9
BRANCH   8  15
ATOM     15  O   UNL     1      43.249   5.640  10.279  0.00  0.00    +0.000 OA
ATOM     16  H   UNL     1      42.900   6.068  11.086  0.00  0.00    +0.000 HD
ENDBRANCH   8  15
ENDBRANCH   5   8
ENDBRANCH   1   2
BRANCH   1  19
ATOM     17  O   UNL     1      48.484   8.187  16.747  0.00  0.00    +0.000 OA
ATOM     18  C   UNL     1      48.792   7.090  16.308  0.00  0.00    +0.000 C 
ATOM     19  N   UNL     1      48.619   6.682  15.008  0.00  0.00    +0.000 N 
ATOM     20  H   UNL     1      49.038   5.812  14.719  0.00  0.00    +0.000 HD
BRANCH  18  21
ATOM     21  C   UNL     1      49.590   6.114  17.041  0.00  0.00    +0.000 A 
ATOM     22  C   UNL     1      50.806   6.427  17.620  0.00  0.00    +0.000 A 
ATOM     23  S   UNL     1      51.751   5.020  17.901  0.00  0.00    +0.000 S 
ATOM     24  C   UNL     1      50.495   3.996  17.369  0.00  0.00    +0.000 A 
ATOM     25  N   UNL     1      50.662   2.658  17.195  0.00  0.00    +0.000 NA
ATOM     26  C   UNL     1      49.592   2.035  16.817  0.00  0.00    +0.000 A 
ATOM     27  N   UNL     1      48.358   2.615  16.650  0.00  0.00    +0.000 N 
ATOM     28  C   UNL     1      48.137   3.957  16.831  0.00  0.00    +0.000 A 
ATOM     29  O   UNL     1      47.014   4.449  16.749  0.00  0.00    +0.000 OA
ATOM     30  C   UNL     1      49.337   4.707  17.129  0.00  0.00    +0.000 A 
ATOM     31  H   UNL     1      47.545   2.059  16.429  0.00  0.00    +0.000 HD
ENDBRANCH  18  21
ENDBRANCH   1  19
TORSDOF 6
ENDMDL
MODEL 2
REMARK VINA RESULT:    -7.246      2.767      4.562
REMARK INTER + INTRA:         -10.569
REMARK INTER:                  -9.600
REMARK INTRA:                  -0.969
REMARK UNBOUND:                -0.993
REMARK  Name = 
REMARK  6 active torsions:
REMARK  status: ('A' for Active; 'I' for Inactive)
REMARK    1  A    between atoms: C_2  and  C_19
REMARK    2  A    between atoms: N_3  and  C_4
REMARK    3  A    between atoms: C_4  and  C_5
REMARK    4  A    between atoms: C_8  and  C_9
REMARK    5  A    between atoms: C_9  and  O_10
REMARK    6  A    between atoms: C_9  and  C_11
REMARK                            x       y       z     vdW  Elec       q    Type
REMARK                         _______ _______ _______ _____ _____    ______ ____
ROOT
ATOM      1  C   UNL     1      47.438   5.506  14.711  0.00  0.00    +0.000 C 
ENDROOT
BRANCH   1   2
ATOM      2  C   UNL     1      46.587   5.102  13.531  0.00  0.00    +0.000 A 
ATOM      3  C   UNL     1      46.048   6.066  12.669  0.00  0.00    +0.000 A 
ATOM      4  C   UNL     1      45.244   5.683  11.590  0.00  0.00    +0.000 A 
ATOM      5  C   UNL     1      44.951   4.330  11.358  0.00  0.00    +0.000 A 
ATOM      6  C   UNL     1      45.434   3.376  12.266  0.00  0.00    +0.000 A 
ATOM      7  C   UNL     1      46.239   3.757  13.343  0.00  0.00    +0.000 A 
BRANCH   5   8
ATOM      8  C   UNL     1      44.208   3.907  10.106  0.00  0.00    +0.000 C 
BRANCH   8   9
ATOM      9  C   UNL     1      45.079   3.357   8.978  0.00  0.00    +0.000 A 
ATOM     10  N   UNL     1      45.663   4.225   8.123  0.00  0.00    +0.000 NA
ATOM     11  C   UNL     1      46.535   3.699   7.239  0.00  0.00    +0.000 A 
ATOM     12  C   UNL     1      46.841   2.362   7.173  0.00  0.00    +0.000 A 
ATOM     13  C   UNL     1      46.189   1.557   8.075  0.00  0.00    +0.000 A 
ATOM     14  N   UNL     1      45.314   2.019   8.988  0.00  0.00    +0.000 NA
ENDBRANCH   8   9
BRANCH   8  15
ATOM     15  O   UNL     1      43.460   5.059   9.663  0.00  0.00    +0.000 OA
ATOM     16  H   UNL     1      43.020   5.392  10.470  0.00  0.00    +0.000 HD
ENDBRANCH   8  15
ENDBRANCH   5   8
ENDBRANCH   1   2
BRANCH   1  19
ATOM     17  O   UNL     1      50.066   6.422  15.506  0.00  0.00    +0.000 OA
ATOM     18  C   UNL     1      49.304   7.136  14.873  0.00  0.00    +0.000 C 
ATOM     19  N   UNL     1      48.075   6.751  14.394  0.00  0.00    +0.000 N 
ATOM     20  H   UNL     1      47.468   7.458  14.011  0.00  0.00    +0.000 HD
BRANCH  18  21
ATOM     21  C   UNL     1      49.481   8.575  14.711  0.00  0.00    +0.000 A 
ATOM     22  C   UNL     1      49.789   9.414  15.766  0.00  0.00    +0.000 A 
ATOM     23  S   UNL     1      49.384  11.045  15.412  0.00  0.00    +0.000 S 
ATOM     24  C   UNL     1      48.920  10.649  13.819  0.00  0.00    +0.000 A 
ATOM     25  N   UNL     1      48.321  11.540  12.986  0.00  0.00    +0.000 NA
ATOM     26  C   UNL     1      48.068  11.075  11.805  0.00  0.00    +0.000 A 
ATOM     27  N   UNL     1      48.408   9.818  11.362  0.00  0.00    +0.000 N 
ATOM     28  C   UNL     1      49.029   8.892  12.161  0.00  0.00    +0.000 A 
ATOM     29  O   UNL     1      49.392   7.799  11.730  0.00  0.00    +0.000 OA
ATOM     30  C   UNL     1      49.212   9.333  13.526  0.00  0.00    +0.000 A 
ATOM     31  H   UNL     1      48.253   9.544  10.404  0.00  0.00    +0.000 HD
ENDBRANCH  18  21
ENDBRANCH   1  19
TORSDOF 6
ENDMDL
MODEL 3
REMARK VINA RESULT:    -7.214      1.802      2.043
REMARK INTER + INTRA:         -10.527
REMARK INTER:                  -9.483
REMARK INTRA:                  -1.044
REMARK UNBOUND:                -0.993
REMARK  Name = 
REMARK  6 active torsions:
REMARK  status: ('A' for Active; 'I' for Inactive)
REMARK    1  A    between atoms: C_2  and  C_19
REMARK    2  A    between atoms: N_3  and  C_4
REMARK    3  A    between atoms: C_4  and  C_5
REMARK    4  A    between atoms: C_8  and  C_9
REMARK    5  A    between atoms: C_9  and  O_10
REMARK    6  A    between atoms: C_9  and  C_11
REMARK                            x       y       z     vdW  Elec       q    Type
REMARK                         _______ _______ _______ _____ _____    ______ ____
ROOT
ATOM      1  C   UNL     1      48.568   7.460  13.756  0.00  0.00    +0.000 C 
ENDROOT
BRANCH   1   2
ATOM      2  C   UNL     1      47.447   6.767  13.019  0.00  0.00    +0.000 A 
ATOM      3  C   UNL     1      46.644   7.466  12.108  0.00  0.00    +0.000 A 
ATOM      4  C   UNL     1      45.596   6.821  11.444  0.00  0.00    +0.000 A 
ATOM      5  C   UNL     1      45.319   5.466  11.686  0.00  0.00    +0.000 A 
ATOM      6  C   UNL     1      46.080   4.790  12.652  0.00  0.00    +0.000 A 
ATOM      7  C   UNL     1      47.129   5.434  13.314  0.00  0.00    +0.000 A 
BRANCH   5   8
ATOM      8  C   UNL     1      44.284   4.731  10.858  0.00  0.00    +0.000 C 
BRANCH   8   9
ATOM      9  C   UNL     1      44.832   3.934   9.675  0.00  0.00    +0.000 A 
ATOM     10  N   UNL     1      45.383   4.603   8.639  0.00  0.00    +0.000 NA
ATOM     11  C   UNL     1      45.982   3.852   7.692  0.00  0.00    +0.000 A 
ATOM     12  C   UNL     1      46.048   2.481   7.736  0.00  0.00    +0.000 A 
ATOM     13  C   UNL     1      45.449   1.890   8.822  0.00  0.00    +0.000 A 
ATOM     14  N   UNL     1      44.843   2.583   9.805  0.00  0.00    +0.000 NA
ENDBRANCH   8   9
BRANCH   8  15
ATOM     15  O   UNL     1      43.334   5.723  10.414  0.00  0.00    +0.000 OA
ATOM     16  H   UNL     1      42.466   5.276  10.473  0.00  0.00    +0.000 HD
ENDBRANCH   8  15
ENDBRANCH   5   8
ENDBRANCH   1   2
BRANCH   1  19
ATOM     17  O   UNL     1      50.219   8.175  16.022  0.00  0.00    +0.000 OA
ATOM     18  C   UNL     1      49.042   7.880  16.157  0.00  0.00    +0.000 C 
ATOM     19  N   UNL     1      48.174   7.604  15.128  0.00  0.00    +0.000 N 
ATOM     20  H   UNL     1      47.266   7.232  15.355  0.00  0.00    +0.000 HD
BRANCH  18  21
ATOM     21  C   UNL     1      48.423   7.562  17.438  0.00  0.00    +0.000 A 
ATOM     22  C   UNL     1      47.917   8.531  18.285  0.00  0.00    +0.000 A 
ATOM     23  S   UNL     1      47.781   7.951  19.896  0.00  0.00    +0.000 S 
ATOM     24  C   UNL     1      48.275   6.384  19.439  0.00  0.00    +0.000 A 
ATOM     25  N   UNL     1      48.531   5.401  20.342  0.00  0.00    +0.000 NA
ATOM     26  C   UNL     1      48.863   4.268  19.814  0.00  0.00    +0.000 A 
ATOM     27  N   UNL     1      48.909   4.009  18.464  0.00  0.00    +0.000 N 
ATOM     28  C   UNL     1      48.640   4.963  17.516  0.00  0.00    +0.000 A 
ATOM     29  O   UNL     1      48.614   4.699  16.316  0.00  0.00    +0.000 OA
ATOM     30  C   UNL     1      48.391   6.276  18.069  0.00  0.00    +0.000 A 
ATOM     31  H   UNL     1      49.099   3.081  18.118  0.00  0.00    +0.000 HD
ENDBRANCH  18  21
ENDBRANCH   1  19
TORSDOF 6
ENDMDL
MODEL 4
REMARK VINA RESULT:    -7.140      2.092      2.935
REMARK INTER + INTRA:         -10.428
REMARK INTER:                  -9.555
REMARK INTRA:                  -0.874
REMARK UNBOUND:                -0.993
REMARK  Name = 
REMARK  6 active torsions:
REMARK  status: ('A' for Active; 'I' for Inactive)
REMARK    1  A    between atoms: C_2  and  C_19
REMARK    2  A    between atoms: N_3  and  C_4
REMARK    3  A    between atoms: C_4  and  C_5
REMARK    4  A    between atoms: C_8  and  C_9
REMARK    5  A    between atoms: C_9  and  O_10
REMARK    6  A    between atoms: C_9  and  C_11
REMARK                            x       y       z     vdW  Elec       q    Type
REMARK                         _______ _______ _______ _____ _____    ______ ____
ROOT
ATOM      1  C   UNL     1      47.969   7.940  13.851  0.00  0.00    +0.000 C 
ENDROOT
BRANCH   1   2
ATOM      2  C   UNL     1      47.005   7.093  13.055  0.00  0.00    +0.000 A 
ATOM      3  C   UNL     1      46.153   7.671  12.106  0.00  0.00    +0.000 A 
ATOM      4  C   UNL     1      45.251   6.881  11.387  0.00  0.00    +0.000 A 
ATOM      5  C   UNL     1      45.171   5.497  11.611  0.00  0.00    +0.000 A 
ATOM      6  C   UNL     1      45.976   4.935  12.613  0.00  0.00    +0.000 A 
ATOM      7  C   UNL     1      46.880   5.724  13.330  0.00  0.00    +0.000 A 
BRANCH   5   8
ATOM      8  C   UNL     1      44.304   4.623  10.728  0.00  0.00    +0.000 C 
BRANCH   8   9
ATOM      9  C   UNL     1      45.047   3.822   9.660  0.00  0.00    +0.000 A 
ATOM     10  N   UNL     1      45.045   2.474   9.737  0.00  0.00    +0.000 NA
ATOM     11  C   UNL     1      45.588   1.813   8.695  0.00  0.00    +0.000 A 
ATOM     12  C   UNL     1      46.129   2.435   7.596  0.00  0.00    +0.000 A 
ATOM     13  C   UNL     1      46.096   3.808   7.613  0.00  0.00    +0.000 A 
ATOM     14  N   UNL     1      45.560   4.527   8.618  0.00  0.00    +0.000 NA
ENDBRANCH   8   9
BRANCH   8  15
ATOM     15  O   UNL     1      43.320   5.492  10.127  0.00  0.00    +0.000 OA
ATOM     16  H   UNL     1      43.036   5.021   9.319  0.00  0.00    +0.000 HD
ENDBRANCH   8  15
ENDBRANCH   5   8
ENDBRANCH   1   2
BRANCH   1  19
ATOM     17  O   UNL     1      50.273   6.784  15.167  0.00  0.00    +0.000 OA
ATOM     18  C   UNL     1      49.174   6.798  15.698  0.00  0.00    +0.000 C 
ATOM     19  N   UNL     1      48.051   7.393  15.175  0.00  0.00    +0.000 N 
ATOM     20  H   UNL     1      47.166   7.223  15.625  0.00  0.00    +0.000 HD
BRANCH  18  21
ATOM     21  C   UNL     1      48.824   6.002  16.869  0.00  0.00    +0.000 A 
ATOM     22  C   UNL     1      48.348   4.706  16.776  0.00  0.00    +0.000 A 
ATOM     23  S   UNL     1      47.510   4.240  18.201  0.00  0.00    +0.000 S 
ATOM     24  C   UNL     1      47.889   5.710  18.979  0.00  0.00    +0.000 A 
ATOM     25  N   UNL     1      47.362   6.062  20.181  0.00  0.00    +0.000 NA
ATOM     26  C   UNL     1      47.786   7.197  20.635  0.00  0.00    +0.000 A 
ATOM     27  N   UNL     1      48.731   7.988  20.025  0.00  0.00    +0.000 N 
ATOM     28  C   UNL     1      49.304   7.665  18.821  0.00  0.00    +0.000 A 
ATOM     29  O   UNL     1      50.200   8.344  18.323  0.00  0.00    +0.000 OA
ATOM     30  C   UNL     1      48.759   6.466  18.222  0.00  0.00    +0.000 A 
ATOM     31  H   UNL     1      49.077   8.824  20.469  0.00  0.00    +0.000 HD
ENDBRANCH  18  21
ENDBRANCH   1  19
TORSDOF 6
ENDMDL
MODEL 5
REMARK VINA RESULT:    -6.918      3.013      4.432
REMARK INTER + INTRA:         -10.136
REMARK INTER:                  -9.221
REMARK INTRA:                  -0.914
REMARK UNBOUND:                -0.993
REMARK  Name = 
REMARK  6 active torsions:
REMARK  status: ('A' for Active; 'I' for Inactive)
REMARK    1  A    between atoms: C_2  and  C_19
REMARK    2  A    between atoms: N_3  and  C_4
REMARK    3  A    between atoms: C_4  and  C_5
REMARK    4  A    between atoms: C_8  and  C_9
REMARK    5  A    between atoms: C_9  and  O_10
REMARK    6  A    between atoms: C_9  and  C_11
REMARK                            x       y       z     vdW  Elec       q    Type
REMARK                         _______ _______ _______ _____ _____    ______ ____
ROOT
ATOM      1  C   UNL     1      47.559   5.763  14.518  0.00  0.00    +0.000 C 
ENDROOT
BRANCH   1   2
ATOM      2  C   UNL     1      46.692   5.292  13.375  0.00  0.00    +0.000 A 
ATOM      3  C   UNL     1      46.231   6.190  12.403  0.00  0.00    +0.000 A 
ATOM      4  C   UNL     1      45.412   5.747  11.360  0.00  0.00    +0.000 A 
ATOM      5  C   UNL     1      45.024   4.401  11.273  0.00  0.00    +0.000 A 
ATOM      6  C   UNL     1      45.430   3.521  12.288  0.00  0.00    +0.000 A 
ATOM      7  C   UNL     1      46.250   3.962  13.330  0.00  0.00    +0.000 A 
BRANCH   5   8
ATOM      8  C   UNL     1      44.264   3.895  10.063  0.00  0.00    +0.000 C 
BRANCH   8   9
ATOM      9  C   UNL     1      45.124   3.318   8.939  0.00  0.00    +0.000 A 
ATOM     10  N   UNL     1      45.680   4.164   8.045  0.00  0.00    +0.000 NA
ATOM     11  C   UNL     1      46.545   3.621   7.164  0.00  0.00    +0.000 A 
ATOM     12  C   UNL     1      46.870   2.287   7.139  0.00  0.00    +0.000 A 
ATOM     13  C   UNL     1      46.245   1.504   8.079  0.00  0.00    +0.000 A 
ATOM     14  N   UNL     1      45.379   1.985   8.991  0.00  0.00    +0.000 NA
ENDBRANCH   8   9
BRANCH   8  15
ATOM     15  O   UNL     1      43.468   5.000   9.586  0.00  0.00    +0.000 OA
ATOM     16  H   UNL     1      43.038   5.357  10.388  0.00  0.00    +0.000 HD
ENDBRANCH   8  15
ENDBRANCH   5   8
ENDBRANCH   1   2
BRANCH   1  19
ATOM     17  O   UNL     1      48.346   8.296  15.676  0.00  0.00    +0.000 OA
ATOM     18  C   UNL     1      48.757   7.937  14.584  0.00  0.00    +0.000 C 
ATOM     19  N   UNL     1      48.493   6.722  14.000  0.00  0.00    +0.000 N 
ATOM     20  H   UNL     1      48.760   6.584  13.039  0.00  0.00    +0.000 HD
BRANCH  18  21
ATOM     21  C   UNL     1      49.414   8.823  13.629  0.00  0.00    +0.000 A 
ATOM     22  C   UNL     1      48.714   9.693  12.813  0.00  0.00    +0.000 A 
ATOM     23  S   UNL     1      49.648  10.167  11.451  0.00  0.00    +0.000 S 
ATOM     24  C   UNL     1      51.015   9.316  12.014  0.00  0.00    +0.000 A 
ATOM     25  N   UNL     1      52.140   9.158  11.269  0.00  0.00    +0.000 NA
ATOM     26  C   UNL     1      53.088   8.512  11.869  0.00  0.00    +0.000 A 
ATOM     27  N   UNL     1      53.035   8.058  13.165  0.00  0.00    +0.000 N 
ATOM     28  C   UNL     1      51.928   8.210  13.961  0.00  0.00    +0.000 A 
ATOM     29  O   UNL     1      51.922   7.862  15.140  0.00  0.00    +0.000 OA
ATOM     30  C   UNL     1      50.804   8.813  13.281  0.00  0.00    +0.000 A 
ATOM     31  H   UNL     1      53.838   7.630  13.601  0.00  0.00    +0.000 HD
ENDBRANCH  18  21
ENDBRANCH   1  19
TORSDOF 6
ENDMDL
MODEL 6
REMARK VINA RESULT:    -6.516      3.993      9.168
REMARK INTER + INTRA:          -9.604
REMARK INTER:                  -8.766
REMARK INTRA:                  -0.838
REMARK UNBOUND:                -0.993
REMARK  Name = 
REMARK  6 active torsions:
REMARK  status: ('A' for Active; 'I' for Inactive)
REMARK    1  A    between atoms: C_2  and  C_19
REMARK    2  A    between atoms: N_3  and  C_4
REMARK    3  A    between atoms: C_4  and  C_5
REMARK    4  A    between atoms: C_8  and  C_9
REMARK    5  A    between atoms: C_9  and  O_10
REMARK    6  A    between atoms: C_9  and  C_11
REMARK                            x       y       z     vdW  Elec       q    Type
REMARK                         _______ _______ _______ _____ _____    ______ ____
ROOT
ATOM      1  C   UNL     1      47.247   3.913  16.795  0.00  0.00    +0.000 C 
ENDROOT
BRANCH   1   2
ATOM      2  C   UNL     1      47.720   5.077  17.633  0.00  0.00    +0.000 A 
ATOM      3  C   UNL     1      48.906   5.754  17.321  0.00  0.00    +0.000 A 
ATOM      4  C   UNL     1      49.346   6.818  18.114  0.00  0.00    +0.000 A 
ATOM      5  C   UNL     1      48.617   7.221  19.244  0.00  0.00    +0.000 A 
ATOM      6  C   UNL     1      47.468   6.494  19.593  0.00  0.00    +0.000 A 
ATOM      7  C   UNL     1      47.027   5.431  18.799  0.00  0.00    +0.000 A 
BRANCH   5   8
ATOM      8  C   UNL     1      49.012   8.466  20.012  0.00  0.00    +0.000 C 
BRANCH   8   9
ATOM      9  C   UNL     1      47.852   9.306  20.547  0.00  0.00    +0.000 A 
ATOM     10  N   UNL     1      47.151  10.071  19.684  0.00  0.00    +0.000 NA
ATOM     11  C   UNL     1      46.052  10.676  20.177  0.00  0.00    +0.000 A 
ATOM     12  C   UNL     1      45.632  10.552  21.479  0.00  0.00    +0.000 A 
ATOM     13  C   UNL     1      46.417   9.762  22.284  0.00  0.00    +0.000 A 
ATOM     14  N   UNL     1      47.521   9.124  21.851  0.00  0.00    +0.000 NA
ENDBRANCH   8   9
BRANCH   8  15
ATOM     15  O   UNL     1      49.848   9.245  19.131  0.00  0.00    +0.000 OA
ATOM     16  H   UNL     1      50.702   9.316  19.601  0.00  0.00    +0.000 HD
ENDBRANCH   8  15
ENDBRANCH   5   8
ENDBRANCH   1   2
BRANCH   1  19
ATOM     17  O   UNL     1      47.606   3.185  14.017  0.00  0.00    +0.000 OA
ATOM     18  C   UNL     1      46.850   4.084  14.350  0.00  0.00    +0.000 C 
ATOM     19  N   UNL     1      46.567   4.439  15.647  0.00  0.00    +0.000 N 
ATOM     20  H   UNL     1      46.044   5.285  15.809  0.00  0.00    +0.000 HD
BRANCH  18  21
ATOM     21  C   UNL     1      46.294   5.066  13.426  0.00  0.00    +0.000 A 
ATOM     22  C   UNL     1      46.825   6.334  13.274  0.00  0.00    +0.000 A 
ATOM     23  S   UNL     1      45.682   7.418  12.588  0.00  0.00    +0.000 S 
ATOM     24  C   UNL     1      44.534   6.173  12.382  0.00  0.00    +0.000 A 
ATOM     25  N   UNL     1      43.257   6.411  11.984  0.00  0.00    +0.000 NA
ATOM     26  C   UNL     1      42.535   5.345  11.851  0.00  0.00    +0.000 A 
ATOM     27  N   UNL     1      42.988   4.059  12.024  0.00  0.00    +0.000 N 
ATOM     28  C   UNL     1      44.273   3.769  12.407  0.00  0.00    +0.000 A 
ATOM     29  O   UNL     1      44.683   2.613  12.487  0.00  0.00    +0.000 OA
ATOM     30  C   UNL     1      45.072   4.941  12.690  0.00  0.00    +0.000 A 
ATOM     31  H   UNL     1      42.395   3.267  11.828  0.00  0.00    +0.000 HD
ENDBRANCH  18  21
ENDBRANCH   1  19
TORSDOF 6
ENDMDL
MODEL 7
REMARK VINA RESULT:    -6.214      2.289      3.045
REMARK INTER + INTRA:          -9.205
REMARK INTER:                  -8.130
REMARK INTRA:                  -1.075
REMARK UNBOUND:                -0.993
REMARK  Name = 
REMARK  6 active torsions:
REMARK  status: ('A' for Active; 'I' for Inactive)
REMARK    1  A    between atoms: C_2  and  C_19
REMARK    2  A    between atoms: N_3  and  C_4
REMARK    3  A    between atoms: C_4  and  C_5
REMARK    4  A    between atoms: C_8  and  C_9
REMARK    5  A    between atoms: C_9  and  O_10
REMARK    6  A    between atoms: C_9  and  C_11
REMARK                            x       y       z     vdW  Elec       q    Type
REMARK                         _______ _______ _______ _____ _____    ______ ____
ROOT
ATOM      1  C   UNL     1      48.185   9.150  14.396  0.00  0.00    +0.000 C 
ENDROOT
BRANCH   1   2
ATOM      2  C   UNL     1      47.363   8.400  13.376  0.00  0.00    +0.000 A 
ATOM      3  C   UNL     1      47.840   7.219  12.792  0.00  0.00    +0.000 A 
ATOM      4  C   UNL     1      47.079   6.543  11.834  0.00  0.00    +0.000 A 
ATOM      5  C   UNL     1      45.830   7.039  11.428  0.00  0.00    +0.000 A 
ATOM      6  C   UNL     1      45.389   8.259  11.962  0.00  0.00    +0.000 A 
ATOM      7  C   UNL     1      46.149   8.935  12.922  0.00  0.00    +0.000 A 
BRANCH   5   8
ATOM      8  C   UNL     1      44.942   6.228  10.505  0.00  0.00    +0.000 C 
BRANCH   8   9
ATOM      9  C   UNL     1      44.313   4.981  11.124  0.00  0.00    +0.000 A 
ATOM     10  N   UNL     1      44.272   3.844  10.397  0.00  0.00    +0.000 NA
ATOM     11  C   UNL     1      43.841   2.739  11.039  0.00  0.00    +0.000 A 
ATOM     12  C   UNL     1      43.453   2.725  12.356  0.00  0.00    +0.000 A 
ATOM     13  C   UNL     1      43.518   3.932  13.009  0.00  0.00    +0.000 A 
ATOM     14  N   UNL     1      43.947   5.069  12.428  0.00  0.00    +0.000 NA
ENDBRANCH   8   9
BRANCH   8  15
ATOM     15  O   UNL     1      45.748   5.883   9.358  0.00  0.00    +0.000 OA
ATOM     16  H   UNL     1      46.055   4.972   9.539  0.00  0.00    +0.000 HD
ENDBRANCH   8  15
ENDBRANCH   5   8
ENDBRANCH   1   2
BRANCH   1  19
ATOM     17  O   UNL     1      49.608   9.542  16.886  0.00  0.00    +0.000 OA
ATOM     18  C   UNL     1      48.627   8.818  16.817  0.00  0.00    +0.000 C 
ATOM     19  N   UNL     1      47.854   8.640  15.695  0.00  0.00    +0.000 N 
ATOM     20  H   UNL     1      47.156   7.913  15.705  0.00  0.00    +0.000 HD
BRANCH  18  21
ATOM     21  C   UNL     1      48.245   7.862  17.850  0.00  0.00    +0.000 A 
ATOM     22  C   UNL     1      47.565   8.231  18.996  0.00  0.00    +0.000 A 
ATOM     23  S   UNL     1      47.750   7.063  20.242  0.00  0.00    +0.000 S 
ATOM     24  C   UNL     1      48.625   6.018  19.216  0.00  0.00    +0.000 A 
ATOM     25  N   UNL     1      49.233   4.888  19.665  0.00  0.00    +0.000 NA
ATOM     26  C   UNL     1      49.824   4.201  18.742  0.00  0.00    +0.000 A 
ATOM     27  N   UNL     1      49.817   4.509  17.402  0.00  0.00    +0.000 N 
ATOM     28  C   UNL     1      49.201   5.627  16.900  0.00  0.00    +0.000 A 
ATOM     29  O   UNL     1      49.140   5.851  15.693  0.00  0.00    +0.000 OA
ATOM     30  C   UNL     1      48.640   6.487  17.919  0.00  0.00    +0.000 A 
ATOM     31  H   UNL     1      50.230   3.889  16.722  0.00  0.00    +0.000 HD
ENDBRANCH  18  21
ENDBRANCH   1  19
TORSDOF 6
ENDMDL
MODEL 8
REMARK VINA RESULT:    -6.192      2.310      3.795
REMARK INTER + INTRA:          -9.176
REMARK INTER:                  -8.522
REMARK INTRA:                  -0.654
REMARK UNBOUND:                -0.993
REMARK  Name = 
REMARK  6 active torsions:
REMARK  status: ('A' for Active; 'I' for Inactive)
REMARK    1  A    between atoms: C_2  and  C_19
REMARK    2  A    between atoms: N_3  and  C_4
REMARK    3  A    between atoms: C_4  and  C_5
REMARK    4  A    between atoms: C_8  and  C_9
REMARK    5  A    between atoms: C_9  and  O_10
REMARK    6  A    between atoms: C_9  and  C_11
REMARK                            x       y       z     vdW  Elec       q    Type
REMARK                         _______ _______ _______ _____ _____    ______ ____
ROOT
ATOM      1  C   UNL     1      47.744   4.106  15.517  0.00  0.00    +0.000 C 
ENDROOT
BRANCH   1   2
ATOM      2  C   UNL     1      46.913   4.437  14.300  0.00  0.00    +0.000 A 
ATOM      3  C   UNL     1      46.658   5.767  13.941  0.00  0.00    +0.000 A 
ATOM      4  C   UNL     1      45.872   6.063  12.824  0.00  0.00    +0.000 A 
ATOM      5  C   UNL     1      45.311   5.036  12.048  0.00  0.00    +0.000 A 
ATOM      6  C   UNL     1      45.509   3.707  12.454  0.00  0.00    +0.000 A 
ATOM      7  C   UNL     1      46.297   3.411  13.569  0.00  0.00    +0.000 A 
BRANCH   5   8
ATOM      8  C   UNL     1      44.587   5.355  10.756  0.00  0.00    +0.000 C 
BRANCH   8   9
ATOM      9  C   UNL     1      44.981   4.500   9.552  0.00  0.00    +0.000 A 
ATOM     10  N   UNL     1      45.916   4.970   8.698  0.00  0.00    +0.000 NA
ATOM     11  C   UNL     1      46.332   4.118   7.739  0.00  0.00    +0.000 A 
ATOM     12  C   UNL     1      45.859   2.837   7.599  0.00  0.00    +0.000 A 
ATOM     13  C   UNL     1      44.902   2.453   8.507  0.00  0.00    +0.000 A 
ATOM     14  N   UNL     1      44.450   3.252   9.493  0.00  0.00    +0.000 NA
ENDBRANCH   8   9
BRANCH   8  15
ATOM     15  O   UNL     1      44.817   6.755  10.490  0.00  0.00    +0.000 OA
ATOM     16  H   UNL     1      44.520   7.211  11.302  0.00  0.00    +0.000 HD
ENDBRANCH   8  15
ENDBRANCH   5   8
ENDBRANCH   1   2
BRANCH   1  19
ATOM     17  O   UNL     1      50.069   5.671  16.237  0.00  0.00    +0.000 OA
ATOM     18  C   UNL     1      48.965   5.919  16.694  0.00  0.00    +0.000 C 
ATOM     19  N   UNL     1      47.803   5.275  16.346  0.00  0.00    +0.000 N 
ATOM     20  H   UNL     1      46.973   5.459  16.887  0.00  0.00    +0.000 HD
BRANCH  18  21
ATOM     21  C   UNL     1      48.735   6.790  17.841  0.00  0.00    +0.000 A 
ATOM     22  C   UNL     1      48.478   6.303  19.110  0.00  0.00    +0.000 A 
ATOM     23  S   UNL     1      47.709   7.484  20.093  0.00  0.00    +0.000 S 
ATOM     24  C   UNL     1      47.834   8.670  18.874  0.00  0.00    +0.000 A 
ATOM     25  N   UNL     1      47.242   9.890  18.973  0.00  0.00    +0.000 NA
ATOM     26  C   UNL     1      47.470  10.673  17.968  0.00  0.00    +0.000 A 
ATOM     27  N   UNL     1      48.281  10.371  16.900  0.00  0.00    +0.000 N 
ATOM     28  C   UNL     1      48.914   9.161  16.766  0.00  0.00    +0.000 A 
ATOM     29  O   UNL     1      49.692   8.932  15.843  0.00  0.00    +0.000 OA
ATOM     30  C   UNL     1      48.579   8.214  17.807  0.00  0.00    +0.000 A 
ATOM     31  H   UNL     1      48.480  11.056  16.187  0.00  0.00    +0.000 HD
ENDBRANCH  18  21
ENDBRANCH   1  19
TORSDOF 6
ENDMDL
MODEL 9
REMARK VINA RESULT:    -6.155      1.954      2.538
REMARK INTER + INTRA:          -9.127
REMARK INTER:                  -8.166
REMARK INTRA:                  -0.962
REMARK UNBOUND:                -0.993
REMARK  Name = 
REMARK  6 active torsions:
REMARK  status: ('A' for Active; 'I' for Inactive)
REMARK    1  A    between atoms: C_2  and  C_19
REMARK    2  A    between atoms: N_3  and  C_4
REMARK    3  A    between atoms: C_4  and  C_5
REMARK    4  A    between atoms: C_8  and  C_9
REMARK    5  A    between atoms: C_9  and  O_10
REMARK    6  A    between atoms: C_9  and  C_11
REMARK                            x       y       z     vdW  Elec       q    Type
REMARK                         _______ _______ _______ _____ _____    ______ ____
ROOT
ATOM      1  C   UNL     1      50.016   8.114  13.493  0.00  0.00    +0.000 C 
ENDROOT
BRANCH   1   2
ATOM      2  C   UNL     1      48.573   7.856  13.130  0.00  0.00    +0.000 A 
ATOM      3  C   UNL     1      47.550   8.684  13.610  0.00  0.00    +0.000 A 
ATOM      4  C   UNL     1      46.215   8.426  13.284  0.00  0.00    +0.000 A 
ATOM      5  C   UNL     1      45.872   7.327  12.481  0.00  0.00    +0.000 A 
ATOM      6  C   UNL     1      46.893   6.460  12.062  0.00  0.00    +0.000 A 
ATOM      7  C   UNL     1      48.228   6.719  12.386  0.00  0.00    +0.000 A 
BRANCH   5   8
ATOM      8  C   UNL     1      44.446   7.136  12.005  0.00  0.00    +0.000 C 
BRANCH   8   9
ATOM      9  C   UNL     1      43.982   5.685  11.879  0.00  0.00    +0.000 A 
ATOM     10  N   UNL     1      44.009   5.097  10.664  0.00  0.00    +0.000 NA
ATOM     11  C   UNL     1      43.730   3.778  10.632  0.00  0.00    +0.000 A 
ATOM     12  C   UNL     1      43.428   3.035  11.746  0.00  0.00    +0.000 A 
ATOM     13  C   UNL     1      43.414   3.723  12.935  0.00  0.00    +0.000 A 
ATOM     14  N   UNL     1      43.691   5.037  13.036  0.00  0.00    +0.000 NA
ENDBRANCH   8   9
BRANCH   8  15
ATOM     15  O   UNL     1      44.339   7.822  10.740  0.00  0.00    +0.000 OA
ATOM     16  H   UNL     1      44.813   7.246  10.107  0.00  0.00    +0.000 HD
ENDBRANCH   8  15
ENDBRANCH   5   8
ENDBRANCH   1   2
BRANCH   1  19
ATOM     17  O   UNL     1      50.164   8.865  16.284  0.00  0.00    +0.000 OA
ATOM     18  C   UNL     1      50.461   7.743  15.907  0.00  0.00    +0.000 C 
ATOM     19  N   UNL     1      50.346   7.286  14.617  0.00  0.00    +0.000 N 
ATOM     20  H   UNL     1      50.753   6.393  14.386  0.00  0.00    +0.000 HD
BRANCH  18  21
ATOM     21  C   UNL     1      51.189   6.775  16.721  0.00  0.00    +0.000 A 
ATOM     22  C   UNL     1      52.548   6.873  16.961  0.00  0.00    +0.000 A 
ATOM     23  S   UNL     1      53.213   5.363  17.439  0.00  0.00    +0.000 S 
ATOM     24  C   UNL     1      51.678   4.619  17.445  0.00  0.00    +0.000 A 
ATOM     25  N   UNL     1      51.511   3.281  17.617  0.00  0.00    +0.000 NA
ATOM     26  C   UNL     1      50.275   2.898  17.624  0.00  0.00    +0.000 A 
ATOM     27  N   UNL     1      49.188   3.734  17.533  0.00  0.00    +0.000 N 
ATOM     28  C   UNL     1      49.307   5.092  17.377  0.00  0.00    +0.000 A 
ATOM     29  O   UNL     1      48.328   5.835  17.369  0.00  0.00    +0.000 OA
ATOM     30  C   UNL     1      50.674   5.542  17.235  0.00  0.00    +0.000 A 
ATOM     31  H   UNL     1      48.248   3.380  17.624  0.00  0.00    +0.000 HD
ENDBRANCH  18  21
ENDBRANCH   1  19
TORSDOF 6
ENDMDL
