MODEL 1
REMARK VINA RESULT:    -8.143      0.000      0.000
REMARK INTER + INTRA:         -12.699
REMARK INTER:                 -11.475
REMARK INTRA:                  -1.224
REMARK UNBOUND:                -1.224
REMARK  Name = 
REMARK  9 active torsions:
REMARK  status: ('A' for Active; 'I' for Inactive)
REMARK    1  A    between atoms: C_1  and  N_2
REMARK    2  A    between atoms: N_2  and  C_3
REMARK    3  A    between atoms: N_2  and  C_10
REMARK    4  A    between atoms: C_3  and  C_4
REMARK    5  A    between atoms: C_10  and  C_11
REMARK    6  A    between atoms: C_14  and  C_15
REMARK    7  A    between atoms: C_15  and  N_16
REMARK    8  A    between atoms: C_17  and  C_19
REMARK    9  A    between atoms: N_21  and  C_22
REMARK                            x       y       z     vdW  Elec       q    Type
REMARK                         _______ _______ _______ _____ _____    ______ ____
ROOT
ATOM      1  C   UNL     1      44.907   5.605  11.064  0.00  0.00    +0.000 A 
ATOM      2  C   UNL     1      46.237   5.898  10.732  0.00  0.00    +0.000 A 
ATOM      3  C   UNL     1      46.985   6.791  11.505  0.00  0.00    +0.000 A 
ATOM      4  C   UNL     1      46.420   7.406  12.630  0.00  0.00    +0.000 A 
ATOM      5  C   UNL     1      45.084   7.134  12.948  0.00  0.00    +0.000 A 
ATOM      6  C   UNL     1      44.336   6.239  12.178  0.00  0.00    +0.000 A 
ENDROOT
BRANCH   1   7
ATOM      7  C   UNL     1      44.089   4.640  10.224  0.00  0.00    +0.000 C 
BRANCH   7   9
ATOM      8  C   UNL     1      43.512   2.646  11.476  0.00  0.00    +0.000 C 
ATOM      9  N   UNL     1      44.406   3.215  10.459  0.00  0.00    +0.000 NA
BRANCH   9  10
ATOM     10  C   UNL     1      44.266   2.433   9.212  0.00  0.00    +0.000 C 
BRANCH  10  11
ATOM     11  C   UNL     1      45.497   2.435   8.328  0.00  0.00    +0.000 A 
ATOM     12  C   UNL     1      45.935   3.615   7.708  0.00  0.00    +0.000 A 
ATOM     13  C   UNL     1      47.068   3.608   6.892  0.00  0.00    +0.000 A 
ATOM     14  C   UNL     1      47.777   2.425   6.689  0.00  0.00    +0.000 A 
ATOM     15  C   UNL     1      47.361   1.251   7.310  0.00  0.00    +0.000 A 
ATOM     16  C   UNL     1      46.229   1.255   8.128  0.00  0.00    +0.000 A 
ENDBRANCH  10  11
ENDBRANCH   9  10
ENDBRANCH   7   9
ENDBRANCH   1   7
BRANCH   4  17
ATOM     17  C   UNL     1      47.231   8.347  13.480  0.00  0.00    +0.000 C 
BRANCH  17  18
ATOM     18  N   UNL     1      47.715   7.710  14.680  0.00  0.00    +0.000 N 
ATOM     19  C   UNL     1      48.960   7.121  14.690  0.00  0.00    +0.000 C 
ATOM     20  O   UNL     1      49.666   7.052  13.692  0.00  0.00    +0.000 OA
ATOM     21  H   UNL     1      47.238   7.884  15.553  0.00  0.00    +0.000 HD
BRANCH  19  22
ATOM     22  C   UNL     1      49.363   6.564  15.978  0.00  0.00    +0.000 A 
ATOM     23  C   UNL     1      50.353   7.102  16.796  0.00  0.00    +0.000 A 
ATOM     24  N   UNL     1      50.386   6.388  17.962  0.00  0.00    +0.000 N 
ATOM     25  C   UNL     1      51.241   6.666  19.094  0.00  0.00    +0.000 C 
ATOM     26  C   UNL     1      49.468   5.376  17.913  0.00  0.00    +0.000 A 
ATOM     27  N   UNL     1      49.255   4.486  18.899  0.00  0.00    +0.000 NA
ATOM     28  C   UNL     1      48.308   3.591  18.584  0.00  0.00    +0.000 A 
ATOM     29  N   UNL     1      47.611   3.506  17.443  0.00  0.00    +0.000 NA
ATOM     30  C   UNL     1      47.866   4.433  16.504  0.00  0.00    +0.000 A 
ATOM     31 CL   UNL     1      47.059   4.247  15.025  0.00  0.00    +0.000 Cl
ATOM     32  C   UNL     1      48.814   5.437  16.686  0.00  0.00    +0.000 A 
ENDBRANCH  19  22
ENDBRANCH  17  18
ENDBRANCH   4  17
TORSDOF 7
ENDMDL
MODEL 2
REMARK VINA RESULT:    -7.622      2.058      2.428
REMARK INTER + INTRA:         -11.965
REMARK INTER:                 -11.220
REMARK INTRA:                  -0.745
REMARK UNBOUND:                -1.224
REMARK  Name = 
REMARK  9 active torsions:
REMARK  status: ('A' for Active; 'I' for Inactive)
REMARK    1  A    between atoms: C_1  and  N_2
REMARK    2  A    between atoms: N_2  and  C_3
REMARK    3  A    between atoms: N_2  and  C_10
REMARK    4  A    between atoms: C_3  and  C_4
REMARK    5  A    between atoms: C_10  and  C_11
REMARK    6  A    between atoms: C_14  and  C_15
REMARK    7  A    between atoms: C_15  and  N_16
REMARK    8  A    between atoms: C_17  and  C_19
REMARK    9  A    between atoms: N_21  and  C_22
REMARK                            x       y       z     vdW  Elec       q    Type
REMARK                         _______ _______ _______ _____ _____    ______ ____
ROOT
ATOM      1  C   UNL     1      45.581   5.532  11.742  0.00  0.00    +0.000 A 
ATOM      2  C   UNL     1      46.356   6.618  11.309  0.00  0.00    +0.000 A 
ATOM      3  C   UNL     1      47.415   7.093  12.089  0.00  0.00    +0.000 A 
ATOM      4  C   UNL     1      47.725   6.489  13.314  0.00  0.00    +0.000 A 
ATOM      5  C   UNL     1      46.936   5.420  13.759  0.00  0.00    +0.000 A 
ATOM      6  C   UNL     1      45.879   4.943  12.979  0.00  0.00    +0.000 A 
ENDROOT
BRANCH   1   7
ATOM      7  C   UNL     1      44.426   5.017  10.901  0.00  0.00    +0.000 C 
BRANCH   7   9
ATOM      8  C   UNL     1      43.619   2.737  11.062  0.00  0.00    +0.000 C 
ATOM      9  N   UNL     1      44.597   3.628  10.424  0.00  0.00    +0.000 NA
BRANCH   9  10
ATOM     10  C   UNL     1      44.427   3.551   8.958  0.00  0.00    +0.000 C 
BRANCH  10  11
ATOM     11  C   UNL     1      45.574   2.882   8.226  0.00  0.00    +0.000 A 
ATOM     12  C   UNL     1      45.822   1.510   8.381  0.00  0.00    +0.000 A 
ATOM     13  C   UNL     1      46.882   0.901   7.707  0.00  0.00    +0.000 A 
ATOM     14  C   UNL     1      47.703   1.654   6.869  0.00  0.00    +0.000 A 
ATOM     15  C   UNL     1      47.459   3.013   6.696  0.00  0.00    +0.000 A 
ATOM     16  C   UNL     1      46.398   3.624   7.368  0.00  0.00    +0.000 A 
ENDBRANCH  10  11
ENDBRANCH   9  10
ENDBRANCH   7   9
ENDBRANCH   1   7
BRANCH   4  17
ATOM     17  C   UNL     1      48.882   6.980  14.143  0.00  0.00    +0.000 C 
BRANCH  17  18
ATOM     18  N   UNL     1      48.513   7.175  15.524  0.00  0.00    +0.000 N 
ATOM     19  C   UNL     1      49.287   6.633  16.526  0.00  0.00    +0.000 C 
ATOM     20  O   UNL     1      50.258   5.923  16.297  0.00  0.00    +0.000 OA
ATOM     21  H   UNL     1      47.823   7.876  15.751  0.00  0.00    +0.000 HD
BRANCH  19  22
ATOM     22  C   UNL     1      48.847   6.951  17.880  0.00  0.00    +0.000 A 
ATOM     23  C   UNL     1      48.411   8.206  18.294  0.00  0.00    +0.000 A 
ATOM     24  N   UNL     1      47.978   8.108  19.588  0.00  0.00    +0.000 N 
ATOM     25  C   UNL     1      47.398   9.181  20.364  0.00  0.00    +0.000 C 
ATOM     26  C   UNL     1      48.151   6.830  20.041  0.00  0.00    +0.000 A 
ATOM     27  N   UNL     1      47.833   6.405  21.277  0.00  0.00    +0.000 NA
ATOM     28  C   UNL     1      48.121   5.108  21.461  0.00  0.00    +0.000 A 
ATOM     29  N   UNL     1      48.673   4.260  20.583  0.00  0.00    +0.000 NA
ATOM     30  C   UNL     1      48.956   4.748  19.363  0.00  0.00    +0.000 A 
ATOM     31 CL   UNL     1      49.756   3.697  18.300  0.00  0.00    +0.000 Cl
ATOM     32  C   UNL     1      48.705   6.073  19.013  0.00  0.00    +0.000 A 
ENDBRANCH  19  22
ENDBRANCH  17  18
ENDBRANCH   4  17
TORSDOF 7
ENDMDL
MODEL 3
REMARK VINA RESULT:    -7.621      2.322      2.985
REMARK INTER + INTRA:         -11.963
REMARK INTER:                 -11.222
REMARK INTRA:                  -0.741
REMARK UNBOUND:                -1.224
REMARK  Name = 
REMARK  9 active torsions:
REMARK  status: ('A' for Active; 'I' for Inactive)
REMARK    1  A    between atoms: C_1  and  N_2
REMARK    2  A    between atoms: N_2  and  C_3
REMARK    3  A    between atoms: N_2  and  C_10
REMARK    4  A    between atoms: C_3  and  C_4
REMARK    5  A    between atoms: C_10  and  C_11
REMARK    6  A    between atoms: C_14  and  C_15
REMARK    7  A    between atoms: C_15  and  N_16
REMARK    8  A    between atoms: C_17  and  C_19
REMARK    9  A    between atoms: N_21  and  C_22
REMARK                            x       y       z     vdW  Elec       q    Type
REMARK                         _______ _______ _______ _____ _____    ______ ____
ROOT
ATOM      1  C   UNL     1      45.607   5.405  11.708  0.00  0.00    +0.000 A 
ATOM      2  C   UNL     1      45.901   4.728  12.900  0.00  0.00    +0.000 A 
ATOM      3  C   UNL     1      46.930   5.172  13.736  0.00  0.00    +0.000 A 
ATOM      4  C   UNL     1      47.684   6.304  13.399  0.00  0.00    +0.000 A 
ATOM      5  C   UNL     1      47.408   6.966  12.196  0.00  0.00    +0.000 A 
ATOM      6  C   UNL     1      46.377   6.525  11.361  0.00  0.00    +0.000 A 
ENDROOT
BRANCH   1   7
ATOM      7  C   UNL     1      44.494   4.924  10.794  0.00  0.00    +0.000 C 
BRANCH   7   9
ATOM      8  C   UNL     1      43.512   2.768  11.307  0.00  0.00    +0.000 C 
ATOM      9  N   UNL     1      44.526   3.472  10.512  0.00  0.00    +0.000 NA
BRANCH   9  10
ATOM     10  C   UNL     1      44.276   3.209   9.079  0.00  0.00    +0.000 C 
BRANCH  10  11
ATOM     11  C   UNL     1      45.483   2.711   8.311  0.00  0.00    +0.000 A 
ATOM     12  C   UNL     1      45.843   1.355   8.339  0.00  0.00    +0.000 A 
ATOM     13  C   UNL     1      46.959   0.903   7.632  0.00  0.00    +0.000 A 
ATOM     14  C   UNL     1      47.725   1.798   6.888  0.00  0.00    +0.000 A 
ATOM     15  C   UNL     1      47.371   3.144   6.840  0.00  0.00    +0.000 A 
ATOM     16  C   UNL     1      46.254   3.598   7.545  0.00  0.00    +0.000 A 
ENDBRANCH  10  11
ENDBRANCH   9  10
ENDBRANCH   7   9
ENDBRANCH   1   7
BRANCH   4  17
ATOM     17  C   UNL     1      48.775   6.801  14.310  0.00  0.00    +0.000 C 
BRANCH  17  18
ATOM     18  N   UNL     1      48.415   6.679  15.701  0.00  0.00    +0.000 N 
ATOM     19  C   UNL     1      49.381   6.378  16.637  0.00  0.00    +0.000 C 
ATOM     20  O   UNL     1      50.542   6.139  16.332  0.00  0.00    +0.000 OA
ATOM     21  H   UNL     1      47.515   7.020  16.005  0.00  0.00    +0.000 HD
BRANCH  19  22
ATOM     22  C   UNL     1      48.906   6.342  18.016  0.00  0.00    +0.000 A 
ATOM     23  C   UNL     1      49.011   5.239  18.859  0.00  0.00    +0.000 A 
ATOM     24  N   UNL     1      48.564   5.599  20.101  0.00  0.00    +0.000 N 
ATOM     25  C   UNL     1      48.560   4.751  21.272  0.00  0.00    +0.000 C 
ATOM     26  C   UNL     1      48.137   6.897  20.082  0.00  0.00    +0.000 A 
ATOM     27  N   UNL     1      47.631   7.553  21.142  0.00  0.00    +0.000 NA
ATOM     28  C   UNL     1      47.278   8.811  20.843  0.00  0.00    +0.000 A 
ATOM     29  N   UNL     1      47.368   9.427  19.657  0.00  0.00    +0.000 NA
ATOM     30  C   UNL     1      47.893   8.717  18.643  0.00  0.00    +0.000 A 
ATOM     31 CL   UNL     1      47.897   9.468  17.123  0.00  0.00    +0.000 Cl
ATOM     32  C   UNL     1      48.318   7.400  18.796  0.00  0.00    +0.000 A 
ENDBRANCH  19  22
ENDBRANCH  17  18
ENDBRANCH   4  17
TORSDOF 7
ENDMDL
MODEL 4
REMARK VINA RESULT:    -7.316      1.775      2.250
REMARK INTER + INTRA:         -11.533
REMARK INTER:                 -10.254
REMARK INTRA:                  -1.280
REMARK UNBOUND:                -1.224
REMARK  Name = 
REMARK  9 active torsions:
REMARK  status: ('A' for Active; 'I' for Inactive)
REMARK    1  A    between atoms: C_1  and  N_2
REMARK    2  A    between atoms: N_2  and  C_3
REMARK    3  A    between atoms: N_2  and  C_10
REMARK    4  A    between atoms: C_3  and  C_4
REMARK    5  A    between atoms: C_10  and  C_11
REMARK    6  A    between atoms: C_14  and  C_15
REMARK    7  A    between atoms: C_15  and  N_16
REMARK    8  A    between atoms: C_17  and  C_19
REMARK    9  A    between atoms: N_21  and  C_22
REMARK                            x       y       z     vdW  Elec       q    Type
REMARK                         _______ _______ _______ _____ _____    ______ ____
ROOT
ATOM      1  C   UNL     1      45.507   6.039  12.271  0.00  0.00    +0.000 A 
ATOM      2  C   UNL     1      45.638   7.386  11.907  0.00  0.00    +0.000 A 
ATOM      3  C   UNL     1      46.835   8.073  12.133  0.00  0.00    +0.000 A 
ATOM      4  C   UNL     1      47.927   7.425  12.726  0.00  0.00    +0.000 A 
ATOM      5  C   UNL     1      47.788   6.086  13.113  0.00  0.00    +0.000 A 
ATOM      6  C   UNL     1      46.593   5.399  12.884  0.00  0.00    +0.000 A 
ENDROOT
BRANCH   1   7
ATOM      7  C   UNL     1      44.207   5.291  12.032  0.00  0.00    +0.000 C 
BRANCH   7   9
ATOM      8  C   UNL     1      43.574   2.954  12.141  0.00  0.00    +0.000 C 
ATOM      9  N   UNL     1      44.380   3.953  11.427  0.00  0.00    +0.000 NA
BRANCH   9  10
ATOM     10  C   UNL     1      43.978   3.963  10.005  0.00  0.00    +0.000 C 
BRANCH  10  11
ATOM     11  C   UNL     1      45.011   3.392   9.056  0.00  0.00    +0.000 A 
ATOM     12  C   UNL     1      45.259   2.012   9.008  0.00  0.00    +0.000 A 
ATOM     13  C   UNL     1      46.215   1.493   8.133  0.00  0.00    +0.000 A 
ATOM     14  C   UNL     1      46.932   2.346   7.295  0.00  0.00    +0.000 A 
ATOM     15  C   UNL     1      46.687   3.716   7.323  0.00  0.00    +0.000 A 
ATOM     16  C   UNL     1      45.729   4.237   8.196  0.00  0.00    +0.000 A 
ENDBRANCH  10  11
ENDBRANCH   9  10
ENDBRANCH   7   9
ENDBRANCH   1   7
BRANCH   4  17
ATOM     17  C   UNL     1      49.226   8.152  12.947  0.00  0.00    +0.000 C 
BRANCH  17  18
ATOM     18  N   UNL     1      50.131   7.401  13.780  0.00  0.00    +0.000 N 
ATOM     19  C   UNL     1      50.237   7.697  15.122  0.00  0.00    +0.000 C 
ATOM     20  O   UNL     1      49.636   8.629  15.640  0.00  0.00    +0.000 OA
ATOM     21  H   UNL     1      50.517   6.537  13.429  0.00  0.00    +0.000 HD
BRANCH  19  22
ATOM     22  C   UNL     1      51.138   6.829  15.872  0.00  0.00    +0.000 A 
ATOM     23  C   UNL     1      52.524   6.958  15.893  0.00  0.00    +0.000 A 
ATOM     24  N   UNL     1      53.031   6.048  16.779  0.00  0.00    +0.000 N 
ATOM     25  C   UNL     1      54.426   5.901  17.129  0.00  0.00    +0.000 C 
ATOM     26  C   UNL     1      52.015   5.304  17.313  0.00  0.00    +0.000 A 
ATOM     27  N   UNL     1      52.179   4.317  18.212  0.00  0.00    +0.000 NA
ATOM     28  C   UNL     1      51.017   3.743  18.556  0.00  0.00    +0.000 A 
ATOM     29  N   UNL     1      49.792   4.038  18.102  0.00  0.00    +0.000 NA
ATOM     30  C   UNL     1      49.699   5.042  17.213  0.00  0.00    +0.000 A 
ATOM     31 CL   UNL     1      48.160   5.331  16.563  0.00  0.00    +0.000 Cl
ATOM     32  C   UNL     1      50.814   5.746  16.764  0.00  0.00    +0.000 A 
ENDBRANCH  19  22
ENDBRANCH  17  18
ENDBRANCH   4  17
TORSDOF 7
ENDMDL
MODEL 5
REMARK VINA RESULT:    -7.158      4.962      6.684
REMARK INTER + INTRA:         -11.312
REMARK INTER:                 -10.132
REMARK INTRA:                  -1.180
REMARK UNBOUND:                -1.224
REMARK  Name = 
REMARK  9 active torsions:
REMARK  status: ('A' for Active; 'I' for Inactive)
REMARK    1  A    between atoms: C_1  and  N_2
REMARK    2  A    between atoms: N_2  and  C_3
REMARK    3  A    between atoms: N_2  and  C_10
REMARK    4  A    between atoms: C_3  and  C_4
REMARK    5  A    between atoms: C_10  and  C_11
REMARK    6  A    between atoms: C_14  and  C_15
REMARK    7  A    between atoms: C_15  and  N_16
REMARK    8  A    between atoms: C_17  and  C_19
REMARK    9  A    between atoms: N_21  and  C_22
REMARK                            x       y       z     vdW  Elec       q    Type
REMARK                         _______ _______ _______ _____ _____    ______ ____
ROOT
ATOM      1  C   UNL     1      45.793   5.735  12.317  0.00  0.00    +0.000 A 
ATOM      2  C   UNL     1      46.316   6.555  11.308  0.00  0.00    +0.000 A 
ATOM      3  C   UNL     1      47.573   7.151  11.455  0.00  0.00    +0.000 A 
ATOM      4  C   UNL     1      48.334   6.934  12.611  0.00  0.00    +0.000 A 
ATOM      5  C   UNL     1      47.801   6.135  13.630  0.00  0.00    +0.000 A 
ATOM      6  C   UNL     1      46.546   5.537  13.483  0.00  0.00    +0.000 A 
ENDROOT
BRANCH   1   7
ATOM      7  C   UNL     1      44.426   5.091  12.166  0.00  0.00    +0.000 C 
BRANCH   7   9
ATOM      8  C   UNL     1      43.554   2.829  12.185  0.00  0.00    +0.000 C 
ATOM      9  N   UNL     1      44.449   3.771  11.499  0.00  0.00    +0.000 NA
BRANCH   9  10
ATOM     10  C   UNL     1      44.027   3.887  10.088  0.00  0.00    +0.000 C 
BRANCH  10  11
ATOM     11  C   UNL     1      45.040   3.374   9.084  0.00  0.00    +0.000 A 
ATOM     12  C   UNL     1      45.727   4.260   8.240  0.00  0.00    +0.000 A 
ATOM     13  C   UNL     1      46.657   3.780   7.316  0.00  0.00    +0.000 A 
ATOM     14  C   UNL     1      46.912   2.413   7.226  0.00  0.00    +0.000 A 
ATOM     15  C   UNL     1      46.248   1.525   8.067  0.00  0.00    +0.000 A 
ATOM     16  C   UNL     1      45.318   2.002   8.994  0.00  0.00    +0.000 A 
ENDBRANCH  10  11
ENDBRANCH   9  10
ENDBRANCH   7   9
ENDBRANCH   1   7
BRANCH   4  17
ATOM     17  C   UNL     1      49.699   7.551  12.760  0.00  0.00    +0.000 C 
BRANCH  17  18
ATOM     18  N   UNL     1      50.496   7.396  11.568  0.00  0.00    +0.000 N 
ATOM     19  C   UNL     1      51.735   7.993  11.487  0.00  0.00    +0.000 C 
ATOM     20  O   UNL     1      52.177   8.717  12.369  0.00  0.00    +0.000 OA
ATOM     21  H   UNL     1      50.239   6.688  10.896  0.00  0.00    +0.000 HD
BRANCH  19  22
ATOM     22  C   UNL     1      52.470   7.713  10.258  0.00  0.00    +0.000 A 
ATOM     23  C   UNL     1      52.976   6.465   9.907  0.00  0.00    +0.000 A 
ATOM     24  N   UNL     1      53.507   6.550   8.649  0.00  0.00    +0.000 N 
ATOM     25  C   UNL     1      54.083   5.454   7.903  0.00  0.00    +0.000 C 
ATOM     26  C   UNL     1      53.391   7.830   8.182  0.00  0.00    +0.000 A 
ATOM     27  N   UNL     1      53.823   8.249   6.979  0.00  0.00    +0.000 NA
ATOM     28  C   UNL     1      53.597   9.556   6.782  0.00  0.00    +0.000 A 
ATOM     29  N   UNL     1      53.028  10.424   7.629  0.00  0.00    +0.000 NA
ATOM     30  C   UNL     1      52.610   9.937   8.810  0.00  0.00    +0.000 A 
ATOM     31 CL   UNL     1      51.996  11.066   9.914  0.00  0.00    +0.000 Cl
ATOM     32  C   UNL     1      52.762   8.597   9.159  0.00  0.00    +0.000 A 
ENDBRANCH  19  22
ENDBRANCH  17  18
ENDBRANCH   4  17
TORSDOF 7
ENDMDL
MODEL 6
REMARK VINA RESULT:    -6.877      3.495      9.888
REMARK INTER + INTRA:         -10.915
REMARK INTER:                  -8.844
REMARK INTRA:                  -2.071
REMARK UNBOUND:                -1.224
REMARK  Name = 
REMARK  9 active torsions:
REMARK  status: ('A' for Active; 'I' for Inactive)
REMARK    1  A    between atoms: C_1  and  N_2
REMARK    2  A    between atoms: N_2  and  C_3
REMARK    3  A    between atoms: N_2  and  C_10
REMARK    4  A    between atoms: C_3  and  C_4
REMARK    5  A    between atoms: C_10  and  C_11
REMARK    6  A    between atoms: C_14  and  C_15
REMARK    7  A    between atoms: C_15  and  N_16
REMARK    8  A    between atoms: C_17  and  C_19
REMARK    9  A    between atoms: N_21  and  C_22
REMARK                            x       y       z     vdW  Elec       q    Type
REMARK                         _______ _______ _______ _____ _____    ______ ____
ROOT
ATOM      1  C   UNL     1      50.712   5.887  18.066  0.00  0.00    +0.000 A 
ATOM      2  C   UNL     1      50.690   4.492  18.204  0.00  0.00    +0.000 A 
ATOM      3  C   UNL     1      49.615   3.745  17.711  0.00  0.00    +0.000 A 
ATOM      4  C   UNL     1      48.543   4.377  17.068  0.00  0.00    +0.000 A 
ATOM      5  C   UNL     1      48.553   5.773  16.952  0.00  0.00    +0.000 A 
ATOM      6  C   UNL     1      49.628   6.520  17.441  0.00  0.00    +0.000 A 
ENDROOT
BRANCH   1   7
ATOM      7  C   UNL     1      51.875   6.703  18.604  0.00  0.00    +0.000 C 
BRANCH   7   9
ATOM      8  C   UNL     1      53.687   6.623  20.211  0.00  0.00    +0.000 C 
ATOM      9  N   UNL     1      52.256   6.371  19.993  0.00  0.00    +0.000 NA
BRANCH   9  10
ATOM     10  C   UNL     1      51.479   7.177  20.959  0.00  0.00    +0.000 C 
BRANCH  10  11
ATOM     11  C   UNL     1      50.037   6.741  21.123  0.00  0.00    +0.000 A 
ATOM     12  C   UNL     1      49.723   5.452  21.579  0.00  0.00    +0.000 A 
ATOM     13  C   UNL     1      48.392   5.057  21.725  0.00  0.00    +0.000 A 
ATOM     14  C   UNL     1      47.361   5.944  21.419  0.00  0.00    +0.000 A 
ATOM     15  C   UNL     1      47.659   7.230  20.979  0.00  0.00    +0.000 A 
ATOM     16  C   UNL     1      48.990   7.629  20.834  0.00  0.00    +0.000 A 
ENDBRANCH  10  11
ENDBRANCH   9  10
ENDBRANCH   7   9
ENDBRANCH   1   7
BRANCH   4  17
ATOM     17  C   UNL     1      47.397   3.574  16.512  0.00  0.00    +0.000 C 
BRANCH  17  18
ATOM     18  N   UNL     1      46.597   4.340  15.590  0.00  0.00    +0.000 N 
ATOM     19  C   UNL     1      46.612   4.032  14.247  0.00  0.00    +0.000 C 
ATOM     20  O   UNL     1      47.335   3.162  13.778  0.00  0.00    +0.000 OA
ATOM     21  H   UNL     1      45.879   4.949  15.953  0.00  0.00    +0.000 HD
BRANCH  19  22
ATOM     22  C   UNL     1      45.716   4.837  13.424  0.00  0.00    +0.000 A 
ATOM     23  C   UNL     1      44.449   4.436  13.011  0.00  0.00    +0.000 A 
ATOM     24  N   UNL     1      43.858   5.479  12.351  0.00  0.00    +0.000 N 
ATOM     25  C   UNL     1      42.516   5.482  11.814  0.00  0.00    +0.000 C 
ATOM     26  C   UNL     1      44.719   6.539  12.292  0.00  0.00    +0.000 A 
ATOM     27  N   UNL     1      44.446   7.717  11.703  0.00  0.00    +0.000 NA
ATOM     28  C   UNL     1      45.472   8.576  11.778  0.00  0.00    +0.000 A 
ATOM     29  N   UNL     1      46.671   8.371  12.341  0.00  0.00    +0.000 NA
ATOM     30  C   UNL     1      46.873   7.176  12.921  0.00  0.00    +0.000 A 
ATOM     31 CL   UNL     1      48.430   6.890  13.529  0.00  0.00    +0.000 Cl
ATOM     32  C   UNL     1      45.900   6.180  12.937  0.00  0.00    +0.000 A 
ENDBRANCH  19  22
ENDBRANCH  17  18
ENDBRANCH   4  17
TORSDOF 7
ENDMDL
MODEL 7
REMARK VINA RESULT:    -6.706      2.889      3.289
REMARK INTER + INTRA:         -10.674
REMARK INTER:                 -10.383
REMARK INTRA:                  -0.291
REMARK UNBOUND:                -1.224
REMARK  Name = 
REMARK  9 active torsions:
REMARK  status: ('A' for Active; 'I' for Inactive)
REMARK    1  A    between atoms: C_1  and  N_2
REMARK    2  A    between atoms: N_2  and  C_3
REMARK    3  A    between atoms: N_2  and  C_10
REMARK    4  A    between atoms: C_3  and  C_4
REMARK    5  A    between atoms: C_10  and  C_11
REMARK    6  A    between atoms: C_14  and  C_15
REMARK    7  A    between atoms: C_15  and  N_16
REMARK    8  A    between atoms: C_17  and  C_19
REMARK    9  A    between atoms: N_21  and  C_22
REMARK                            x       y       z     vdW  Elec       q    Type
REMARK                         _______ _______ _______ _____ _____    ______ ____
ROOT
ATOM      1  C   UNL     1      45.950   4.910  12.549  0.00  0.00    +0.000 A 
ATOM      2  C   UNL     1      46.804   5.016  13.655  0.00  0.00    +0.000 A 
ATOM      3  C   UNL     1      47.326   6.256  14.037  0.00  0.00    +0.000 A 
ATOM      4  C   UNL     1      47.001   7.417  13.323  0.00  0.00    +0.000 A 
ATOM      5  C   UNL     1      46.167   7.308  12.202  0.00  0.00    +0.000 A 
ATOM      6  C   UNL     1      45.643   6.069  11.822  0.00  0.00    +0.000 A 
ENDROOT
BRANCH   1   7
ATOM      7  C   UNL     1      45.386   3.565  12.127  0.00  0.00    +0.000 C 
BRANCH   7   9
ATOM      8  C   UNL     1      43.247   4.503  12.775  0.00  0.00    +0.000 C 
ATOM      9  N   UNL     1      43.930   3.574  11.865  0.00  0.00    +0.000 NA
BRANCH   9  10
ATOM     10  C   UNL     1      43.649   3.978  10.472  0.00  0.00    +0.000 C 
BRANCH  10  11
ATOM     11  C   UNL     1      44.626   3.432   9.450  0.00  0.00    +0.000 A 
ATOM     12  C   UNL     1      44.854   2.052   9.340  0.00  0.00    +0.000 A 
ATOM     13  C   UNL     1      45.758   1.556   8.399  0.00  0.00    +0.000 A 
ATOM     14  C   UNL     1      46.440   2.432   7.555  0.00  0.00    +0.000 A 
ATOM     15  C   UNL     1      46.212   3.802   7.644  0.00  0.00    +0.000 A 
ATOM     16  C   UNL     1      45.307   4.301   8.584  0.00  0.00    +0.000 A 
ENDBRANCH  10  11
ENDBRANCH   9  10
ENDBRANCH   7   9
ENDBRANCH   1   7
BRANCH   4  17
ATOM     17  C   UNL     1      47.538   8.757  13.747  0.00  0.00    +0.000 C 
BRANCH  17  18
ATOM     18  N   UNL     1      47.360   8.989  15.159  0.00  0.00    +0.000 N 
ATOM     19  C   UNL     1      48.438   9.350  15.938  0.00  0.00    +0.000 C 
ATOM     20  O   UNL     1      49.577   9.422  15.494  0.00  0.00    +0.000 OA
ATOM     21  H   UNL     1      46.424   9.093  15.523  0.00  0.00    +0.000 HD
BRANCH  19  22
ATOM     22  C   UNL     1      48.121   9.616  17.337  0.00  0.00    +0.000 A 
ATOM     23  C   UNL     1      47.860  10.879  17.861  0.00  0.00    +0.000 A 
ATOM     24  N   UNL     1      47.498  10.737  19.172  0.00  0.00    +0.000 N 
ATOM     25  C   UNL     1      47.095  11.809  20.055  0.00  0.00    +0.000 C 
ATOM     26  C   UNL     1      47.548   9.418  19.528  0.00  0.00    +0.000 A 
ATOM     27  N   UNL     1      47.257   8.943  20.752  0.00  0.00    +0.000 NA
ATOM     28  C   UNL     1      47.402   7.612  20.831  0.00  0.00    +0.000 A 
ATOM     29  N   UNL     1      47.796   6.773  19.864  0.00  0.00    +0.000 NA
ATOM     30  C   UNL     1      48.061   7.313  18.662  0.00  0.00    +0.000 A 
ATOM     31 CL   UNL     1      48.666   6.259  17.481  0.00  0.00    +0.000 Cl
ATOM     32  C   UNL     1      47.946   8.679  18.417  0.00  0.00    +0.000 A 
ENDBRANCH  19  22
ENDBRANCH  17  18
ENDBRANCH   4  17
TORSDOF 7
ENDMDL
MODEL 8
REMARK VINA RESULT:    -6.615      2.610      3.721
REMARK INTER + INTRA:         -10.546
REMARK INTER:                  -9.349
REMARK INTRA:                  -1.197
REMARK UNBOUND:                -1.224
REMARK  Name = 
REMARK  9 active torsions:
REMARK  status: ('A' for Active; 'I' for Inactive)
REMARK    1  A    between atoms: C_1  and  N_2
REMARK    2  A    between atoms: N_2  and  C_3
REMARK    3  A    between atoms: N_2  and  C_10
REMARK    4  A    between atoms: C_3  and  C_4
REMARK    5  A    between atoms: C_10  and  C_11
REMARK    6  A    between atoms: C_14  and  C_15
REMARK    7  A    between atoms: C_15  and  N_16
REMARK    8  A    between atoms: C_17  and  C_19
REMARK    9  A    between atoms: N_21  and  C_22
REMARK                            x       y       z     vdW  Elec       q    Type
REMARK                         _______ _______ _______ _____ _____    ______ ____
ROOT
ATOM      1  C   UNL     1      45.796   7.045  12.196  0.00  0.00    +0.000 A 
ATOM      2  C   UNL     1      45.993   8.365  12.625  0.00  0.00    +0.000 A 
ATOM      3  C   UNL     1      47.276   8.829  12.935  0.00  0.00    +0.000 A 
ATOM      4  C   UNL     1      48.387   7.984  12.819  0.00  0.00    +0.000 A 
ATOM      5  C   UNL     1      48.187   6.658  12.415  0.00  0.00    +0.000 A 
ATOM      6  C   UNL     1      46.906   6.194  12.101  0.00  0.00    +0.000 A 
ENDROOT
BRANCH   1   7
ATOM      7  C   UNL     1      44.404   6.535  11.863  0.00  0.00    +0.000 C 
BRANCH   7   9
ATOM      8  C   UNL     1      43.504   4.538  12.900  0.00  0.00    +0.000 C 
ATOM      9  N   UNL     1      44.302   5.062  11.784  0.00  0.00    +0.000 NA
BRANCH   9  10
ATOM     10  C   UNL     1      43.674   4.646  10.512  0.00  0.00    +0.000 C 
BRANCH  10  11
ATOM     11  C   UNL     1      44.569   3.823   9.608  0.00  0.00    +0.000 A 
ATOM     12  C   UNL     1      44.553   2.422   9.663  0.00  0.00    +0.000 A 
ATOM     13  C   UNL     1      45.384   1.670   8.830  0.00  0.00    +0.000 A 
ATOM     14  C   UNL     1      46.236   2.309   7.932  0.00  0.00    +0.000 A 
ATOM     15  C   UNL     1      46.252   3.699   7.857  0.00  0.00    +0.000 A 
ATOM     16  C   UNL     1      45.421   4.453   8.688  0.00  0.00    +0.000 A 
ENDBRANCH  10  11
ENDBRANCH   9  10
ENDBRANCH   7   9
ENDBRANCH   1   7
BRANCH   4  17
ATOM     17  C   UNL     1      49.772   8.488  13.126  0.00  0.00    +0.000 C 
BRANCH  17  18
ATOM     18  N   UNL     1      50.487   7.598  14.007  0.00  0.00    +0.000 N 
ATOM     19  C   UNL     1      50.516   7.850  15.362  0.00  0.00    +0.000 C 
ATOM     20  O   UNL     1      50.009   8.847  15.858  0.00  0.00    +0.000 OA
ATOM     21  H   UNL     1      50.777   6.695  13.661  0.00  0.00    +0.000 HD
BRANCH  19  22
ATOM     22  C   UNL     1      51.219   6.847  16.156  0.00  0.00    +0.000 A 
ATOM     23  C   UNL     1      50.596   5.921  16.988  0.00  0.00    +0.000 A 
ATOM     24  N   UNL     1      51.550   5.076  17.485  0.00  0.00    +0.000 N 
ATOM     25  C   UNL     1      51.302   3.941  18.346  0.00  0.00    +0.000 C 
ATOM     26  C   UNL     1      52.784   5.446  17.027  0.00  0.00    +0.000 A 
ATOM     27  N   UNL     1      53.935   4.824  17.337  0.00  0.00    +0.000 NA
ATOM     28  C   UNL     1      54.999   5.403  16.762  0.00  0.00    +0.000 A 
ATOM     29  N   UNL     1      55.014   6.483  15.969  0.00  0.00    +0.000 NA
ATOM     30  C   UNL     1      53.827   7.049  15.692  0.00  0.00    +0.000 A 
ATOM     31 CL   UNL     1      53.871   8.479  14.781  0.00  0.00    +0.000 Cl
ATOM     32  C   UNL     1      52.629   6.558  16.203  0.00  0.00    +0.000 A 
ENDBRANCH  19  22
ENDBRANCH  17  18
ENDBRANCH   4  17
TORSDOF 7
ENDMDL
MODEL 9
REMARK VINA RESULT:    -6.475      2.253      8.340
REMARK INTER + INTRA:         -10.349
REMARK INTER:                  -8.677
REMARK INTRA:                  -1.672
REMARK UNBOUND:                -1.224
REMARK  Name = 
REMARK  9 active torsions:
REMARK  status: ('A' for Active; 'I' for Inactive)
REMARK    1  A    between atoms: C_1  and  N_2
REMARK    2  A    between atoms: N_2  and  C_3
REMARK    3  A    between atoms: N_2  and  C_10
REMARK    4  A    between atoms: C_3  and  C_4
REMARK    5  A    between atoms: C_10  and  C_11
REMARK    6  A    between atoms: C_14  and  C_15
REMARK    7  A    between atoms: C_15  and  N_16
REMARK    8  A    between atoms: C_17  and  C_19
REMARK    9  A    between atoms: N_21  and  C_22
REMARK                            x       y       z     vdW  Elec       q    Type
REMARK                         _______ _______ _______ _____ _____    ______ ____
ROOT
ATOM      1  C   UNL     1      50.100   7.971  15.591  0.00  0.00    +0.000 A 
ATOM      2  C   UNL     1      49.042   8.798  15.994  0.00  0.00    +0.000 A 
ATOM      3  C   UNL     1      47.896   8.927  15.203  0.00  0.00    +0.000 A 
ATOM      4  C   UNL     1      47.782   8.228  13.995  0.00  0.00    +0.000 A 
ATOM      5  C   UNL     1      48.849   7.420  13.579  0.00  0.00    +0.000 A 
ATOM      6  C   UNL     1      49.993   7.289  14.371  0.00  0.00    +0.000 A 
ENDROOT
BRANCH   1   7
ATOM      7  C   UNL     1      51.348   7.832  16.444  0.00  0.00    +0.000 C 
BRANCH   7   9
ATOM      8  C   UNL     1      53.020   6.345  17.377  0.00  0.00    +0.000 C 
ATOM      9  N   UNL     1      51.651   6.444  16.854  0.00  0.00    +0.000 NA
BRANCH   9  10
ATOM     10  C   UNL     1      50.708   5.987  17.897  0.00  0.00    +0.000 C 
BRANCH  10  11
ATOM     11  C   UNL     1      49.811   4.841  17.475  0.00  0.00    +0.000 A 
ATOM     12  C   UNL     1      48.513   5.082  17.000  0.00  0.00    +0.000 A 
ATOM     13  C   UNL     1      47.690   4.022  16.616  0.00  0.00    +0.000 A 
ATOM     14  C   UNL     1      48.155   2.711  16.699  0.00  0.00    +0.000 A 
ATOM     15  C   UNL     1      49.446   2.458  17.156  0.00  0.00    +0.000 A 
ATOM     16  C   UNL     1      50.271   3.517  17.539  0.00  0.00    +0.000 A 
ENDBRANCH  10  11
ENDBRANCH   9  10
ENDBRANCH   7   9
ENDBRANCH   1   7
BRANCH   4  17
ATOM     17  C   UNL     1      46.539   8.342  13.154  0.00  0.00    +0.000 C 
BRANCH  17  18
ATOM     18  N   UNL     1      46.322   7.167  12.347  0.00  0.00    +0.000 N 
ATOM     19  C   UNL     1      45.268   7.126  11.461  0.00  0.00    +0.000 C 
ATOM     20  O   UNL     1      44.449   8.032  11.368  0.00  0.00    +0.000 OA
ATOM     21  H   UNL     1      47.056   6.477  12.280  0.00  0.00    +0.000 HD
BRANCH  19  22
ATOM     22  C   UNL     1      45.189   5.910  10.658  0.00  0.00    +0.000 A 
ATOM     23  C   UNL     1      45.841   5.723   9.443  0.00  0.00    +0.000 A 
ATOM     24  N   UNL     1      45.629   4.436   9.031  0.00  0.00    +0.000 N 
ATOM     25  C   UNL     1      46.183   3.830   7.842  0.00  0.00    +0.000 C 
ATOM     26  C   UNL     1      44.827   3.787   9.929  0.00  0.00    +0.000 A 
ATOM     27  N   UNL     1      44.423   2.510   9.813  0.00  0.00    +0.000 NA
ATOM     28  C   UNL     1      43.631   2.130  10.827  0.00  0.00    +0.000 A 
ATOM     29  N   UNL     1      43.225   2.869  11.868  0.00  0.00    +0.000 NA
ATOM     30  C   UNL     1      43.674   4.134  11.928  0.00  0.00    +0.000 A 
ATOM     31 CL   UNL     1      43.063   5.090  13.187  0.00  0.00    +0.000 Cl
ATOM     32  C   UNL     1      44.514   4.674  10.957  0.00  0.00    +0.000 A 
ENDBRANCH  19  22
ENDBRANCH  17  18
ENDBRANCH   4  17
TORSDOF 7
ENDMDL
