MODEL 1
REMARK VINA RESULT:    -8.568      0.000      0.000
REMARK INTER + INTRA:         -12.189
REMARK INTER:                 -11.072
REMARK INTRA:                  -1.117
REMARK UNBOUND:                -1.117
REMARK  Name = 
REMARK  5 active torsions:
REMARK  status: ('A' for Active; 'I' for Inactive)
REMARK    1  A    between atoms: C_2  and  C_4
REMARK    2  A    between atoms: C_7  and  O_8
REMARK    3  A    between atoms: O_8  and  C_9
REMARK    4  A    between atoms: C_9  and  C_10
REMARK    5  A    between atoms: C_15  and  C_16
REMARK                            x       y       z     vdW  Elec       q    Type
REMARK                         _______ _______ _______ _____ _____    ______ ____
ROOT
ATOM      1  C   UNL     1      43.586   5.031  10.623  0.00  0.00    +0.000 C 
ENDROOT
BRANCH   1   2
ATOM      2  C   UNL     1      44.649   5.313  11.660  0.00  0.00    +0.000 A 
ATOM      3  C   UNL     1      44.842   4.412  12.714  0.00  0.00    +0.000 A 
ATOM      4  C   UNL     1      45.873   4.616  13.627  0.00  0.00    +0.000 A 
ATOM      5  C   UNL     1      46.732   5.704  13.475  0.00  0.00    +0.000 A 
ATOM      6  F   UNL     1      47.710   5.843  14.384  0.00  0.00    +0.000 F 
ATOM      7  C   UNL     1      46.609   6.609  12.406  0.00  0.00    +0.000 A 
ATOM      8  C   UNL     1      45.535   6.397  11.518  0.00  0.00    +0.000 A 
BRANCH   7   9
ATOM      9  C   UNL     1      47.603   7.679  12.150  0.00  0.00    +0.000 A 
ATOM     10  C   UNL     1      48.929   7.366  11.796  0.00  0.00    +0.000 A 
ATOM     11  C   UNL     1      49.855   8.357  11.461  0.00  0.00    +0.000 A 
ATOM     12  C   UNL     1      49.473   9.694  11.464  0.00  0.00    +0.000 A 
ATOM     13  C   UNL     1      48.172  10.038  11.822  0.00  0.00    +0.000 A 
ATOM     14  C   UNL     1      47.252   9.042  12.170  0.00  0.00    +0.000 A 
ENDBRANCH   7   9
ENDBRANCH   1   2
BRANCH   1  15
ATOM     15  O   UNL     1      43.608   3.664  10.216  0.00  0.00    +0.000 OA
BRANCH  15  19
ATOM     16  C   UNL     1      46.510   2.390   7.500  0.00  0.00    +0.000 A 
ATOM     17  C   UNL     1      46.132   3.737   7.490  0.00  0.00    +0.000 A 
ATOM     18  C   UNL     1      45.163   4.200   8.384  0.00  0.00    +0.000 A 
ATOM     19  C   UNL     1      44.561   3.324   9.291  0.00  0.00    +0.000 A 
ATOM     20  C   UNL     1      44.929   1.977   9.287  0.00  0.00    +0.000 A 
ATOM     21  C   UNL     1      45.894   1.507   8.391  0.00  0.00    +0.000 A 
BRANCH  16  23
ATOM     22  N   UNL     1      48.680   2.601   6.412  0.00  0.00    +0.000 N 
ATOM     23  C   UNL     1      47.538   1.866   6.561  0.00  0.00    +0.000 C 
ATOM     24  O   UNL     1      47.389   0.803   5.975  0.00  0.00    +0.000 OA
ATOM     25  H   UNL     1      49.411   2.177   5.856  0.00  0.00    +0.000 HD
ATOM     26  H   UNL     1      48.947   3.324   7.063  0.00  0.00    +0.000 HD
ENDBRANCH  16  23
ENDBRANCH  15  19
ENDBRANCH   1  15
TORSDOF 5
ENDMDL
MODEL 2
REMARK VINA RESULT:    -8.002      1.448      1.999
REMARK INTER + INTRA:         -11.458
REMARK INTER:                 -10.366
REMARK INTRA:                  -1.093
REMARK UNBOUND:                -1.117
REMARK  Name = 
REMARK  5 active torsions:
REMARK  status: ('A' for Active; 'I' for Inactive)
REMARK    1  A    between atoms: C_2  and  C_4
REMARK    2  A    between atoms: C_7  and  O_8
REMARK    3  A    between atoms: O_8  and  C_9
REMARK    4  A    between atoms: C_9  and  C_10
REMARK    5  A    between atoms: C_15  and  C_16
REMARK                            x       y       z     vdW  Elec       q    Type
REMARK                         _______ _______ _______ _____ _____    ______ ____
ROOT
ATOM      1  C   UNL     1      44.189   3.371  11.377  0.00  0.00    +0.000 C 
ENDROOT
BRANCH   1   2
ATOM      2  C   UNL     1      44.521   4.845  11.431  0.00  0.00    +0.000 A 
ATOM      3  C   UNL     1      43.506   5.790  11.241  0.00  0.00    +0.000 A 
ATOM      4  C   UNL     1      43.782   7.148  11.372  0.00  0.00    +0.000 A 
ATOM      5  C   UNL     1      45.066   7.567  11.721  0.00  0.00    +0.000 A 
ATOM      6  F   UNL     1      45.268   8.888  11.838  0.00  0.00    +0.000 F 
ATOM      7  C   UNL     1      46.107   6.655  11.970  0.00  0.00    +0.000 A 
ATOM      8  C   UNL     1      45.807   5.288  11.794  0.00  0.00    +0.000 A 
BRANCH   7   9
ATOM      9  C   UNL     1      47.431   7.078  12.484  0.00  0.00    +0.000 A 
ATOM     10  C   UNL     1      47.796   6.843  13.824  0.00  0.00    +0.000 A 
ATOM     11  C   UNL     1      49.072   7.151  14.304  0.00  0.00    +0.000 A 
ATOM     12  C   UNL     1      50.023   7.696  13.449  0.00  0.00    +0.000 A 
ATOM     13  C   UNL     1      49.689   7.953  12.122  0.00  0.00    +0.000 A 
ATOM     14  C   UNL     1      48.405   7.656  11.649  0.00  0.00    +0.000 A 
ENDBRANCH   7   9
ENDBRANCH   1   2
BRANCH   1  15
ATOM     15  O   UNL     1      43.698   2.998  10.090  0.00  0.00    +0.000 OA
BRANCH  15  19
ATOM     16  C   UNL     1      46.607   2.319   7.174  0.00  0.00    +0.000 A 
ATOM     17  C   UNL     1      46.017   3.586   7.246  0.00  0.00    +0.000 A 
ATOM     18  C   UNL     1      45.039   3.850   8.209  0.00  0.00    +0.000 A 
ATOM     19  C   UNL     1      44.639   2.854   9.103  0.00  0.00    +0.000 A 
ATOM     20  C   UNL     1      45.218   1.586   9.017  0.00  0.00    +0.000 A 
ATOM     21  C   UNL     1      46.194   1.315   8.053  0.00  0.00    +0.000 A 
BRANCH  16  23
ATOM     22  N   UNL     1      48.848   2.655   6.277  0.00  0.00    +0.000 N 
ATOM     23  C   UNL     1      47.651   2.006   6.162  0.00  0.00    +0.000 C 
ATOM     24  O   UNL     1      47.464   1.175   5.284  0.00  0.00    +0.000 OA
ATOM     25  H   UNL     1      49.579   2.350   5.648  0.00  0.00    +0.000 HD
ATOM     26  H   UNL     1      49.125   3.132   7.122  0.00  0.00    +0.000 HD
ENDBRANCH  16  23
ENDBRANCH  15  19
ENDBRANCH   1  15
TORSDOF 5
ENDMDL
MODEL 3
REMARK VINA RESULT:    -7.877      2.178      3.862
REMARK INTER + INTRA:         -11.297
REMARK INTER:                 -10.416
REMARK INTRA:                  -0.881
REMARK UNBOUND:                -1.117
REMARK  Name = 
REMARK  5 active torsions:
REMARK  status: ('A' for Active; 'I' for Inactive)
REMARK    1  A    between atoms: C_2  and  C_4
REMARK    2  A    between atoms: C_7  and  O_8
REMARK    3  A    between atoms: O_8  and  C_9
REMARK    4  A    between atoms: C_9  and  C_10
REMARK    5  A    between atoms: C_15  and  C_16
REMARK                            x       y       z     vdW  Elec       q    Type
REMARK                         _______ _______ _______ _____ _____    ______ ____
ROOT
ATOM      1  C   UNL     1      44.324   3.694  11.619  0.00  0.00    +0.000 C 
ENDROOT
BRANCH   1   2
ATOM      2  C   UNL     1      45.435   4.418  12.344  0.00  0.00    +0.000 A 
ATOM      3  C   UNL     1      45.830   5.690  11.911  0.00  0.00    +0.000 A 
ATOM      4  C   UNL     1      46.793   6.402  12.620  0.00  0.00    +0.000 A 
ATOM      5  C   UNL     1      47.344   5.860  13.781  0.00  0.00    +0.000 A 
ATOM      6  F   UNL     1      48.263   6.597  14.424  0.00  0.00    +0.000 F 
ATOM      7  C   UNL     1      46.946   4.609  14.284  0.00  0.00    +0.000 A 
ATOM      8  C   UNL     1      45.995   3.896  13.525  0.00  0.00    +0.000 A 
BRANCH   7   9
ATOM      9  C   UNL     1      47.413   4.090  15.591  0.00  0.00    +0.000 A 
ATOM     10  C   UNL     1      48.148   2.891  15.672  0.00  0.00    +0.000 A 
ATOM     11  C   UNL     1      48.676   2.433  16.882  0.00  0.00    +0.000 A 
ATOM     12  C   UNL     1      48.489   3.170  18.046  0.00  0.00    +0.000 A 
ATOM     13  C   UNL     1      47.756   4.353  18.001  0.00  0.00    +0.000 A 
ATOM     14  C   UNL     1      47.217   4.800  16.789  0.00  0.00    +0.000 A 
ENDBRANCH   7   9
ENDBRANCH   1   2
BRANCH   1  15
ATOM     15  O   UNL     1      44.144   4.209  10.300  0.00  0.00    +0.000 OA
BRANCH  15  19
ATOM     16  C   UNL     1      46.636   2.428   7.464  0.00  0.00    +0.000 A 
ATOM     17  C   UNL     1      46.514   3.822   7.464  0.00  0.00    +0.000 A 
ATOM     18  C   UNL     1      45.689   4.454   8.398  0.00  0.00    +0.000 A 
ATOM     19  C   UNL     1      44.975   3.702   9.336  0.00  0.00    +0.000 A 
ATOM     20  C   UNL     1      45.087   2.310   9.322  0.00  0.00    +0.000 A 
ATOM     21  C   UNL     1      45.908   1.672   8.387  0.00  0.00    +0.000 A 
BRANCH  16  23
ATOM     22  N   UNL     1      48.622   2.387   6.053  0.00  0.00    +0.000 N 
ATOM     23  C   UNL     1      47.506   1.726   6.484  0.00  0.00    +0.000 C 
ATOM     24  O   UNL     1      47.259   0.589   6.105  0.00  0.00    +0.000 OA
ATOM     25  H   UNL     1      49.256   1.853   5.473  0.00  0.00    +0.000 HD
ATOM     26  H   UNL     1      48.992   3.193   6.534  0.00  0.00    +0.000 HD
ENDBRANCH  16  23
ENDBRANCH  15  19
ENDBRANCH   1  15
TORSDOF 5
ENDMDL
MODEL 4
REMARK VINA RESULT:    -7.563      2.112      2.807
REMARK INTER + INTRA:         -10.891
REMARK INTER:                 -10.126
REMARK INTRA:                  -0.765
REMARK UNBOUND:                -1.117
REMARK  Name = 
REMARK  5 active torsions:
REMARK  status: ('A' for Active; 'I' for Inactive)
REMARK    1  A    between atoms: C_2  and  C_4
REMARK    2  A    between atoms: C_7  and  O_8
REMARK    3  A    between atoms: O_8  and  C_9
REMARK    4  A    between atoms: C_9  and  C_10
REMARK    5  A    between atoms: C_15  and  C_16
REMARK                            x       y       z     vdW  Elec       q    Type
REMARK                         _______ _______ _______ _____ _____    ______ ____
ROOT
ATOM      1  C   UNL     1      43.984   4.319  11.561  0.00  0.00    +0.000 C 
ENDROOT
BRANCH   1   2
ATOM      2  C   UNL     1      44.847   5.515  11.890  0.00  0.00    +0.000 A 
ATOM      3  C   UNL     1      46.161   5.319  12.329  0.00  0.00    +0.000 A 
ATOM      4  C   UNL     1      46.993   6.412  12.554  0.00  0.00    +0.000 A 
ATOM      5  C   UNL     1      46.525   7.704  12.314  0.00  0.00    +0.000 A 
ATOM      6  F   UNL     1      47.376   8.716  12.544  0.00  0.00    +0.000 F 
ATOM      7  C   UNL     1      45.230   7.950  11.827  0.00  0.00    +0.000 A 
ATOM      8  C   UNL     1      44.399   6.826  11.642  0.00  0.00    +0.000 A 
BRANCH   7   9
ATOM      9  C   UNL     1      44.772   9.302  11.428  0.00  0.00    +0.000 A 
ATOM     10  C   UNL     1      43.583   9.476  10.693  0.00  0.00    +0.000 A 
ATOM     11  C   UNL     1      43.087  10.746  10.387  0.00  0.00    +0.000 A 
ATOM     12  C   UNL     1      43.766  11.880  10.818  0.00  0.00    +0.000 A 
ATOM     13  C   UNL     1      44.951  11.742  11.535  0.00  0.00    +0.000 A 
ATOM     14  C   UNL     1      45.452  10.468  11.827  0.00  0.00    +0.000 A 
ENDBRANCH   7   9
ENDBRANCH   1   2
BRANCH   1  15
ATOM     15  O   UNL     1      43.646   4.288  10.175  0.00  0.00    +0.000 OA
BRANCH  15  19
ATOM     16  C   UNL     1      46.499   2.489   7.715  0.00  0.00    +0.000 A 
ATOM     17  C   UNL     1      46.343   3.878   7.652  0.00  0.00    +0.000 A 
ATOM     18  C   UNL     1      45.398   4.516   8.460  0.00  0.00    +0.000 A 
ATOM     19  C   UNL     1      44.598   3.774   9.333  0.00  0.00    +0.000 A 
ATOM     20  C   UNL     1      44.745   2.386   9.381  0.00  0.00    +0.000 A 
ATOM     21  C   UNL     1      45.685   1.742   8.572  0.00  0.00    +0.000 A 
BRANCH  16  23
ATOM     22  N   UNL     1      48.552   2.512   6.405  0.00  0.00    +0.000 N 
ATOM     23  C   UNL     1      47.496   1.780   6.869  0.00  0.00    +0.000 C 
ATOM     24  O   UNL     1      47.399   0.585   6.628  0.00  0.00    +0.000 OA
ATOM     25  H   UNL     1      49.274   1.991   5.924  0.00  0.00    +0.000 HD
ATOM     26  H   UNL     1      48.802   3.408   6.793  0.00  0.00    +0.000 HD
ENDBRANCH  16  23
ENDBRANCH  15  19
ENDBRANCH   1  15
TORSDOF 5
ENDMDL
MODEL 5
REMARK VINA RESULT:    -7.126      3.733      7.337
REMARK INTER + INTRA:         -10.327
REMARK INTER:                  -9.807
REMARK INTRA:                  -0.519
REMARK UNBOUND:                -1.117
REMARK  Name = 
REMARK  5 active torsions:
REMARK  status: ('A' for Active; 'I' for Inactive)
REMARK    1  A    between atoms: C_2  and  C_4
REMARK    2  A    between atoms: C_7  and  O_8
REMARK    3  A    between atoms: O_8  and  C_9
REMARK    4  A    between atoms: C_9  and  C_10
REMARK    5  A    between atoms: C_15  and  C_16
REMARK                            x       y       z     vdW  Elec       q    Type
REMARK                         _______ _______ _______ _____ _____    ______ ____
ROOT
ATOM      1  C   UNL     1      45.223   6.317  11.023  0.00  0.00    +0.000 C 
ENDROOT
BRANCH   1   2
ATOM      2  C   UNL     1      45.030   4.900  10.532  0.00  0.00    +0.000 A 
ATOM      3  C   UNL     1      44.006   4.115  11.072  0.00  0.00    +0.000 A 
ATOM      4  C   UNL     1      43.764   2.839  10.570  0.00  0.00    +0.000 A 
ATOM      5  C   UNL     1      44.525   2.354   9.507  0.00  0.00    +0.000 A 
ATOM      6  F   UNL     1      44.241   1.120   9.063  0.00  0.00    +0.000 F 
ATOM      7  C   UNL     1      45.533   3.123   8.899  0.00  0.00    +0.000 A 
ATOM      8  C   UNL     1      45.779   4.396   9.452  0.00  0.00    +0.000 A 
BRANCH   7   9
ATOM      9  C   UNL     1      46.247   2.678   7.678  0.00  0.00    +0.000 A 
ATOM     10  C   UNL     1      46.805   1.388   7.595  0.00  0.00    +0.000 A 
ATOM     11  C   UNL     1      47.400   0.918   6.422  0.00  0.00    +0.000 A 
ATOM     12  C   UNL     1      47.446   1.728   5.292  0.00  0.00    +0.000 A 
ATOM     13  C   UNL     1      46.914   3.013   5.346  0.00  0.00    +0.000 A 
ATOM     14  C   UNL     1      46.332   3.485   6.528  0.00  0.00    +0.000 A 
ENDBRANCH   7   9
ENDBRANCH   1   2
BRANCH   1  15
ATOM     15  O   UNL     1      46.608   6.638  11.150  0.00  0.00    +0.000 OA
BRANCH  15  19
ATOM     16  C   UNL     1      48.097   6.035  15.002  0.00  0.00    +0.000 A 
ATOM     17  C   UNL     1      48.491   7.184  14.306  0.00  0.00    +0.000 A 
ATOM     18  C   UNL     1      48.013   7.420  13.015  0.00  0.00    +0.000 A 
ATOM     19  C   UNL     1      47.144   6.510  12.404  0.00  0.00    +0.000 A 
ATOM     20  C   UNL     1      46.768   5.357  13.096  0.00  0.00    +0.000 A 
ATOM     21  C   UNL     1      47.246   5.114  14.387  0.00  0.00    +0.000 A 
BRANCH  16  23
ATOM     22  N   UNL     1      48.122   6.557  17.382  0.00  0.00    +0.000 N 
ATOM     23  C   UNL     1      48.588   5.756  16.378  0.00  0.00    +0.000 C 
ATOM     24  O   UNL     1      49.346   4.825  16.612  0.00  0.00    +0.000 OA
ATOM     25  H   UNL     1      48.380   6.286  18.322  0.00  0.00    +0.000 HD
ATOM     26  H   UNL     1      47.311   7.147  17.271  0.00  0.00    +0.000 HD
ENDBRANCH  16  23
ENDBRANCH  15  19
ENDBRANCH   1  15
TORSDOF 5
ENDMDL
MODEL 6
REMARK VINA RESULT:    -7.044      3.288      6.709
REMARK INTER + INTRA:         -10.220
REMARK INTER:                  -9.401
REMARK INTRA:                  -0.819
REMARK UNBOUND:                -1.117
REMARK  Name = 
REMARK  5 active torsions:
REMARK  status: ('A' for Active; 'I' for Inactive)
REMARK    1  A    between atoms: C_2  and  C_4
REMARK    2  A    between atoms: C_7  and  O_8
REMARK    3  A    between atoms: O_8  and  C_9
REMARK    4  A    between atoms: C_9  and  C_10
REMARK    5  A    between atoms: C_15  and  C_16
REMARK                            x       y       z     vdW  Elec       q    Type
REMARK                         _______ _______ _______ _____ _____    ______ ____
ROOT
ATOM      1  C   UNL     1      44.735   7.654  11.707  0.00  0.00    +0.000 C 
ENDROOT
BRANCH   1   2
ATOM      2  C   UNL     1      44.461   6.183  11.491  0.00  0.00    +0.000 A 
ATOM      3  C   UNL     1      43.436   5.558  12.210  0.00  0.00    +0.000 A 
ATOM      4  C   UNL     1      43.119   4.226  11.959  0.00  0.00    +0.000 A 
ATOM      5  C   UNL     1      43.804   3.522  10.970  0.00  0.00    +0.000 A 
ATOM      6  F   UNL     1      43.448   2.243  10.771  0.00  0.00    +0.000 F 
ATOM      7  C   UNL     1      44.808   4.119  10.189  0.00  0.00    +0.000 A 
ATOM      8  C   UNL     1      45.133   5.458  10.489  0.00  0.00    +0.000 A 
BRANCH   7   9
ATOM      9  C   UNL     1      45.440   3.428   9.039  0.00  0.00    +0.000 A 
ATOM     10  C   UNL     1      45.957   4.158   7.951  0.00  0.00    +0.000 A 
ATOM     11  C   UNL     1      46.637   3.533   6.902  0.00  0.00    +0.000 A 
ATOM     12  C   UNL     1      46.825   2.156   6.919  0.00  0.00    +0.000 A 
ATOM     13  C   UNL     1      46.315   1.404   7.974  0.00  0.00    +0.000 A 
ATOM     14  C   UNL     1      45.622   2.033   9.015  0.00  0.00    +0.000 A 
ENDBRANCH   7   9
ENDBRANCH   1   2
BRANCH   1  15
ATOM     15  O   UNL     1      45.616   7.861  12.811  0.00  0.00    +0.000 OA
BRANCH  15  19
ATOM     16  C   UNL     1      49.642   8.338  11.818  0.00  0.00    +0.000 A 
ATOM     17  C   UNL     1      49.210   7.087  12.273  0.00  0.00    +0.000 A 
ATOM     18  C   UNL     1      47.870   6.890  12.615  0.00  0.00    +0.000 A 
ATOM     19  C   UNL     1      46.951   7.938  12.511  0.00  0.00    +0.000 A 
ATOM     20  C   UNL     1      47.390   9.189  12.073  0.00  0.00    +0.000 A 
ATOM     21  C   UNL     1      48.730   9.394  11.734  0.00  0.00    +0.000 A 
BRANCH  16  23
ATOM     22  N   UNL     1      51.874   7.487  11.340  0.00  0.00    +0.000 N 
ATOM     23  C   UNL     1      51.061   8.580  11.446  0.00  0.00    +0.000 C 
ATOM     24  O   UNL     1      51.479   9.705  11.205  0.00  0.00    +0.000 OA
ATOM     25  H   UNL     1      52.805   7.660  10.981  0.00  0.00    +0.000 HD
ATOM     26  H   UNL     1      51.512   6.549  11.269  0.00  0.00    +0.000 HD
ENDBRANCH  16  23
ENDBRANCH  15  19
ENDBRANCH   1  15
TORSDOF 5
ENDMDL
MODEL 7
REMARK VINA RESULT:    -6.558      4.944      8.337
REMARK INTER + INTRA:          -9.593
REMARK INTER:                  -8.574
REMARK INTRA:                  -1.019
REMARK UNBOUND:                -1.117
REMARK  Name = 
REMARK  5 active torsions:
REMARK  status: ('A' for Active; 'I' for Inactive)
REMARK    1  A    between atoms: C_2  and  C_4
REMARK    2  A    between atoms: C_7  and  O_8
REMARK    3  A    between atoms: O_8  and  C_9
REMARK    4  A    between atoms: C_9  and  C_10
REMARK    5  A    between atoms: C_15  and  C_16
REMARK                            x       y       z     vdW  Elec       q    Type
REMARK                         _______ _______ _______ _____ _____    ______ ____
ROOT
ATOM      1  C   UNL     1      48.432   7.449  14.021  0.00  0.00    +0.000 C 
ENDROOT
BRANCH   1   2
ATOM      2  C   UNL     1      47.125   7.428  13.262  0.00  0.00    +0.000 A 
ATOM      3  C   UNL     1      46.321   8.574  13.237  0.00  0.00    +0.000 A 
ATOM      4  C   UNL     1      45.158   8.595  12.474  0.00  0.00    +0.000 A 
ATOM      5  C   UNL     1      44.807   7.483  11.709  0.00  0.00    +0.000 A 
ATOM      6  F   UNL     1      43.677   7.566  10.990  0.00  0.00    +0.000 F 
ATOM      7  C   UNL     1      45.605   6.326  11.663  0.00  0.00    +0.000 A 
ATOM      8  C   UNL     1      46.759   6.321  12.474  0.00  0.00    +0.000 A 
BRANCH   7   9
ATOM      9  C   UNL     1      45.323   5.199  10.743  0.00  0.00    +0.000 A 
ATOM     10  C   UNL     1      44.569   4.089  11.170  0.00  0.00    +0.000 A 
ATOM     11  C   UNL     1      44.214   3.060  10.293  0.00  0.00    +0.000 A 
ATOM     12  C   UNL     1      44.599   3.120   8.959  0.00  0.00    +0.000 A 
ATOM     13  C   UNL     1      45.356   4.198   8.509  0.00  0.00    +0.000 A 
ATOM     14  C   UNL     1      45.721   5.219   9.394  0.00  0.00    +0.000 A 
ENDBRANCH   7   9
ENDBRANCH   1   2
BRANCH   1  15
ATOM     15  O   UNL     1      48.818   6.136  14.425  0.00  0.00    +0.000 OA
BRANCH  15  19
ATOM     16  C   UNL     1      48.270   5.364  18.491  0.00  0.00    +0.000 A 
ATOM     17  C   UNL     1      47.699   4.486  17.562  0.00  0.00    +0.000 A 
ATOM     18  C   UNL     1      47.861   4.713  16.192  0.00  0.00    +0.000 A 
ATOM     19  C   UNL     1      48.588   5.817  15.738  0.00  0.00    +0.000 A 
ATOM     20  C   UNL     1      49.141   6.699  16.669  0.00  0.00    +0.000 A 
ATOM     21  C   UNL     1      48.979   6.480  18.040  0.00  0.00    +0.000 A 
BRANCH  16  23
ATOM     22  N   UNL     1      48.488   3.933  20.451  0.00  0.00    +0.000 N 
ATOM     23  C   UNL     1      48.116   5.150  19.955  0.00  0.00    +0.000 C 
ATOM     24  O   UNL     1      47.710   6.037  20.693  0.00  0.00    +0.000 OA
ATOM     25  H   UNL     1      48.479   3.844  21.459  0.00  0.00    +0.000 HD
ATOM     26  H   UNL     1      49.062   3.289  19.929  0.00  0.00    +0.000 HD
ENDBRANCH  16  23
ENDBRANCH  15  19
ENDBRANCH   1  15
TORSDOF 5
ENDMDL
MODEL 8
REMARK VINA RESULT:    -6.371      3.462      5.809
REMARK INTER + INTRA:          -9.350
REMARK INTER:                  -8.218
REMARK INTRA:                  -1.132
REMARK UNBOUND:                -1.117
REMARK  Name = 
REMARK  5 active torsions:
REMARK  status: ('A' for Active; 'I' for Inactive)
REMARK    1  A    between atoms: C_2  and  C_4
REMARK    2  A    between atoms: C_7  and  O_8
REMARK    3  A    between atoms: O_8  and  C_9
REMARK    4  A    between atoms: C_9  and  C_10
REMARK    5  A    between atoms: C_15  and  C_16
REMARK                            x       y       z     vdW  Elec       q    Type
REMARK                         _______ _______ _______ _____ _____    ______ ____
ROOT
ATOM      1  C   UNL     1      47.820   7.790  12.298  0.00  0.00    +0.000 C 
ENDROOT
BRANCH   1   2
ATOM      2  C   UNL     1      48.230   7.839  13.753  0.00  0.00    +0.000 A 
ATOM      3  C   UNL     1      48.265   9.068  14.420  0.00  0.00    +0.000 A 
ATOM      4  C   UNL     1      48.558   9.117  15.780  0.00  0.00    +0.000 A 
ATOM      5  C   UNL     1      48.790   7.936  16.485  0.00  0.00    +0.000 A 
ATOM      6  F   UNL     1      49.062   8.048  17.794  0.00  0.00    +0.000 F 
ATOM      7  C   UNL     1      48.720   6.674  15.870  0.00  0.00    +0.000 A 
ATOM      8  C   UNL     1      48.456   6.658  14.485  0.00  0.00    +0.000 A 
BRANCH   7   9
ATOM      9  C   UNL     1      48.817   5.408  16.635  0.00  0.00    +0.000 A 
ATOM     10  C   UNL     1      47.734   4.510  16.690  0.00  0.00    +0.000 A 
ATOM     11  C   UNL     1      47.837   3.271  17.328  0.00  0.00    +0.000 A 
ATOM     12  C   UNL     1      49.035   2.894  17.924  0.00  0.00    +0.000 A 
ATOM     13  C   UNL     1      50.120   3.765  17.899  0.00  0.00    +0.000 A 
ATOM     14  C   UNL     1      50.008   5.011  17.271  0.00  0.00    +0.000 A 
ENDBRANCH   7   9
ENDBRANCH   1   2
BRANCH   1  15
ATOM     15  O   UNL     1      46.401   7.827  12.158  0.00  0.00    +0.000 OA
BRANCH  15  19
ATOM     16  C   UNL     1      44.558   4.177  11.318  0.00  0.00    +0.000 A 
ATOM     17  C   UNL     1      44.551   4.641  12.639  0.00  0.00    +0.000 A 
ATOM     18  C   UNL     1      45.157   5.858  12.958  0.00  0.00    +0.000 A 
ATOM     19  C   UNL     1      45.781   6.620  11.966  0.00  0.00    +0.000 A 
ATOM     20  C   UNL     1      45.801   6.146  10.653  0.00  0.00    +0.000 A 
ATOM     21  C   UNL     1      45.199   4.927  10.328  0.00  0.00    +0.000 A 
BRANCH  16  23
ATOM     22  N   UNL     1      44.507   2.167   9.942  0.00  0.00    +0.000 N 
ATOM     23  C   UNL     1      43.921   2.886  10.946  0.00  0.00    +0.000 C 
ATOM     24  O   UNL     1      42.938   2.462  11.536  0.00  0.00    +0.000 OA
ATOM     25  H   UNL     1      44.125   1.245   9.777  0.00  0.00    +0.000 HD
ATOM     26  H   UNL     1      45.446   2.350   9.623  0.00  0.00    +0.000 HD
ENDBRANCH  16  23
ENDBRANCH  15  19
ENDBRANCH   1  15
TORSDOF 5
ENDMDL
MODEL 9
REMARK VINA RESULT:    -6.328      5.344      7.979
REMARK INTER + INTRA:          -9.295
REMARK INTER:                  -8.260
REMARK INTRA:                  -1.035
REMARK UNBOUND:                -1.117
REMARK  Name = 
REMARK  5 active torsions:
REMARK  status: ('A' for Active; 'I' for Inactive)
REMARK    1  A    between atoms: C_2  and  C_4
REMARK    2  A    between atoms: C_7  and  O_8
REMARK    3  A    between atoms: O_8  and  C_9
REMARK    4  A    between atoms: C_9  and  C_10
REMARK    5  A    between atoms: C_15  and  C_16
REMARK                            x       y       z     vdW  Elec       q    Type
REMARK                         _______ _______ _______ _____ _____    ______ ____
ROOT
ATOM      1  C   UNL     1      48.834   6.590  16.462  0.00  0.00    +0.000 C 
ENDROOT
BRANCH   1   2
ATOM      2  C   UNL     1      48.548   6.733  14.985  0.00  0.00    +0.000 A 
ATOM      3  C   UNL     1      49.507   7.317  14.149  0.00  0.00    +0.000 A 
ATOM      4  C   UNL     1      49.292   7.378  12.775  0.00  0.00    +0.000 A 
ATOM      5  C   UNL     1      48.132   6.832  12.227  0.00  0.00    +0.000 A 
ATOM      6  F   UNL     1      47.985   6.916  10.896  0.00  0.00    +0.000 F 
ATOM      7  C   UNL     1      47.162   6.192  13.019  0.00  0.00    +0.000 A 
ATOM      8  C   UNL     1      47.390   6.177  14.410  0.00  0.00    +0.000 A 
BRANCH   7   9
ATOM      9  C   UNL     1      46.001   5.479  12.435  0.00  0.00    +0.000 A 
ATOM     10  C   UNL     1      45.801   4.106  12.673  0.00  0.00    +0.000 A 
ATOM     11  C   UNL     1      44.666   3.436  12.209  0.00  0.00    +0.000 A 
ATOM     12  C   UNL     1      43.692   4.130  11.499  0.00  0.00    +0.000 A 
ATOM     13  C   UNL     1      43.866   5.485  11.237  0.00  0.00    +0.000 A 
ATOM     14  C   UNL     1      45.012   6.148  11.691  0.00  0.00    +0.000 A 
ENDBRANCH   7   9
ENDBRANCH   1   2
BRANCH   1  15
ATOM     15  O   UNL     1      48.265   5.390  16.986  0.00  0.00    +0.000 OA
BRANCH  15  19
ATOM     16  C   UNL     1      51.055   2.319  17.448  0.00  0.00    +0.000 A 
ATOM     17  C   UNL     1      49.757   1.987  17.043  0.00  0.00    +0.000 A 
ATOM     18  C   UNL     1      48.796   2.988  16.878  0.00  0.00    +0.000 A 
ATOM     19  C   UNL     1      49.119   4.326  17.120  0.00  0.00    +0.000 A 
ATOM     20  C   UNL     1      50.410   4.652  17.541  0.00  0.00    +0.000 A 
ATOM     21  C   UNL     1      51.375   3.654  17.712  0.00  0.00    +0.000 A 
BRANCH  16  23
ATOM     22  N   UNL     1      51.699   0.074  18.141  0.00  0.00    +0.000 N 
ATOM     23  C   UNL     1      52.100   1.278  17.633  0.00  0.00    +0.000 C 
ATOM     24  O   UNL     1      53.263   1.472  17.308  0.00  0.00    +0.000 OA
ATOM     25  H   UNL     1      52.400  -0.655  18.157  0.00  0.00    +0.000 HD
ATOM     26  H   UNL     1      50.731  -0.206  18.167  0.00  0.00    +0.000 HD
ENDBRANCH  16  23
ENDBRANCH  15  19
ENDBRANCH   1  15
TORSDOF 5
ENDMDL
