MODEL 1
REMARK VINA RESULT:    -6.995      0.000      0.000
REMARK INTER + INTRA:         -10.019
REMARK INTER:                  -9.448
REMARK INTRA:                  -0.570
REMARK UNBOUND:                -0.570
REMARK  Name = 
REMARK  7 active torsions:
REMARK  status: ('A' for Active; 'I' for Inactive)
REMARK    1  A    between atoms: C_1  and  O_2
REMARK    2  A    between atoms: O_2  and  C_3
REMARK    3  A    between atoms: C_5  and  C_6
REMARK    4  A    between atoms: C_11  and  C_12
REMARK    5  A    between atoms: C_12  and  C_13
REMARK    6  A    between atoms: C_13  and  C_14
REMARK    7  A    between atoms: C_19  and  C_20
REMARK                            x       y       z     vdW  Elec       q    Type
REMARK                         _______ _______ _______ _____ _____    ______ ____
ROOT
ATOM      1  C   UNL     1      44.593   6.576  10.813  0.00  0.00    +0.000 C 
ENDROOT
BRANCH   1   2
ATOM      2  C   UNL     1      45.523   6.185  11.942  0.00  0.00    +0.000 A 
ATOM      3  C   UNL     1      45.102   5.372  12.995  0.00  0.00    +0.000 A 
ATOM      4  C   UNL     1      45.997   5.038  14.009  0.00  0.00    +0.000 A 
ATOM      5  C   UNL     1      47.301   5.537  13.990  0.00  0.00    +0.000 A 
ATOM      6  F   UNL     1      48.103   5.220  15.017  0.00  0.00    +0.000 F 
ATOM      7  C   UNL     1      47.755   6.380  12.965  0.00  0.00    +0.000 A 
ATOM      8  C   UNL     1      46.837   6.683  11.946  0.00  0.00    +0.000 A 
BRANCH   7   9
ATOM      9  C   UNL     1      49.145   7.016  13.028  0.00  0.00    +0.000 C 
ATOM     10  C   UNL     1      49.444   7.861  14.291  0.00  0.00    +0.000 C 
ATOM     11  C   UNL     1      48.759   9.231  14.246  0.00  0.00    +0.000 C 
ATOM     12  C   UNL     1      49.010   9.966  12.931  0.00  0.00    +0.000 C 
ATOM     13  N   UNL     1      48.755   9.136  11.757  0.00  0.00    +0.000 NA
ATOM     14  C   UNL     1      49.515   7.884  11.803  0.00  0.00    +0.000 C 
ATOM     15  H   UNL     1      49.013   9.651  10.915  0.00  0.00    +0.000 HD
ENDBRANCH   7   9
ENDBRANCH   1   2
BRANCH   1  16
ATOM     16  C   UNL     1      43.676   5.420  10.405  0.00  0.00    +0.000 C 
BRANCH  16  22
ATOM     17  C   UNL     1      44.191   2.958   9.974  0.00  0.00    +0.000 A 
ATOM     18  C   UNL     1      44.923   2.011   9.251  0.00  0.00    +0.000 A 
ATOM     19  C   UNL     1      45.882   2.412   8.320  0.00  0.00    +0.000 A 
ATOM     20  C   UNL     1      46.074   3.772   8.151  0.00  0.00    +0.000 A 
ATOM     21  N   UNL     1      45.374   4.724   8.815  0.00  0.00    +0.000 NA
ATOM     22  C   UNL     1      44.432   4.314   9.707  0.00  0.00    +0.000 A 
BRANCH  19  23
ATOM     23  C   UNL     1      46.636   1.371   7.585  0.00  0.00    +0.000 C 
ATOM     24  N   UNL     1      47.368   1.728   6.486  0.00  0.00    +0.000 N 
ATOM     25  O   UNL     1      46.615   0.197   7.945  0.00  0.00    +0.000 OA
ATOM     26  H   UNL     1      47.442   2.653   6.094  0.00  0.00    +0.000 HD
ATOM     27  H   UNL     1      47.862   0.980   6.010  0.00  0.00    +0.000 HD
ENDBRANCH  19  23
BRANCH  17  29
ATOM     28  C   UNL     1      43.723   2.435  12.235  0.00  0.00    +0.000 C 
ATOM     29  O   UNL     1      43.240   2.642  10.908  0.00  0.00    +0.000 OA
ENDBRANCH  17  29
ENDBRANCH  16  22
ENDBRANCH   1  16
TORSDOF 6
ENDMDL
MODEL 2
REMARK VINA RESULT:    -6.935      4.045      7.474
REMARK INTER + INTRA:          -9.937
REMARK INTER:                  -9.281
REMARK INTRA:                  -0.657
REMARK UNBOUND:                -0.570
REMARK  Name = 
REMARK  7 active torsions:
REMARK  status: ('A' for Active; 'I' for Inactive)
REMARK    1  A    between atoms: C_1  and  O_2
REMARK    2  A    between atoms: O_2  and  C_3
REMARK    3  A    between atoms: C_5  and  C_6
REMARK    4  A    between atoms: C_11  and  C_12
REMARK    5  A    between atoms: C_12  and  C_13
REMARK    6  A    between atoms: C_13  and  C_14
REMARK    7  A    between atoms: C_19  and  C_20
REMARK                            x       y       z     vdW  Elec       q    Type
REMARK                         _______ _______ _______ _____ _____    ______ ____
ROOT
ATOM      1  C   UNL     1      48.321   6.735  12.578  0.00  0.00    +0.000 C 
ENDROOT
BRANCH   1   2
ATOM      2  C   UNL     1      46.964   7.253  12.153  0.00  0.00    +0.000 A 
ATOM      3  C   UNL     1      46.629   8.604  12.248  0.00  0.00    +0.000 A 
ATOM      4  C   UNL     1      45.367   9.033  11.840  0.00  0.00    +0.000 A 
ATOM      5  C   UNL     1      44.430   8.111  11.367  0.00  0.00    +0.000 A 
ATOM      6  F   UNL     1      43.216   8.575  11.034  0.00  0.00    +0.000 F 
ATOM      7  C   UNL     1      44.717   6.741  11.283  0.00  0.00    +0.000 A 
ATOM      8  C   UNL     1      46.003   6.342  11.681  0.00  0.00    +0.000 A 
BRANCH   7   9
ATOM      9  C   UNL     1      43.637   5.734  10.880  0.00  0.00    +0.000 C 
ATOM     10  C   UNL     1      42.623   5.355  11.987  0.00  0.00    +0.000 C 
ATOM     11  C   UNL     1      43.222   4.387  13.014  0.00  0.00    +0.000 C 
ATOM     12  C   UNL     1      43.904   3.189  12.356  0.00  0.00    +0.000 C 
ATOM     13  N   UNL     1      44.828   3.572  11.293  0.00  0.00    +0.000 NA
ATOM     14  C   UNL     1      44.176   4.413  10.284  0.00  0.00    +0.000 C 
ATOM     15  H   UNL     1      45.192   2.733  10.841  0.00  0.00    +0.000 HD
ENDBRANCH   7   9
ENDBRANCH   1   2
BRANCH   1  16
ATOM     16  C   UNL     1      48.715   7.242  13.968  0.00  0.00    +0.000 C 
BRANCH  16  22
ATOM     17  C   UNL     1      49.036   6.302  16.318  0.00  0.00    +0.000 A 
ATOM     18  C   UNL     1      48.709   5.314  17.252  0.00  0.00    +0.000 A 
ATOM     19  C   UNL     1      47.861   4.261  16.907  0.00  0.00    +0.000 A 
ATOM     20  C   UNL     1      47.368   4.239  15.614  0.00  0.00    +0.000 A 
ATOM     21  N   UNL     1      47.642   5.186  14.684  0.00  0.00    +0.000 NA
ATOM     22  C   UNL     1      48.458   6.212  15.042  0.00  0.00    +0.000 A 
BRANCH  19  23
ATOM     23  C   UNL     1      47.551   3.235  17.929  0.00  0.00    +0.000 C 
ATOM     24  N   UNL     1      48.298   3.186  19.074  0.00  0.00    +0.000 N 
ATOM     25  O   UNL     1      46.637   2.431  17.766  0.00  0.00    +0.000 OA
ATOM     26  H   UNL     1      49.077   3.782  19.302  0.00  0.00    +0.000 HD
ATOM     27  H   UNL     1      48.054   2.462  19.741  0.00  0.00    +0.000 HD
ENDBRANCH  19  23
BRANCH  17  29
ATOM     28  C   UNL     1      49.394   8.288  17.555  0.00  0.00    +0.000 C 
ATOM     29  O   UNL     1      49.866   7.359  16.580  0.00  0.00    +0.000 OA
ENDBRANCH  17  29
ENDBRANCH  16  22
ENDBRANCH   1  16
TORSDOF 6
ENDMDL
MODEL 3
REMARK VINA RESULT:    -6.871      3.751      6.289
REMARK INTER + INTRA:          -9.851
REMARK INTER:                  -8.970
REMARK INTRA:                  -0.882
REMARK UNBOUND:                -0.570
REMARK  Name = 
REMARK  7 active torsions:
REMARK  status: ('A' for Active; 'I' for Inactive)
REMARK    1  A    between atoms: C_1  and  O_2
REMARK    2  A    between atoms: O_2  and  C_3
REMARK    3  A    between atoms: C_5  and  C_6
REMARK    4  A    between atoms: C_11  and  C_12
REMARK    5  A    between atoms: C_12  and  C_13
REMARK    6  A    between atoms: C_13  and  C_14
REMARK    7  A    between atoms: C_19  and  C_20
REMARK                            x       y       z     vdW  Elec       q    Type
REMARK                         _______ _______ _______ _____ _____    ______ ____
ROOT
ATOM      1  C   UNL     1      48.952   7.775  14.563  0.00  0.00    +0.000 C 
ENDROOT
BRANCH   1   2
ATOM      2  C   UNL     1      49.867   7.069  15.541  0.00  0.00    +0.000 A 
ATOM      3  C   UNL     1      51.248   7.265  15.531  0.00  0.00    +0.000 A 
ATOM      4  C   UNL     1      52.048   6.594  16.455  0.00  0.00    +0.000 A 
ATOM      5  C   UNL     1      51.474   5.705  17.366  0.00  0.00    +0.000 A 
ATOM      6  F   UNL     1      52.298   5.052  18.199  0.00  0.00    +0.000 F 
ATOM      7  C   UNL     1      50.094   5.457  17.390  0.00  0.00    +0.000 A 
ATOM      8  C   UNL     1      49.312   6.164  16.462  0.00  0.00    +0.000 A 
BRANCH   7   9
ATOM      9  C   UNL     1      49.503   4.388  18.312  0.00  0.00    +0.000 C 
ATOM     10  C   UNL     1      49.438   2.956  17.728  0.00  0.00    +0.000 C 
ATOM     11  C   UNL     1      48.299   2.793  16.716  0.00  0.00    +0.000 C 
ATOM     12  C   UNL     1      46.965   3.307  17.253  0.00  0.00    +0.000 C 
ATOM     13  N   UNL     1      47.061   4.646  17.830  0.00  0.00    +0.000 NA
ATOM     14  C   UNL     1      48.097   4.718  18.865  0.00  0.00    +0.000 C 
ATOM     15  H   UNL     1      46.163   4.903  18.240  0.00  0.00    +0.000 HD
ENDBRANCH   7   9
ENDBRANCH   1   2
BRANCH   1  16
ATOM     16  C   UNL     1      48.798   6.990  13.259  0.00  0.00    +0.000 C 
BRANCH  16  22
ATOM     17  C   UNL     1      46.323   6.880  12.646  0.00  0.00    +0.000 A 
ATOM     18  C   UNL     1      45.151   6.120  12.591  0.00  0.00    +0.000 A 
ATOM     19  C   UNL     1      45.125   4.814  13.083  0.00  0.00    +0.000 A 
ATOM     20  C   UNL     1      46.297   4.315  13.624  0.00  0.00    +0.000 A 
ATOM     21  N   UNL     1      47.460   5.008  13.679  0.00  0.00    +0.000 NA
ATOM     22  C   UNL     1      47.470   6.273  13.181  0.00  0.00    +0.000 A 
BRANCH  19  23
ATOM     23  C   UNL     1      43.857   4.052  13.008  0.00  0.00    +0.000 C 
ATOM     24  N   UNL     1      43.888   2.741  12.621  0.00  0.00    +0.000 N 
ATOM     25  O   UNL     1      42.782   4.577  13.288  0.00  0.00    +0.000 OA
ATOM     26  H   UNL     1      44.706   2.217  12.354  0.00  0.00    +0.000 HD
ATOM     27  H   UNL     1      42.994   2.262  12.577  0.00  0.00    +0.000 HD
ENDBRANCH  19  23
BRANCH  17  29
ATOM     28  C   UNL     1      45.416   9.066  12.653  0.00  0.00    +0.000 C 
ATOM     29  O   UNL     1      46.424   8.167  12.191  0.00  0.00    +0.000 OA
ENDBRANCH  17  29
ENDBRANCH  16  22
ENDBRANCH   1  16
TORSDOF 6
ENDMDL
MODEL 4
REMARK VINA RESULT:    -6.719      5.355      8.216
REMARK INTER + INTRA:          -9.646
REMARK INTER:                  -9.001
REMARK INTRA:                  -0.645
REMARK UNBOUND:                -0.570
REMARK  Name = 
REMARK  7 active torsions:
REMARK  status: ('A' for Active; 'I' for Inactive)
REMARK    1  A    between atoms: C_1  and  O_2
REMARK    2  A    between atoms: O_2  and  C_3
REMARK    3  A    between atoms: C_5  and  C_6
REMARK    4  A    between atoms: C_11  and  C_12
REMARK    5  A    between atoms: C_12  and  C_13
REMARK    6  A    between atoms: C_13  and  C_14
REMARK    7  A    between atoms: C_19  and  C_20
REMARK                            x       y       z     vdW  Elec       q    Type
REMARK                         _______ _______ _______ _____ _____    ______ ____
ROOT
ATOM      1  C   UNL     1      47.119   3.930  15.679  0.00  0.00    +0.000 C 
ENDROOT
BRANCH   1   2
ATOM      2  C   UNL     1      46.943   4.863  14.501  0.00  0.00    +0.000 A 
ATOM      3  C   UNL     1      47.819   5.923  14.264  0.00  0.00    +0.000 A 
ATOM      4  C   UNL     1      47.616   6.753  13.162  0.00  0.00    +0.000 A 
ATOM      5  C   UNL     1      46.525   6.545  12.316  0.00  0.00    +0.000 A 
ATOM      6  F   UNL     1      46.354   7.404  11.300  0.00  0.00    +0.000 F 
ATOM      7  C   UNL     1      45.605   5.509  12.535  0.00  0.00    +0.000 A 
ATOM      8  C   UNL     1      45.847   4.676  13.640  0.00  0.00    +0.000 A 
BRANCH   7   9
ATOM      9  C   UNL     1      44.350   5.375  11.670  0.00  0.00    +0.000 C 
ATOM     10  C   UNL     1      43.212   4.508  12.263  0.00  0.00    +0.000 C 
ATOM     11  C   UNL     1      43.512   3.009  12.159  0.00  0.00    +0.000 C 
ATOM     12  C   UNL     1      43.940   2.596  10.753  0.00  0.00    +0.000 C 
ATOM     13  N   UNL     1      44.989   3.451  10.203  0.00  0.00    +0.000 NA
ATOM     14  C   UNL     1      44.607   4.866  10.233  0.00  0.00    +0.000 C 
ATOM     15  H   UNL     1      45.178   3.178   9.239  0.00  0.00    +0.000 HD
ENDBRANCH   7   9
ENDBRANCH   1   2
BRANCH   1  16
ATOM     16  C   UNL     1      47.951   4.570  16.793  0.00  0.00    +0.000 C 
BRANCH  16  22
ATOM     17  C   UNL     1      50.300   4.352  17.765  0.00  0.00    +0.000 A 
ATOM     18  C   UNL     1      51.409   3.535  18.008  0.00  0.00    +0.000 A 
ATOM     19  C   UNL     1      51.436   2.216  17.552  0.00  0.00    +0.000 A 
ATOM     20  C   UNL     1      50.330   1.762  16.856  0.00  0.00    +0.000 A 
ATOM     21  N   UNL     1      49.226   2.511  16.615  0.00  0.00    +0.000 NA
ATOM     22  C   UNL     1      49.212   3.789  17.080  0.00  0.00    +0.000 A 
BRANCH  19  23
ATOM     23  C   UNL     1      52.636   1.394  17.828  0.00  0.00    +0.000 C 
ATOM     24  N   UNL     1      52.480   0.135  18.338  0.00  0.00    +0.000 N 
ATOM     25  O   UNL     1      53.765   1.823  17.607  0.00  0.00    +0.000 OA
ATOM     26  H   UNL     1      51.606  -0.309  18.573  0.00  0.00    +0.000 HD
ATOM     27  H   UNL     1      53.330  -0.389  18.519  0.00  0.00    +0.000 HD
ENDBRANCH  19  23
BRANCH  17  29
ATOM     28  C   UNL     1      51.425   6.394  18.173  0.00  0.00    +0.000 C 
ATOM     29  O   UNL     1      50.205   5.655  18.173  0.00  0.00    +0.000 OA
ENDBRANCH  17  29
ENDBRANCH  16  22
ENDBRANCH   1  16
TORSDOF 6
ENDMDL
MODEL 5
REMARK VINA RESULT:    -6.619      3.666      6.179
REMARK INTER + INTRA:          -9.511
REMARK INTER:                  -8.419
REMARK INTRA:                  -1.092
REMARK UNBOUND:                -0.570
REMARK  Name = 
REMARK  7 active torsions:
REMARK  status: ('A' for Active; 'I' for Inactive)
REMARK    1  A    between atoms: C_1  and  O_2
REMARK    2  A    between atoms: O_2  and  C_3
REMARK    3  A    between atoms: C_5  and  C_6
REMARK    4  A    between atoms: C_11  and  C_12
REMARK    5  A    between atoms: C_12  and  C_13
REMARK    6  A    between atoms: C_13  and  C_14
REMARK    7  A    between atoms: C_19  and  C_20
REMARK                            x       y       z     vdW  Elec       q    Type
REMARK                         _______ _______ _______ _____ _____    ______ ____
ROOT
ATOM      1  C   UNL     1      49.611   7.510  13.675  0.00  0.00    +0.000 C 
ENDROOT
BRANCH   1   2
ATOM      2  C   UNL     1      49.120   7.881  15.057  0.00  0.00    +0.000 A 
ATOM      3  C   UNL     1      48.718   9.179  15.371  0.00  0.00    +0.000 A 
ATOM      4  C   UNL     1      48.269   9.470  16.659  0.00  0.00    +0.000 A 
ATOM      5  C   UNL     1      48.250   8.476  17.639  0.00  0.00    +0.000 A 
ATOM      6  F   UNL     1      47.853   8.826  18.871  0.00  0.00    +0.000 F 
ATOM      7  C   UNL     1      48.673   7.165  17.372  0.00  0.00    +0.000 A 
ATOM      8  C   UNL     1      49.100   6.897  16.061  0.00  0.00    +0.000 A 
BRANCH   7   9
ATOM      9  C   UNL     1      48.761   6.124  18.489  0.00  0.00    +0.000 C 
ATOM     10  C   UNL     1      49.618   4.873  18.178  0.00  0.00    +0.000 C 
ATOM     11  C   UNL     1      48.896   3.893  17.247  0.00  0.00    +0.000 C 
ATOM     12  C   UNL     1      47.479   3.576  17.721  0.00  0.00    +0.000 C 
ATOM     13  N   UNL     1      46.704   4.771  18.041  0.00  0.00    +0.000 NA
ATOM     14  C   UNL     1      47.397   5.622  19.015  0.00  0.00    +0.000 C 
ATOM     15  H   UNL     1      45.800   4.497  18.424  0.00  0.00    +0.000 HD
ENDBRANCH   7   9
ENDBRANCH   1   2
BRANCH   1  16
ATOM     16  C   UNL     1      48.604   7.894  12.589  0.00  0.00    +0.000 C 
BRANCH  16  22
ATOM     17  C   UNL     1      46.059   7.768  12.741  0.00  0.00    +0.000 A 
ATOM     18  C   UNL     1      44.918   6.966  12.833  0.00  0.00    +0.000 A 
ATOM     19  C   UNL     1      45.029   5.578  12.932  0.00  0.00    +0.000 A 
ATOM     20  C   UNL     1      46.305   5.041  12.938  0.00  0.00    +0.000 A 
ATOM     21  N   UNL     1      47.437   5.779  12.830  0.00  0.00    +0.000 NA
ATOM     22  C   UNL     1      47.308   7.128  12.719  0.00  0.00    +0.000 A 
BRANCH  19  23
ATOM     23  C   UNL     1      43.791   4.772  13.035  0.00  0.00    +0.000 C 
ATOM     24  N   UNL     1      42.578   5.401  12.972  0.00  0.00    +0.000 N 
ATOM     25  O   UNL     1      43.836   3.553  13.174  0.00  0.00    +0.000 OA
ATOM     26  H   UNL     1      42.425   6.392  12.877  0.00  0.00    +0.000 HD
ATOM     27  H   UNL     1      41.758   4.809  13.055  0.00  0.00    +0.000 HD
ENDBRANCH  19  23
BRANCH  17  29
ATOM     28  C   UNL     1      44.907   9.683  11.961  0.00  0.00    +0.000 C 
ATOM     29  O   UNL     1      46.030   9.134  12.648  0.00  0.00    +0.000 OA
ENDBRANCH  17  29
ENDBRANCH  16  22
ENDBRANCH   1  16
TORSDOF 6
ENDMDL
MODEL 6
REMARK VINA RESULT:    -6.529      5.004      8.498
REMARK INTER + INTRA:          -9.390
REMARK INTER:                  -8.704
REMARK INTRA:                  -0.686
REMARK UNBOUND:                -0.570
REMARK  Name = 
REMARK  7 active torsions:
REMARK  status: ('A' for Active; 'I' for Inactive)
REMARK    1  A    between atoms: C_1  and  O_2
REMARK    2  A    between atoms: O_2  and  C_3
REMARK    3  A    between atoms: C_5  and  C_6
REMARK    4  A    between atoms: C_11  and  C_12
REMARK    5  A    between atoms: C_12  and  C_13
REMARK    6  A    between atoms: C_13  and  C_14
REMARK    7  A    between atoms: C_19  and  C_20
REMARK                            x       y       z     vdW  Elec       q    Type
REMARK                         _______ _______ _______ _____ _____    ______ ____
ROOT
ATOM      1  C   UNL     1      48.007   5.186  14.672  0.00  0.00    +0.000 C 
ENDROOT
BRANCH   1   2
ATOM      2  C   UNL     1      47.130   5.966  13.717  0.00  0.00    +0.000 A 
ATOM      3  C   UNL     1      47.524   7.198  13.195  0.00  0.00    +0.000 A 
ATOM      4  C   UNL     1      46.682   7.877  12.315  0.00  0.00    +0.000 A 
ATOM      5  C   UNL     1      45.437   7.341  11.980  0.00  0.00    +0.000 A 
ATOM      6  F   UNL     1      44.650   8.061  11.166  0.00  0.00    +0.000 F 
ATOM      7  C   UNL     1      44.991   6.119  12.504  0.00  0.00    +0.000 A 
ATOM      8  C   UNL     1      45.869   5.449  13.371  0.00  0.00    +0.000 A 
BRANCH   7   9
ATOM      9  C   UNL     1      43.575   5.612  12.222  0.00  0.00    +0.000 C 
ATOM     10  C   UNL     1      43.130   4.371  13.034  0.00  0.00    +0.000 C 
ATOM     11  C   UNL     1      43.758   3.077  12.507  0.00  0.00    +0.000 C 
ATOM     12  C   UNL     1      43.595   2.924  10.996  0.00  0.00    +0.000 C 
ATOM     13  N   UNL     1      43.989   4.120  10.256  0.00  0.00    +0.000 NA
ATOM     14  C   UNL     1      43.280   5.312  10.735  0.00  0.00    +0.000 C 
ATOM     15  H   UNL     1      43.786   3.988   9.265  0.00  0.00    +0.000 HD
ENDBRANCH   7   9
ENDBRANCH   1   2
BRANCH   1  16
ATOM     16  C   UNL     1      47.182   4.299  15.608  0.00  0.00    +0.000 C 
BRANCH  16  22
ATOM     17  C   UNL     1      48.644   3.426  17.508  0.00  0.00    +0.000 A 
ATOM     18  C   UNL     1      49.077   3.570  18.830  0.00  0.00    +0.000 A 
ATOM     19  C   UNL     1      48.553   4.573  19.646  0.00  0.00    +0.000 A 
ATOM     20  C   UNL     1      47.594   5.405  19.095  0.00  0.00    +0.000 A 
ATOM     21  N   UNL     1      47.161   5.315  17.813  0.00  0.00    +0.000 NA
ATOM     22  C   UNL     1      47.695   4.341  17.029  0.00  0.00    +0.000 A 
BRANCH  19  23
ATOM     23  C   UNL     1      49.038   4.680  21.041  0.00  0.00    +0.000 C 
ATOM     24  N   UNL     1      50.384   4.677  21.282  0.00  0.00    +0.000 N 
ATOM     25  O   UNL     1      48.254   4.770  21.982  0.00  0.00    +0.000 OA
ATOM     26  H   UNL     1      51.113   4.591  20.591  0.00  0.00    +0.000 HD
ATOM     27  H   UNL     1      50.670   4.745  22.253  0.00  0.00    +0.000 HD
ENDBRANCH  19  23
BRANCH  17  29
ATOM     28  C   UNL     1      50.440   2.016  16.886  0.00  0.00    +0.000 C 
ATOM     29  O   UNL     1      49.106   2.463  16.651  0.00  0.00    +0.000 OA
ENDBRANCH  17  29
ENDBRANCH  16  22
ENDBRANCH   1  16
TORSDOF 6
ENDMDL
MODEL 7
REMARK VINA RESULT:    -6.386      3.768      5.959
REMARK INTER + INTRA:          -9.196
REMARK INTER:                  -8.097
REMARK INTRA:                  -1.099
REMARK UNBOUND:                -0.570
REMARK  Name = 
REMARK  7 active torsions:
REMARK  status: ('A' for Active; 'I' for Inactive)
REMARK    1  A    between atoms: C_1  and  O_2
REMARK    2  A    between atoms: O_2  and  C_3
REMARK    3  A    between atoms: C_5  and  C_6
REMARK    4  A    between atoms: C_11  and  C_12
REMARK    5  A    between atoms: C_12  and  C_13
REMARK    6  A    between atoms: C_13  and  C_14
REMARK    7  A    between atoms: C_19  and  C_20
REMARK                            x       y       z     vdW  Elec       q    Type
REMARK                         _______ _______ _______ _____ _____    ______ ____
ROOT
ATOM      1  C   UNL     1      49.017   8.016  13.807  0.00  0.00    +0.000 C 
ENDROOT
BRANCH   1   2
ATOM      2  C   UNL     1      48.714   8.226  15.274  0.00  0.00    +0.000 A 
ATOM      3  C   UNL     1      48.346   9.474  15.779  0.00  0.00    +0.000 A 
ATOM      4  C   UNL     1      48.073   9.616  17.139  0.00  0.00    +0.000 A 
ATOM      5  C   UNL     1      48.196   8.523  17.998  0.00  0.00    +0.000 A 
ATOM      6  F   UNL     1      47.967   8.730  19.304  0.00  0.00    +0.000 F 
ATOM      7  C   UNL     1      48.591   7.259  17.537  0.00  0.00    +0.000 A 
ATOM      8  C   UNL     1      48.839   7.141  16.159  0.00  0.00    +0.000 A 
BRANCH   7   9
ATOM      9  C   UNL     1      48.840   6.107  18.513  0.00  0.00    +0.000 C 
ATOM     10  C   UNL     1      49.654   4.914  17.954  0.00  0.00    +0.000 C 
ATOM     11  C   UNL     1      48.817   4.023  17.030  0.00  0.00    +0.000 C 
ATOM     12  C   UNL     1      47.481   3.627  17.655  0.00  0.00    +0.000 C 
ATOM     13  N   UNL     1      46.750   4.765  18.205  0.00  0.00    +0.000 NA
ATOM     14  C   UNL     1      47.564   5.522  19.161  0.00  0.00    +0.000 C 
ATOM     15  H   UNL     1      45.908   4.432  18.676  0.00  0.00    +0.000 HD
ENDBRANCH   7   9
ENDBRANCH   1   2
BRANCH   1  16
ATOM     16  C   UNL     1      48.636   6.609  13.342  0.00  0.00    +0.000 C 
BRANCH  16  22
ATOM     17  C   UNL     1      46.295   5.594  13.398  0.00  0.00    +0.000 A 
ATOM     18  C   UNL     1      44.979   5.627  12.927  0.00  0.00    +0.000 A 
ATOM     19  C   UNL     1      44.596   6.548  11.949  0.00  0.00    +0.000 A 
ATOM     20  C   UNL     1      45.567   7.410  11.473  0.00  0.00    +0.000 A 
ATOM     21  N   UNL     1      46.848   7.427  11.916  0.00  0.00    +0.000 NA
ATOM     22  C   UNL     1      47.199   6.534  12.880  0.00  0.00    +0.000 A 
BRANCH  19  23
ATOM     23  C   UNL     1      43.193   6.538  11.477  0.00  0.00    +0.000 C 
ATOM     24  N   UNL     1      42.606   7.716  11.104  0.00  0.00    +0.000 N 
ATOM     25  O   UNL     1      42.550   5.494  11.414  0.00  0.00    +0.000 OA
ATOM     26  H   UNL     1      43.032   8.629  11.132  0.00  0.00    +0.000 HD
ATOM     27  H   UNL     1      41.641   7.662  10.795  0.00  0.00    +0.000 HD
ENDBRANCH  19  23
BRANCH  17  29
ATOM     28  C   UNL     1      46.925   3.371  13.911  0.00  0.00    +0.000 C 
ATOM     29  O   UNL     1      46.746   4.717  14.348  0.00  0.00    +0.000 OA
ENDBRANCH  17  29
ENDBRANCH  16  22
ENDBRANCH   1  16
TORSDOF 6
ENDMDL
MODEL 8
REMARK VINA RESULT:    -6.221      4.766      7.948
REMARK INTER + INTRA:          -8.974
REMARK INTER:                  -8.361
REMARK INTRA:                  -0.612
REMARK UNBOUND:                -0.570
REMARK  Name = 
REMARK  7 active torsions:
REMARK  status: ('A' for Active; 'I' for Inactive)
REMARK    1  A    between atoms: C_1  and  O_2
REMARK    2  A    between atoms: O_2  and  C_3
REMARK    3  A    between atoms: C_5  and  C_6
REMARK    4  A    between atoms: C_11  and  C_12
REMARK    5  A    between atoms: C_12  and  C_13
REMARK    6  A    between atoms: C_13  and  C_14
REMARK    7  A    between atoms: C_19  and  C_20
REMARK                            x       y       z     vdW  Elec       q    Type
REMARK                         _______ _______ _______ _____ _____    ______ ____
ROOT
ATOM      1  C   UNL     1      48.538   6.509  13.967  0.00  0.00    +0.000 C 
ENDROOT
BRANCH   1   2
ATOM      2  C   UNL     1      47.340   7.100  13.255  0.00  0.00    +0.000 A 
ATOM      3  C   UNL     1      46.983   8.441  13.403  0.00  0.00    +0.000 A 
ATOM      4  C   UNL     1      45.873   8.939  12.723  0.00  0.00    +0.000 A 
ATOM      5  C   UNL     1      45.102   8.094  11.922  0.00  0.00    +0.000 A 
ATOM      6  F   UNL     1      44.018   8.617  11.330  0.00  0.00    +0.000 F 
ATOM      7  C   UNL     1      45.409   6.734  11.770  0.00  0.00    +0.000 A 
ATOM      8  C   UNL     1      46.546   6.266  12.450  0.00  0.00    +0.000 A 
BRANCH   7   9
ATOM      9  C   UNL     1      44.482   5.800  10.989  0.00  0.00    +0.000 C 
ATOM     10  C   UNL     1      43.019   5.728  11.491  0.00  0.00    +0.000 C 
ATOM     11  C   UNL     1      42.884   4.888  12.765  0.00  0.00    +0.000 C 
ATOM     12  C   UNL     1      43.567   3.527  12.641  0.00  0.00    +0.000 C 
ATOM     13  N   UNL     1      44.933   3.620  12.132  0.00  0.00    +0.000 NA
ATOM     14  C   UNL     1      44.990   4.346  10.859  0.00  0.00    +0.000 C 
ATOM     15  H   UNL     1      45.309   2.682  11.997  0.00  0.00    +0.000 HD
ENDBRANCH   7   9
ENDBRANCH   1   2
BRANCH   1  16
ATOM     16  C   UNL     1      48.636   6.994  15.416  0.00  0.00    +0.000 C 
BRANCH  16  22
ATOM     17  C   UNL     1      48.996   5.044  17.022  0.00  0.00    +0.000 A 
ATOM     18  C   UNL     1      49.899   4.254  17.740  0.00  0.00    +0.000 A 
ATOM     19  C   UNL     1      51.266   4.533  17.715  0.00  0.00    +0.000 A 
ATOM     20  C   UNL     1      51.680   5.616  16.959  0.00  0.00    +0.000 A 
ATOM     21  N   UNL     1      50.843   6.395  16.232  0.00  0.00    +0.000 NA
ATOM     22  C   UNL     1      49.516   6.099  16.256  0.00  0.00    +0.000 A 
BRANCH  19  23
ATOM     23  C   UNL     1      52.181   3.672  18.498  0.00  0.00    +0.000 C 
ATOM     24  N   UNL     1      52.046   2.313  18.424  0.00  0.00    +0.000 N 
ATOM     25  O   UNL     1      53.056   4.156  19.211  0.00  0.00    +0.000 OA
ATOM     26  H   UNL     1      51.356   1.811  17.887  0.00  0.00    +0.000 HD
ATOM     27  H   UNL     1      52.690   1.764  18.983  0.00  0.00    +0.000 HD
ENDBRANCH  19  23
BRANCH  17  29
ATOM     28  C   UNL     1      47.218   3.502  17.274  0.00  0.00    +0.000 C 
ATOM     29  O   UNL     1      47.642   4.837  17.004  0.00  0.00    +0.000 OA
ENDBRANCH  17  29
ENDBRANCH  16  22
ENDBRANCH   1  16
TORSDOF 6
ENDMDL
MODEL 9
REMARK VINA RESULT:    -6.124      3.948      5.915
REMARK INTER + INTRA:          -8.843
REMARK INTER:                  -8.120
REMARK INTRA:                  -0.723
REMARK UNBOUND:                -0.570
REMARK  Name = 
REMARK  7 active torsions:
REMARK  status: ('A' for Active; 'I' for Inactive)
REMARK    1  A    between atoms: C_1  and  O_2
REMARK    2  A    between atoms: O_2  and  C_3
REMARK    3  A    between atoms: C_5  and  C_6
REMARK    4  A    between atoms: C_11  and  C_12
REMARK    5  A    between atoms: C_12  and  C_13
REMARK    6  A    between atoms: C_13  and  C_14
REMARK    7  A    between atoms: C_19  and  C_20
REMARK                            x       y       z     vdW  Elec       q    Type
REMARK                         _______ _______ _______ _____ _____    ______ ____
ROOT
ATOM      1  C   UNL     1      46.818   3.910  15.823  0.00  0.00    +0.000 C 
ENDROOT
BRANCH   1   2
ATOM      2  C   UNL     1      48.085   4.114  16.625  0.00  0.00    +0.000 A 
ATOM      3  C   UNL     1      48.902   3.045  16.996  0.00  0.00    +0.000 A 
ATOM      4  C   UNL     1      50.061   3.285  17.732  0.00  0.00    +0.000 A 
ATOM      5  C   UNL     1      50.390   4.585  18.122  0.00  0.00    +0.000 A 
ATOM      6  F   UNL     1      51.492   4.749  18.869  0.00  0.00    +0.000 F 
ATOM      7  C   UNL     1      49.582   5.683  17.794  0.00  0.00    +0.000 A 
ATOM      8  C   UNL     1      48.431   5.413  17.035  0.00  0.00    +0.000 A 
BRANCH   7   9
ATOM      9  C   UNL     1      49.893   7.079  18.337  0.00  0.00    +0.000 C 
ATOM     10  C   UNL     1      49.608   7.296  19.843  0.00  0.00    +0.000 C 
ATOM     11  C   UNL     1      48.111   7.457  20.132  0.00  0.00    +0.000 C 
ATOM     12  C   UNL     1      47.449   8.486  19.219  0.00  0.00    +0.000 C 
ATOM     13  N   UNL     1      47.762   8.280  17.807  0.00  0.00    +0.000 NA
ATOM     14  C   UNL     1      49.209   8.237  17.574  0.00  0.00    +0.000 C 
ATOM     15  H   UNL     1      47.359   9.038  17.256  0.00  0.00    +0.000 HD
ENDBRANCH   7   9
ENDBRANCH   1   2
BRANCH   1  16
ATOM     16  C   UNL     1      47.094   3.881  14.318  0.00  0.00    +0.000 C 
BRANCH  16  22
ATOM     17  C   UNL     1      45.076   4.925  13.158  0.00  0.00    +0.000 A 
ATOM     18  C   UNL     1      44.522   6.041  12.523  0.00  0.00    +0.000 A 
ATOM     19  C   UNL     1      45.286   7.188  12.306  0.00  0.00    +0.000 A 
ATOM     20  C   UNL     1      46.601   7.168  12.738  0.00  0.00    +0.000 A 
ATOM     21  N   UNL     1      47.172   6.116  13.375  0.00  0.00    +0.000 NA
ATOM     22  C   UNL     1      46.407   5.014  13.592  0.00  0.00    +0.000 A 
BRANCH  19  23
ATOM     23  C   UNL     1      44.657   8.342  11.623  0.00  0.00    +0.000 C 
ATOM     24  N   UNL     1      43.452   8.172  10.998  0.00  0.00    +0.000 N 
ATOM     25  O   UNL     1      45.197   9.445  11.608  0.00  0.00    +0.000 OA
ATOM     26  H   UNL     1      42.931   7.312  10.933  0.00  0.00    +0.000 HD
ATOM     27  H   UNL     1      43.063   8.988  10.537  0.00  0.00    +0.000 HD
ENDBRANCH  19  23
BRANCH  17  29
ATOM     28  C   UNL     1      43.713   3.201  12.278  0.00  0.00    +0.000 C 
ATOM     29  O   UNL     1      44.392   3.763  13.400  0.00  0.00    +0.000 OA
ENDBRANCH  17  29
ENDBRANCH  16  22
ENDBRANCH   1  16
TORSDOF 6
ENDMDL
