MODEL 1
REMARK VINA RESULT:    -6.909      0.000      0.000
REMARK INTER + INTRA:          -9.931
REMARK INTER:                  -8.929
REMARK INTRA:                  -1.002
REMARK UNBOUND:                -1.002
REMARK  Name = 
REMARK  7 active torsions:
REMARK  status: ('A' for Active; 'I' for Inactive)
REMARK    1  A    between atoms: C_1  and  C_2
REMARK    2  A    between atoms: N_4  and  C_5
REMARK    3  A    between atoms: C_8  and  C_9
REMARK    4  A    between atoms: C_11  and  C_12
REMARK    5  A    between atoms: C_13  and  C_14
REMARK    6  A    between atoms: C_19  and  C_20
REMARK    7  A    between atoms: C_26  and  C_27
REMARK                            x       y       z     vdW  Elec       q    Type
REMARK                         _______ _______ _______ _____ _____    ______ ____
ROOT
ATOM      1  C   UNL     1      49.656   6.338  16.256  0.00  0.00    +0.000 A 
ATOM      2  C   UNL     1      50.591   7.342  16.020  0.00  0.00    +0.000 A 
ATOM      3  C   UNL     1      50.565   8.080  14.844  0.00  0.00    +0.000 A 
ATOM      4  C   UNL     1      49.571   7.858  13.872  0.00  0.00    +0.000 A 
ATOM      5  C   UNL     1      48.567   6.890  14.094  0.00  0.00    +0.000 A 
ATOM      6  C   UNL     1      48.682   6.117  15.266  0.00  0.00    +0.000 A 
ENDROOT
BRANCH   1  10
ATOM      7  C   UNL     1      46.883   5.840  18.945  0.00  0.00    +0.000 C 
ATOM      8  C   UNL     1      48.274   5.439  19.434  0.00  0.00    +0.000 C 
ATOM      9  C   UNL     1      49.411   6.210  18.728  0.00  0.00    +0.000 C 
ATOM     10  N   UNL     1      49.689   5.610  17.419  0.00  0.00    +0.000 N 
ATOM     11  C   UNL     1      49.979   4.176  17.464  0.00  0.00    +0.000 C 
ATOM     12  C   UNL     1      48.830   3.427  18.160  0.00  0.00    +0.000 C 
ATOM     13  C   UNL     1      47.618   3.234  17.255  0.00  0.00    +0.000 C 
ATOM     14  O   UNL     1      48.466   4.012  19.424  0.00  0.00    +0.000 OA
ENDBRANCH   1  10
BRANCH   4  15
ATOM     15  C   UNL     1      49.662   8.670  12.701  0.00  0.00    +0.000 C 
ATOM     16  N   UNL     1      49.819   9.341  11.753  0.00  0.00    +0.000 NA
ENDBRANCH   4  15
BRANCH   5  17
ATOM     17  C   UNL     1      47.411   6.598  13.192  0.00  0.00    +0.000 C 
ATOM     18  C   UNL     1      46.505   5.608  13.350  0.00  0.00    +0.000 C 
BRANCH  18  19
ATOM     19  C   UNL     1      45.372   5.324  12.451  0.00  0.00    +0.000 A 
ATOM     20  C   UNL     1      44.049   5.618  12.790  0.00  0.00    +0.000 A 
ATOM     21  C   UNL     1      43.041   5.413  11.855  0.00  0.00    +0.000 A 
ATOM     22  F   UNL     1      41.778   5.721  12.179  0.00  0.00    +0.000 F 
ATOM     23  C   UNL     1      43.309   4.920  10.582  0.00  0.00    +0.000 A 
ATOM     24  C   UNL     1      44.624   4.622  10.222  0.00  0.00    +0.000 A 
ATOM     25  C   UNL     1      45.648   4.834  11.161  0.00  0.00    +0.000 A 
BRANCH  24  26
ATOM     26  C   UNL     1      45.005   4.099   8.878  0.00  0.00    +0.000 C 
ATOM     27  N   UNL     1      44.381   2.977   8.410  0.00  0.00    +0.000 N 
ATOM     28  O   UNL     1      45.860   4.652   8.196  0.00  0.00    +0.000 OA
ATOM     29  H   UNL     1      43.678   2.446   8.897  0.00  0.00    +0.000 HD
ATOM     30  H   UNL     1      44.671   2.645   7.498  0.00  0.00    +0.000 HD
ENDBRANCH  24  26
ENDBRANCH  18  19
ENDBRANCH   5  17
TORSDOF 5
ENDMDL
MODEL 2
REMARK VINA RESULT:    -6.531      2.315      4.632
REMARK INTER + INTRA:          -9.443
REMARK INTER:                  -8.439
REMARK INTRA:                  -1.003
REMARK UNBOUND:                -1.002
REMARK  Name = 
REMARK  7 active torsions:
REMARK  status: ('A' for Active; 'I' for Inactive)
REMARK    1  A    between atoms: C_1  and  C_2
REMARK    2  A    between atoms: N_4  and  C_5
REMARK    3  A    between atoms: C_8  and  C_9
REMARK    4  A    between atoms: C_11  and  C_12
REMARK    5  A    between atoms: C_13  and  C_14
REMARK    6  A    between atoms: C_19  and  C_20
REMARK    7  A    between atoms: C_26  and  C_27
REMARK                            x       y       z     vdW  Elec       q    Type
REMARK                         _______ _______ _______ _____ _____    ______ ____
ROOT
ATOM      1  C   UNL     1      49.917   7.317  15.535  0.00  0.00    +0.000 A 
ATOM      2  C   UNL     1      50.120   6.687  16.760  0.00  0.00    +0.000 A 
ATOM      3  C   UNL     1      49.301   5.644  17.171  0.00  0.00    +0.000 A 
ATOM      4  C   UNL     1      48.263   5.170  16.346  0.00  0.00    +0.000 A 
ATOM      5  C   UNL     1      48.056   5.740  15.071  0.00  0.00    +0.000 A 
ATOM      6  C   UNL     1      48.863   6.844  14.733  0.00  0.00    +0.000 A 
ENDROOT
BRANCH   1  10
ATOM      7  C   UNL     1      50.855   8.482  11.940  0.00  0.00    +0.000 C 
ATOM      8  C   UNL     1      51.779   9.049  13.016  0.00  0.00    +0.000 C 
ATOM      9  C   UNL     1      51.887   8.144  14.262  0.00  0.00    +0.000 C 
ATOM     10  N   UNL     1      50.728   8.350  15.137  0.00  0.00    +0.000 N 
ATOM     11  C   UNL     1      50.505   9.744  15.521  0.00  0.00    +0.000 C 
ATOM     12  C   UNL     1      50.389  10.626  14.267  0.00  0.00    +0.000 C 
ATOM     13  C   UNL     1      49.027  10.512  13.589  0.00  0.00    +0.000 C 
ATOM     14  O   UNL     1      51.468  10.419  13.336  0.00  0.00    +0.000 OA
ENDBRANCH   1  10
BRANCH   4  15
ATOM     15  C   UNL     1      47.482   4.105  16.888  0.00  0.00    +0.000 C 
ATOM     16  N   UNL     1      46.776   3.285  17.337  0.00  0.00    +0.000 NA
ENDBRANCH   4  15
BRANCH   5  17
ATOM     17  C   UNL     1      47.049   5.294  14.061  0.00  0.00    +0.000 C 
ATOM     18  C   UNL     1      46.212   6.093  13.361  0.00  0.00    +0.000 C 
BRANCH  18  19
ATOM     19  C   UNL     1      45.216   5.643  12.372  0.00  0.00    +0.000 A 
ATOM     20  C   UNL     1      43.841   5.759  12.580  0.00  0.00    +0.000 A 
ATOM     21  C   UNL     1      42.961   5.404  11.564  0.00  0.00    +0.000 A 
ATOM     22  F   UNL     1      41.643   5.541  11.762  0.00  0.00    +0.000 F 
ATOM     23  C   UNL     1      43.412   4.931  10.335  0.00  0.00    +0.000 A 
ATOM     24  C   UNL     1      44.782   4.810  10.105  0.00  0.00    +0.000 A 
ATOM     25  C   UNL     1      45.676   5.174  11.127  0.00  0.00    +0.000 A 
BRANCH  24  26
ATOM     26  C   UNL     1      45.355   4.322   8.817  0.00  0.00    +0.000 C 
ATOM     27  N   UNL     1      45.012   3.074   8.377  0.00  0.00    +0.000 N 
ATOM     28  O   UNL     1      46.119   5.013   8.155  0.00  0.00    +0.000 OA
ATOM     29  H   UNL     1      44.403   2.428   8.853  0.00  0.00    +0.000 HD
ATOM     30  H   UNL     1      45.426   2.772   7.504  0.00  0.00    +0.000 HD
ENDBRANCH  24  26
ENDBRANCH  18  19
ENDBRANCH   5  17
TORSDOF 5
ENDMDL
MODEL 3
REMARK VINA RESULT:    -6.465      3.188      8.414
REMARK INTER + INTRA:          -9.357
REMARK INTER:                  -8.453
REMARK INTRA:                  -0.904
REMARK UNBOUND:                -1.002
REMARK  Name = 
REMARK  7 active torsions:
REMARK  status: ('A' for Active; 'I' for Inactive)
REMARK    1  A    between atoms: C_1  and  C_2
REMARK    2  A    between atoms: N_4  and  C_5
REMARK    3  A    between atoms: C_8  and  C_9
REMARK    4  A    between atoms: C_11  and  C_12
REMARK    5  A    between atoms: C_13  and  C_14
REMARK    6  A    between atoms: C_19  and  C_20
REMARK    7  A    between atoms: C_26  and  C_27
REMARK                            x       y       z     vdW  Elec       q    Type
REMARK                         _______ _______ _______ _____ _____    ______ ____
ROOT
ATOM      1  C   UNL     1      46.200   5.333  12.819  0.00  0.00    +0.000 A 
ATOM      2  C   UNL     1      46.634   6.190  11.810  0.00  0.00    +0.000 A 
ATOM      3  C   UNL     1      47.683   7.073  12.025  0.00  0.00    +0.000 A 
ATOM      4  C   UNL     1      48.362   7.104  13.259  0.00  0.00    +0.000 A 
ATOM      5  C   UNL     1      47.995   6.213  14.292  0.00  0.00    +0.000 A 
ATOM      6  C   UNL     1      46.877   5.391  14.050  0.00  0.00    +0.000 A 
ENDROOT
BRANCH   1  10
ATOM      7  C   UNL     1      42.652   6.035  11.376  0.00  0.00    +0.000 C 
ATOM      8  C   UNL     1      42.756   4.687  12.087  0.00  0.00    +0.000 C 
ATOM      9  C   UNL     1      43.833   4.665  13.193  0.00  0.00    +0.000 C 
ATOM     10  N   UNL     1      45.160   4.465  12.601  0.00  0.00    +0.000 N 
ATOM     11  C   UNL     1      45.265   3.282  11.746  0.00  0.00    +0.000 C 
ATOM     12  C   UNL     1      44.191   3.328  10.645  0.00  0.00    +0.000 C 
ATOM     13  C   UNL     1      44.552   4.279   9.508  0.00  0.00    +0.000 C 
ATOM     14  O   UNL     1      42.872   3.589  11.161  0.00  0.00    +0.000 OA
ENDBRANCH   1  10
BRANCH   4  15
ATOM     15  C   UNL     1      49.412   8.066  13.361  0.00  0.00    +0.000 C 
ATOM     16  N   UNL     1      50.260   8.858  13.528  0.00  0.00    +0.000 NA
ENDBRANCH   4  15
BRANCH   5  17
ATOM     17  C   UNL     1      48.669   6.080  15.619  0.00  0.00    +0.000 C 
ATOM     18  C   UNL     1      48.372   5.175  16.578  0.00  0.00    +0.000 C 
BRANCH  18  19
ATOM     19  C   UNL     1      49.039   5.055  17.888  0.00  0.00    +0.000 A 
ATOM     20  C   UNL     1      50.370   4.658  18.021  0.00  0.00    +0.000 A 
ATOM     21  C   UNL     1      50.963   4.661  19.279  0.00  0.00    +0.000 A 
ATOM     22  F   UNL     1      52.249   4.301  19.396  0.00  0.00    +0.000 F 
ATOM     23  C   UNL     1      50.266   5.050  20.418  0.00  0.00    +0.000 A 
ATOM     24  C   UNL     1      48.935   5.454  20.306  0.00  0.00    +0.000 A 
ATOM     25  C   UNL     1      48.333   5.459  19.036  0.00  0.00    +0.000 A 
BRANCH  24  26
ATOM     26  C   UNL     1      48.115   5.895  21.471  0.00  0.00    +0.000 C 
ATOM     27  N   UNL     1      46.955   5.228  21.747  0.00  0.00    +0.000 N 
ATOM     28  O   UNL     1      48.460   6.836  22.175  0.00  0.00    +0.000 OA
ATOM     29  H   UNL     1      46.581   4.453  21.224  0.00  0.00    +0.000 HD
ATOM     30  H   UNL     1      46.418   5.560  22.540  0.00  0.00    +0.000 HD
ENDBRANCH  24  26
ENDBRANCH  18  19
ENDBRANCH   5  17
TORSDOF 5
ENDMDL
MODEL 4
REMARK VINA RESULT:    -6.423      3.054      8.219
REMARK INTER + INTRA:          -9.303
REMARK INTER:                  -8.381
REMARK INTRA:                  -0.923
REMARK UNBOUND:                -1.002
REMARK  Name = 
REMARK  7 active torsions:
REMARK  status: ('A' for Active; 'I' for Inactive)
REMARK    1  A    between atoms: C_1  and  C_2
REMARK    2  A    between atoms: N_4  and  C_5
REMARK    3  A    between atoms: C_8  and  C_9
REMARK    4  A    between atoms: C_11  and  C_12
REMARK    5  A    between atoms: C_13  and  C_14
REMARK    6  A    between atoms: C_19  and  C_20
REMARK    7  A    between atoms: C_26  and  C_27
REMARK                            x       y       z     vdW  Elec       q    Type
REMARK                         _______ _______ _______ _____ _____    ______ ____
ROOT
ATOM      1  C   UNL     1      46.247   5.325  12.905  0.00  0.00    +0.000 A 
ATOM      2  C   UNL     1      46.742   6.136  11.887  0.00  0.00    +0.000 A 
ATOM      3  C   UNL     1      47.825   6.976  12.106  0.00  0.00    +0.000 A 
ATOM      4  C   UNL     1      48.478   7.006  13.354  0.00  0.00    +0.000 A 
ATOM      5  C   UNL     1      48.048   6.157  14.398  0.00  0.00    +0.000 A 
ATOM      6  C   UNL     1      46.899   5.381  14.150  0.00  0.00    +0.000 A 
ENDROOT
BRANCH   1  10
ATOM      7  C   UNL     1      42.794   6.136  11.299  0.00  0.00    +0.000 C 
ATOM      8  C   UNL     1      42.804   4.816  12.068  0.00  0.00    +0.000 C 
ATOM      9  C   UNL     1      43.838   4.790  13.215  0.00  0.00    +0.000 C 
ATOM     10  N   UNL     1      45.173   4.500  12.683  0.00  0.00    +0.000 N 
ATOM     11  C   UNL     1      45.249   3.277  11.883  0.00  0.00    +0.000 C 
ATOM     12  C   UNL     1      44.221   3.328  10.741  0.00  0.00    +0.000 C 
ATOM     13  C   UNL     1      44.670   4.209   9.580  0.00  0.00    +0.000 C 
ATOM     14  O   UNL     1      42.898   3.675  11.194  0.00  0.00    +0.000 OA
ENDBRANCH   1  10
BRANCH   4  15
ATOM     15  C   UNL     1      49.568   7.922  13.458  0.00  0.00    +0.000 C 
ATOM     16  N   UNL     1      50.504   8.615  13.586  0.00  0.00    +0.000 NA
ENDBRANCH   4  15
BRANCH   5  17
ATOM     17  C   UNL     1      48.687   6.025  15.743  0.00  0.00    +0.000 C 
ATOM     18  C   UNL     1      48.218   5.297  16.781  0.00  0.00    +0.000 C 
BRANCH  18  19
ATOM     19  C   UNL     1      48.852   5.177  18.107  0.00  0.00    +0.000 A 
ATOM     20  C   UNL     1      48.120   5.187  19.295  0.00  0.00    +0.000 A 
ATOM     21  C   UNL     1      48.773   4.973  20.504  0.00  0.00    +0.000 A 
ATOM     22  F   UNL     1      48.060   4.960  21.638  0.00  0.00    +0.000 F 
ATOM     23  C   UNL     1      50.144   4.747  20.568  0.00  0.00    +0.000 A 
ATOM     24  C   UNL     1      50.894   4.730  19.391  0.00  0.00    +0.000 A 
ATOM     25  C   UNL     1      50.238   4.940  18.166  0.00  0.00    +0.000 A 
BRANCH  24  26
ATOM     26  C   UNL     1      52.365   4.487  19.363  0.00  0.00    +0.000 C 
ATOM     27  N   UNL     1      52.844   3.299  19.840  0.00  0.00    +0.000 N 
ATOM     28  O   UNL     1      53.143   5.326  18.925  0.00  0.00    +0.000 OA
ATOM     29  H   UNL     1      52.289   2.554  20.230  0.00  0.00    +0.000 HD
ATOM     30  H   UNL     1      53.848   3.172  19.814  0.00  0.00    +0.000 HD
ENDBRANCH  24  26
ENDBRANCH  18  19
ENDBRANCH   5  17
TORSDOF 5
ENDMDL
MODEL 5
REMARK VINA RESULT:    -6.376      3.001      4.277
REMARK INTER + INTRA:          -9.242
REMARK INTER:                  -8.260
REMARK INTRA:                  -0.982
REMARK UNBOUND:                -1.002
REMARK  Name = 
REMARK  7 active torsions:
REMARK  status: ('A' for Active; 'I' for Inactive)
REMARK    1  A    between atoms: C_1  and  C_2
REMARK    2  A    between atoms: N_4  and  C_5
REMARK    3  A    between atoms: C_8  and  C_9
REMARK    4  A    between atoms: C_11  and  C_12
REMARK    5  A    between atoms: C_13  and  C_14
REMARK    6  A    between atoms: C_19  and  C_20
REMARK    7  A    between atoms: C_26  and  C_27
REMARK                            x       y       z     vdW  Elec       q    Type
REMARK                         _______ _______ _______ _____ _____    ______ ____
ROOT
ATOM      1  C   UNL     1      49.577   6.199  18.879  0.00  0.00    +0.000 A 
ATOM      2  C   UNL     1      50.422   5.115  19.103  0.00  0.00    +0.000 A 
ATOM      3  C   UNL     1      50.301   3.950  18.357  0.00  0.00    +0.000 A 
ATOM      4  C   UNL     1      49.344   3.844  17.329  0.00  0.00    +0.000 A 
ATOM      5  C   UNL     1      48.505   4.940  17.027  0.00  0.00    +0.000 A 
ATOM      6  C   UNL     1      48.616   6.069  17.861  0.00  0.00    +0.000 A 
ENDROOT
BRANCH   1  10
ATOM      7  C   UNL     1      47.134   9.214  19.200  0.00  0.00    +0.000 C 
ATOM      8  C   UNL     1      48.540   9.523  19.711  0.00  0.00    +0.000 C 
ATOM      9  C   UNL     1      49.635   8.682  19.020  0.00  0.00    +0.000 C 
ATOM     10  N   UNL     1      49.700   7.347  19.623  0.00  0.00    +0.000 N 
ATOM     11  C   UNL     1      49.882   7.350  21.074  0.00  0.00    +0.000 C 
ATOM     12  C   UNL     1      48.776   8.183  21.744  0.00  0.00    +0.000 C 
ATOM     13  C   UNL     1      47.448   7.437  21.833  0.00  0.00    +0.000 C 
ATOM     14  O   UNL     1      48.619   9.485  21.149  0.00  0.00    +0.000 OA
ENDBRANCH   1  10
BRANCH   4  15
ATOM     15  C   UNL     1      49.308   2.591  16.647  0.00  0.00    +0.000 C 
ATOM     16  N   UNL     1      49.363   1.563  16.086  0.00  0.00    +0.000 NA
ENDBRANCH   4  15
BRANCH   5  17
ATOM     17  C   UNL     1      47.501   5.000  15.922  0.00  0.00    +0.000 C 
ATOM     18  C   UNL     1      47.674   5.593  14.719  0.00  0.00    +0.000 C 
BRANCH  18  19
ATOM     19  C   UNL     1      46.675   5.653  13.636  0.00  0.00    +0.000 A 
ATOM     20  C   UNL     1      46.461   6.802  12.872  0.00  0.00    +0.000 A 
ATOM     21  C   UNL     1      45.572   6.758  11.803  0.00  0.00    +0.000 A 
ATOM     22  F   UNL     1      45.390   7.857  11.060  0.00  0.00    +0.000 F 
ATOM     23  C   UNL     1      44.883   5.597  11.469  0.00  0.00    +0.000 A 
ATOM     24  C   UNL     1      45.084   4.437  12.219  0.00  0.00    +0.000 A 
ATOM     25  C   UNL     1      45.987   4.474  13.295  0.00  0.00    +0.000 A 
BRANCH  24  26
ATOM     26  C   UNL     1      44.396   3.146  11.927  0.00  0.00    +0.000 C 
ATOM     27  N   UNL     1      44.547   2.586  10.690  0.00  0.00    +0.000 N 
ATOM     28  O   UNL     1      43.705   2.587  12.770  0.00  0.00    +0.000 OA
ATOM     29  H   UNL     1      45.082   2.973   9.929  0.00  0.00    +0.000 HD
ATOM     30  H   UNL     1      44.058   1.715  10.524  0.00  0.00    +0.000 HD
ENDBRANCH  24  26
ENDBRANCH  18  19
ENDBRANCH   5  17
TORSDOF 5
ENDMDL
MODEL 6
REMARK VINA RESULT:    -6.194      5.011      7.969
REMARK INTER + INTRA:          -9.007
REMARK INTER:                  -8.170
REMARK INTRA:                  -0.837
REMARK UNBOUND:                -1.002
REMARK  Name = 
REMARK  7 active torsions:
REMARK  status: ('A' for Active; 'I' for Inactive)
REMARK    1  A    between atoms: C_1  and  C_2
REMARK    2  A    between atoms: N_4  and  C_5
REMARK    3  A    between atoms: C_8  and  C_9
REMARK    4  A    between atoms: C_11  and  C_12
REMARK    5  A    between atoms: C_13  and  C_14
REMARK    6  A    between atoms: C_19  and  C_20
REMARK    7  A    between atoms: C_26  and  C_27
REMARK                            x       y       z     vdW  Elec       q    Type
REMARK                         _______ _______ _______ _____ _____    ______ ____
ROOT
ATOM      1  C   UNL     1      45.775   6.935  11.737  0.00  0.00    +0.000 A 
ATOM      2  C   UNL     1      45.316   7.897  12.633  0.00  0.00    +0.000 A 
ATOM      3  C   UNL     1      46.201   8.742  13.288  0.00  0.00    +0.000 A 
ATOM      4  C   UNL     1      47.586   8.675  13.039  0.00  0.00    +0.000 A 
ATOM      5  C   UNL     1      48.091   7.754  12.095  0.00  0.00    +0.000 A 
ATOM      6  C   UNL     1      47.162   6.869  11.515  0.00  0.00    +0.000 A 
ENDROOT
BRANCH   1  10
ATOM      7  C   UNL     1      45.295   3.088  12.105  0.00  0.00    +0.000 C 
ATOM      8  C   UNL     1      44.642   3.658  10.846  0.00  0.00    +0.000 C 
ATOM      9  C   UNL     1      45.339   4.933  10.326  0.00  0.00    +0.000 C 
ATOM     10  N   UNL     1      44.894   6.100  11.095  0.00  0.00    +0.000 N 
ATOM     11  C   UNL     1      43.443   6.277  11.135  0.00  0.00    +0.000 C 
ATOM     12  C   UNL     1      42.769   5.000  11.667  0.00  0.00    +0.000 C 
ATOM     13  C   UNL     1      42.874   4.865  13.182  0.00  0.00    +0.000 C 
ATOM     14  O   UNL     1      43.217   3.809  10.992  0.00  0.00    +0.000 OA
ENDBRANCH   1  10
BRANCH   4  15
ATOM     15  C   UNL     1      48.392   9.586  13.787  0.00  0.00    +0.000 C 
ATOM     16  N   UNL     1      49.007  10.314  14.469  0.00  0.00    +0.000 NA
ENDBRANCH   4  15
BRANCH   5  17
ATOM     17  C   UNL     1      49.519   7.621  11.674  0.00  0.00    +0.000 C 
ATOM     18  C   UNL     1      50.291   8.599  11.149  0.00  0.00    +0.000 C 
BRANCH  18  19
ATOM     19  C   UNL     1      51.697   8.456  10.730  0.00  0.00    +0.000 A 
ATOM     20  C   UNL     1      52.588   9.531  10.702  0.00  0.00    +0.000 A 
ATOM     21  C   UNL     1      53.924   9.306  10.390  0.00  0.00    +0.000 A 
ATOM     22  F   UNL     1      54.777  10.340  10.388  0.00  0.00    +0.000 F 
ATOM     23  C   UNL     1      54.406   8.033  10.103  0.00  0.00    +0.000 A 
ATOM     24  C   UNL     1      53.534   6.945  10.130  0.00  0.00    +0.000 A 
ATOM     25  C   UNL     1      52.184   7.166  10.450  0.00  0.00    +0.000 A 
BRANCH  24  26
ATOM     26  C   UNL     1      53.965   5.545   9.845  0.00  0.00    +0.000 C 
ATOM     27  N   UNL     1      53.710   5.018   8.610  0.00  0.00    +0.000 N 
ATOM     28  O   UNL     1      54.537   4.869  10.691  0.00  0.00    +0.000 OA
ATOM     29  H   UNL     1      53.237   5.487   7.855  0.00  0.00    +0.000 HD
ATOM     30  H   UNL     1      54.008   4.062   8.455  0.00  0.00    +0.000 HD
ENDBRANCH  24  26
ENDBRANCH  18  19
ENDBRANCH   5  17
TORSDOF 5
ENDMDL
MODEL 7
REMARK VINA RESULT:    -6.186      1.557      2.204
REMARK INTER + INTRA:          -8.997
REMARK INTER:                  -8.015
REMARK INTRA:                  -0.982
REMARK UNBOUND:                -1.002
REMARK  Name = 
REMARK  7 active torsions:
REMARK  status: ('A' for Active; 'I' for Inactive)
REMARK    1  A    between atoms: C_1  and  C_2
REMARK    2  A    between atoms: N_4  and  C_5
REMARK    3  A    between atoms: C_8  and  C_9
REMARK    4  A    between atoms: C_11  and  C_12
REMARK    5  A    between atoms: C_13  and  C_14
REMARK    6  A    between atoms: C_19  and  C_20
REMARK    7  A    between atoms: C_26  and  C_27
REMARK                            x       y       z     vdW  Elec       q    Type
REMARK                         _______ _______ _______ _____ _____    ______ ____
ROOT
ATOM      1  C   UNL     1      49.712   7.229  16.475  0.00  0.00    +0.000 A 
ATOM      2  C   UNL     1      50.676   8.064  15.915  0.00  0.00    +0.000 A 
ATOM      3  C   UNL     1      50.751   8.247  14.541  0.00  0.00    +0.000 A 
ATOM      4  C   UNL     1      49.833   7.621  13.675  0.00  0.00    +0.000 A 
ATOM      5  C   UNL     1      48.803   6.811  14.202  0.00  0.00    +0.000 A 
ATOM      6  C   UNL     1      48.815   6.597  15.594  0.00  0.00    +0.000 A 
ENDROOT
BRANCH   1  10
ATOM      7  C   UNL     1      50.355   9.784  19.342  0.00  0.00    +0.000 C 
ATOM      8  C   UNL     1      50.358   8.332  19.818  0.00  0.00    +0.000 C 
ATOM      9  C   UNL     1      50.779   7.333  18.719  0.00  0.00    +0.000 C 
ATOM     10  N   UNL     1      49.645   7.050  17.834  0.00  0.00    +0.000 N 
ATOM     11  C   UNL     1      48.442   6.587  18.527  0.00  0.00    +0.000 C 
ATOM     12  C   UNL     1      48.033   7.601  19.609  0.00  0.00    +0.000 C 
ATOM     13  C   UNL     1      47.327   8.824  19.034  0.00  0.00    +0.000 C 
ATOM     14  O   UNL     1      49.126   7.970  20.471  0.00  0.00    +0.000 OA
ENDBRANCH   1  10
BRANCH   4  15
ATOM     15  C   UNL     1      50.026   7.875  12.284  0.00  0.00    +0.000 C 
ATOM     16  N   UNL     1      50.104   8.061  11.130  0.00  0.00    +0.000 NA
ENDBRANCH   4  15
BRANCH   5  17
ATOM     17  C   UNL     1      47.718   6.148  13.417  0.00  0.00    +0.000 C 
ATOM     18  C   UNL     1      46.549   6.712  13.036  0.00  0.00    +0.000 C 
BRANCH  18  19
ATOM     19  C   UNL     1      45.481   6.047  12.267  0.00  0.00    +0.000 A 
ATOM     20  C   UNL     1      44.151   6.022  12.691  0.00  0.00    +0.000 A 
ATOM     21  C   UNL     1      43.180   5.462  11.869  0.00  0.00    +0.000 A 
ATOM     22  F   UNL     1      41.903   5.463  12.273  0.00  0.00    +0.000 F 
ATOM     23  C   UNL     1      43.494   4.921  10.626  0.00  0.00    +0.000 A 
ATOM     24  C   UNL     1      44.816   4.939  10.182  0.00  0.00    +0.000 A 
ATOM     25  C   UNL     1      45.801   5.510  11.006  0.00  0.00    +0.000 A 
BRANCH  24  26
ATOM     26  C   UNL     1      45.242   4.391   8.861  0.00  0.00    +0.000 C 
ATOM     27  N   UNL     1      44.562   3.325   8.343  0.00  0.00    +0.000 N 
ATOM     28  O   UNL     1      46.181   4.876   8.242  0.00  0.00    +0.000 OA
ATOM     29  H   UNL     1      43.788   2.851   8.779  0.00  0.00    +0.000 HD
ATOM     30  H   UNL     1      44.885   2.973   7.449  0.00  0.00    +0.000 HD
ENDBRANCH  24  26
ENDBRANCH  18  19
ENDBRANCH   5  17
TORSDOF 5
ENDMDL
MODEL 8
REMARK VINA RESULT:    -6.154      2.456      5.022
REMARK INTER + INTRA:          -8.955
REMARK INTER:                  -8.004
REMARK INTRA:                  -0.951
REMARK UNBOUND:                -1.002
REMARK  Name = 
REMARK  7 active torsions:
REMARK  status: ('A' for Active; 'I' for Inactive)
REMARK    1  A    between atoms: C_1  and  C_2
REMARK    2  A    between atoms: N_4  and  C_5
REMARK    3  A    between atoms: C_8  and  C_9
REMARK    4  A    between atoms: C_11  and  C_12
REMARK    5  A    between atoms: C_13  and  C_14
REMARK    6  A    between atoms: C_19  and  C_20
REMARK    7  A    between atoms: C_26  and  C_27
REMARK                            x       y       z     vdW  Elec       q    Type
REMARK                         _______ _______ _______ _____ _____    ______ ____
ROOT
ATOM      1  C   UNL     1      50.481   8.122  14.352  0.00  0.00    +0.000 A 
ATOM      2  C   UNL     1      50.900   7.736  15.623  0.00  0.00    +0.000 A 
ATOM      3  C   UNL     1      50.168   6.822  16.369  0.00  0.00    +0.000 A 
ATOM      4  C   UNL     1      48.999   6.233  15.849  0.00  0.00    +0.000 A 
ATOM      5  C   UNL     1      48.568   6.551  14.541  0.00  0.00    +0.000 A 
ATOM      6  C   UNL     1      49.302   7.538  13.856  0.00  0.00    +0.000 A 
ENDROOT
BRANCH   1  10
ATOM      7  C   UNL     1      54.108   7.841  12.963  0.00  0.00    +0.000 C 
ATOM      8  C   UNL     1      53.575   9.273  12.968  0.00  0.00    +0.000 C 
ATOM      9  C   UNL     1      52.516   9.523  14.063  0.00  0.00    +0.000 C 
ATOM     10  N   UNL     1      51.208   9.028  13.622  0.00  0.00    +0.000 N 
ATOM     11  C   UNL     1      50.766   9.565  12.334  0.00  0.00    +0.000 C 
ATOM     12  C   UNL     1      51.829   9.296  11.256  0.00  0.00    +0.000 C 
ATOM     13  C   UNL     1      51.807   7.856  10.752  0.00  0.00    +0.000 C 
ATOM     14  O   UNL     1      53.150   9.701  11.660  0.00  0.00    +0.000 OA
ENDBRANCH   1  10
BRANCH   4  15
ATOM     15  C   UNL     1      48.328   5.322  16.719  0.00  0.00    +0.000 C 
ATOM     16  N   UNL     1      47.852   4.553  17.464  0.00  0.00    +0.000 NA
ENDBRANCH   4  15
BRANCH   5  17
ATOM     17  C   UNL     1      47.397   5.952  13.832  0.00  0.00    +0.000 C 
ATOM     18  C   UNL     1      46.815   6.428  12.709  0.00  0.00    +0.000 C 
BRANCH  18  19
ATOM     19  C   UNL     1      45.656   5.834  12.019  0.00  0.00    +0.000 A 
ATOM     20  C   UNL     1      44.365   5.870  12.549  0.00  0.00    +0.000 A 
ATOM     21  C   UNL     1      43.302   5.375  11.800  0.00  0.00    +0.000 A 
ATOM     22  F   UNL     1      42.063   5.435  12.305  0.00  0.00    +0.000 F 
ATOM     23  C   UNL     1      43.487   4.841  10.528  0.00  0.00    +0.000 A 
ATOM     24  C   UNL     1      44.769   4.799   9.979  0.00  0.00    +0.000 A 
ATOM     25  C   UNL     1      45.845   5.303  10.730  0.00  0.00    +0.000 A 
BRANCH  24  26
ATOM     26  C   UNL     1      45.058   4.253   8.622  0.00  0.00    +0.000 C 
ATOM     27  N   UNL     1      44.311   3.205   8.162  0.00  0.00    +0.000 N 
ATOM     28  O   UNL     1      45.946   4.723   7.920  0.00  0.00    +0.000 OA
ATOM     29  H   UNL     1      43.570   2.743   8.665  0.00  0.00    +0.000 HD
ATOM     30  H   UNL     1      44.541   2.854   7.240  0.00  0.00    +0.000 HD
ENDBRANCH  24  26
ENDBRANCH  18  19
ENDBRANCH   5  17
TORSDOF 5
ENDMDL
