MODEL 1
REMARK VINA RESULT:    -8.167      0.000      0.000
REMARK INTER + INTRA:         -12.021
REMARK INTER:                 -11.032
REMARK INTRA:                  -0.989
REMARK UNBOUND:                -0.989
REMARK  Name = 
REMARK  6 active torsions:
REMARK  status: ('A' for Active; 'I' for Inactive)
REMARK    1  A    between atoms: C_2  and  C_19
REMARK    2  A    between atoms: N_3  and  C_4
REMARK    3  A    between atoms: C_4  and  C_5
REMARK    4  A    between atoms: C_8  and  C_9
REMARK    5  A    between atoms: C_9  and  O_10
REMARK    6  A    between atoms: O_10  and  C_11
REMARK                            x       y       z     vdW  Elec       q    Type
REMARK                         _______ _______ _______ _____ _____    ______ ____
ROOT
ATOM      1  O   UNL     1      49.577   6.897  13.944  0.00  0.00    +0.000 OA
ATOM      2  C   UNL     1      48.658   6.733  14.741  0.00  0.00    +0.000 C 
ATOM      3  N   UNL     1      47.339   6.868  14.394  0.00  0.00    +0.000 N 
ATOM      4  H   UNL     1      46.643   6.919  15.128  0.00  0.00    +0.000 HD
ENDROOT
BRANCH   2   5
ATOM      5  C   UNL     1      48.912   6.313  16.125  0.00  0.00    +0.000 A 
ATOM      6  C   UNL     1      49.568   7.166  17.002  0.00  0.00    +0.000 A 
ATOM      7  S   UNL     1      49.796   6.501  18.556  0.00  0.00    +0.000 S 
ATOM      8  C   UNL     1      48.986   5.067  18.122  0.00  0.00    +0.000 A 
ATOM      9  N   UNL     1      48.804   4.061  19.022  0.00  0.00    +0.000 NA
ATOM     10  C   UNL     1      48.141   3.055  18.567  0.00  0.00    +0.000 A 
ATOM     11  N   UNL     1      47.644   2.952  17.296  0.00  0.00    +0.000 N 
ATOM     12  C   UNL     1      47.870   3.905  16.333  0.00  0.00    +0.000 A 
ATOM     13  O   UNL     1      47.534   3.716  15.168  0.00  0.00    +0.000 OA
ATOM     14  C   UNL     1      48.572   5.083  16.804  0.00  0.00    +0.000 A 
ATOM     15  H   UNL     1      47.160   2.121  16.991  0.00  0.00    +0.000 HD
ENDBRANCH   2   5
BRANCH   3  16
ATOM     16  C   UNL     1      46.918   7.352  13.107  0.00  0.00    +0.000 C 
BRANCH  16  17
ATOM     17  C   UNL     1      46.224   6.272  12.316  0.00  0.00    +0.000 A 
ATOM     18  C   UNL     1      45.678   5.164  12.974  0.00  0.00    +0.000 A 
ATOM     19  C   UNL     1      45.031   4.158  12.254  0.00  0.00    +0.000 A 
ATOM     20  C   UNL     1      44.938   4.229  10.858  0.00  0.00    +0.000 A 
ATOM     21  C   UNL     1      45.494   5.333  10.199  0.00  0.00    +0.000 A 
ATOM     22  C   UNL     1      46.142   6.341  10.919  0.00  0.00    +0.000 A 
BRANCH  20  23
ATOM     23  C   UNL     1      44.277   3.119  10.075  0.00  0.00    +0.000 C 
BRANCH  23  24
ATOM     24  O   UNL     1      44.412   3.360   8.672  0.00  0.00    +0.000 OA
BRANCH  24  25
ATOM     25  C   UNL     1      45.446   2.622   8.126  0.00  0.00    +0.000 A 
ATOM     26  C   UNL     1      46.247   3.237   7.183  0.00  0.00    +0.000 A 
ATOM     27  C   UNL     1      47.302   2.510   6.644  0.00  0.00    +0.000 A 
ATOM     28  C   UNL     1      47.491   1.211   7.079  0.00  0.00    +0.000 A 
ATOM     29  N   UNL     1      46.691   0.632   7.995  0.00  0.00    +0.000 NA
ATOM     30  N   UNL     1      45.658   1.346   8.523  0.00  0.00    +0.000 NA
ENDBRANCH  24  25
ENDBRANCH  23  24
ENDBRANCH  20  23
ENDBRANCH  16  17
ENDBRANCH   3  16
TORSDOF 6
ENDMDL
MODEL 2
REMARK VINA RESULT:    -7.738      1.812      2.496
REMARK INTER + INTRA:         -11.441
REMARK INTER:                 -10.593
REMARK INTRA:                  -0.848
REMARK UNBOUND:                -0.989
REMARK  Name = 
REMARK  6 active torsions:
REMARK  status: ('A' for Active; 'I' for Inactive)
REMARK    1  A    between atoms: C_2  and  C_19
REMARK    2  A    between atoms: N_3  and  C_4
REMARK    3  A    between atoms: C_4  and  C_5
REMARK    4  A    between atoms: C_8  and  C_9
REMARK    5  A    between atoms: C_9  and  O_10
REMARK    6  A    between atoms: O_10  and  C_11
REMARK                            x       y       z     vdW  Elec       q    Type
REMARK                         _______ _______ _______ _____ _____    ______ ____
ROOT
ATOM      1  O   UNL     1      49.955   6.564  15.489  0.00  0.00    +0.000 OA
ATOM      2  C   UNL     1      48.849   6.177  15.851  0.00  0.00    +0.000 C 
ATOM      3  N   UNL     1      47.759   6.159  15.021  0.00  0.00    +0.000 N 
ATOM      4  H   UNL     1      46.839   6.023  15.424  0.00  0.00    +0.000 HD
ENDROOT
BRANCH   2   5
ATOM      5  C   UNL     1      48.629   5.642  17.201  0.00  0.00    +0.000 A 
ATOM      6  C   UNL     1      48.823   4.291  17.455  0.00  0.00    +0.000 A 
ATOM      7  S   UNL     1      48.498   3.848  19.070  0.00  0.00    +0.000 S 
ATOM      8  C   UNL     1      48.130   5.455  19.495  0.00  0.00    +0.000 A 
ATOM      9  N   UNL     1      47.786   5.785  20.771  0.00  0.00    +0.000 NA
ATOM     10  C   UNL     1      47.574   7.042  20.957  0.00  0.00    +0.000 A 
ATOM     11  N   UNL     1      47.666   8.004  19.988  0.00  0.00    +0.000 N 
ATOM     12  C   UNL     1      47.932   7.709  18.673  0.00  0.00    +0.000 A 
ATOM     13  O   UNL     1      47.866   8.577  17.807  0.00  0.00    +0.000 OA
ATOM     14  C   UNL     1      48.226   6.313  18.416  0.00  0.00    +0.000 A 
ATOM     15  H   UNL     1      47.455   8.970  20.191  0.00  0.00    +0.000 HD
ENDBRANCH   2   5
BRANCH   3  16
ATOM     16  C   UNL     1      47.778   6.721  13.697  0.00  0.00    +0.000 C 
BRANCH  16  17
ATOM     17  C   UNL     1      46.834   5.990  12.778  0.00  0.00    +0.000 A 
ATOM     18  C   UNL     1      46.544   6.512  11.511  0.00  0.00    +0.000 A 
ATOM     19  C   UNL     1      45.673   5.844  10.649  0.00  0.00    +0.000 A 
ATOM     20  C   UNL     1      45.055   4.652  11.046  0.00  0.00    +0.000 A 
ATOM     21  C   UNL     1      45.336   4.134  12.318  0.00  0.00    +0.000 A 
ATOM     22  C   UNL     1      46.208   4.804  13.182  0.00  0.00    +0.000 A 
BRANCH  20  23
ATOM     23  C   UNL     1      44.078   3.952  10.131  0.00  0.00    +0.000 C 
BRANCH  23  24
ATOM     24  O   UNL     1      44.428   4.188   8.765  0.00  0.00    +0.000 OA
BRANCH  24  25
ATOM     25  C   UNL     1      45.303   3.229   8.289  0.00  0.00    +0.000 A 
ATOM     26  C   UNL     1      46.221   3.614   7.332  0.00  0.00    +0.000 A 
ATOM     27  C   UNL     1      47.119   2.661   6.863  0.00  0.00    +0.000 A 
ATOM     28  C   UNL     1      47.042   1.380   7.378  0.00  0.00    +0.000 A 
ATOM     29  N   UNL     1      46.131   1.028   8.307  0.00  0.00    +0.000 NA
ATOM     30  N   UNL     1      45.252   1.964   8.766  0.00  0.00    +0.000 NA
ENDBRANCH  24  25
ENDBRANCH  23  24
ENDBRANCH  20  23
ENDBRANCH  16  17
ENDBRANCH   3  16
TORSDOF 6
ENDMDL
MODEL 3
REMARK VINA RESULT:    -7.669      1.347      1.766
REMARK INTER + INTRA:         -11.348
REMARK INTER:                 -10.459
REMARK INTRA:                  -0.889
REMARK UNBOUND:                -0.989
REMARK  Name = 
REMARK  6 active torsions:
REMARK  status: ('A' for Active; 'I' for Inactive)
REMARK    1  A    between atoms: C_2  and  C_19
REMARK    2  A    between atoms: N_3  and  C_4
REMARK    3  A    between atoms: C_4  and  C_5
REMARK    4  A    between atoms: C_8  and  C_9
REMARK    5  A    between atoms: C_9  and  O_10
REMARK    6  A    between atoms: O_10  and  C_11
REMARK                            x       y       z     vdW  Elec       q    Type
REMARK                         _______ _______ _______ _____ _____    ______ ____
ROOT
ATOM      1  O   UNL     1      50.071   6.482  15.251  0.00  0.00    +0.000 OA
ATOM      2  C   UNL     1      48.959   6.713  15.717  0.00  0.00    +0.000 C 
ATOM      3  N   UNL     1      47.839   6.844  14.939  0.00  0.00    +0.000 N 
ATOM      4  H   UNL     1      46.998   7.229  15.352  0.00  0.00    +0.000 HD
ENDROOT
BRANCH   2   5
ATOM      5  C   UNL     1      48.742   6.805  17.166  0.00  0.00    +0.000 A 
ATOM      6  C   UNL     1      48.404   8.020  17.745  0.00  0.00    +0.000 A 
ATOM      7  S   UNL     1      48.215   7.940  19.438  0.00  0.00    +0.000 S 
ATOM      8  C   UNL     1      48.534   6.268  19.450  0.00  0.00    +0.000 A 
ATOM      9  N   UNL     1      48.507   5.554  20.610  0.00  0.00    +0.000 NA
ATOM     10  C   UNL     1      48.728   4.293  20.463  0.00  0.00    +0.000 A 
ATOM     11  N   UNL     1      48.980   3.674  19.269  0.00  0.00    +0.000 N 
ATOM     12  C   UNL     1      49.095   4.364  18.087  0.00  0.00    +0.000 A 
ATOM     13  O   UNL     1      49.463   3.799  17.061  0.00  0.00    +0.000 OA
ATOM     14  C   UNL     1      48.809   5.782  18.186  0.00  0.00    +0.000 A 
ATOM     15  H   UNL     1      49.178   2.686  19.226  0.00  0.00    +0.000 HD
ENDBRANCH   2   5
BRANCH   3  16
ATOM     16  C   UNL     1      47.887   6.864  13.501  0.00  0.00    +0.000 C 
BRANCH  16  17
ATOM     17  C   UNL     1      46.867   5.927  12.906  0.00  0.00    +0.000 A 
ATOM     18  C   UNL     1      45.945   6.401  11.965  0.00  0.00    +0.000 A 
ATOM     19  C   UNL     1      44.996   5.544  11.405  0.00  0.00    +0.000 A 
ATOM     20  C   UNL     1      44.935   4.200  11.794  0.00  0.00    +0.000 A 
ATOM     21  C   UNL     1      45.850   3.728  12.744  0.00  0.00    +0.000 A 
ATOM     22  C   UNL     1      46.800   4.586  13.305  0.00  0.00    +0.000 A 
BRANCH  20  23
ATOM     23  C   UNL     1      43.880   3.283  11.221  0.00  0.00    +0.000 C 
BRANCH  23  24
ATOM     24  O   UNL     1      43.670   3.579   9.838  0.00  0.00    +0.000 OA
BRANCH  24  25
ATOM     25  C   UNL     1      44.668   3.043   9.044  0.00  0.00    +0.000 A 
ATOM     26  C   UNL     1      45.316   3.891   8.168  0.00  0.00    +0.000 A 
ATOM     27  C   UNL     1      46.336   3.366   7.381  0.00  0.00    +0.000 A 
ATOM     28  C   UNL     1      46.643   2.025   7.518  0.00  0.00    +0.000 A 
ATOM     29  N   UNL     1      45.990   1.217   8.376  0.00  0.00    +0.000 NA
ATOM     30  N   UNL     1      44.991   1.734   9.147  0.00  0.00    +0.000 NA
ENDBRANCH  24  25
ENDBRANCH  23  24
ENDBRANCH  20  23
ENDBRANCH  16  17
ENDBRANCH   3  16
TORSDOF 6
ENDMDL
MODEL 4
REMARK VINA RESULT:    -7.594      1.929      2.831
REMARK INTER + INTRA:         -11.246
REMARK INTER:                 -10.469
REMARK INTRA:                  -0.777
REMARK UNBOUND:                -0.989
REMARK  Name = 
REMARK  6 active torsions:
REMARK  status: ('A' for Active; 'I' for Inactive)
REMARK    1  A    between atoms: C_2  and  C_19
REMARK    2  A    between atoms: N_3  and  C_4
REMARK    3  A    between atoms: C_4  and  C_5
REMARK    4  A    between atoms: C_8  and  C_9
REMARK    5  A    between atoms: C_9  and  O_10
REMARK    6  A    between atoms: O_10  and  C_11
REMARK                            x       y       z     vdW  Elec       q    Type
REMARK                         _______ _______ _______ _____ _____    ______ ____
ROOT
ATOM      1  O   UNL     1      46.580   3.171  13.738  0.00  0.00    +0.000 OA
ATOM      2  C   UNL     1      46.398   4.363  13.965  0.00  0.00    +0.000 C 
ATOM      3  N   UNL     1      45.275   5.034  13.556  0.00  0.00    +0.000 N 
ATOM      4  H   UNL     1      45.270   6.047  13.594  0.00  0.00    +0.000 HD
ENDROOT
BRANCH   2   5
ATOM      5  C   UNL     1      47.356   5.146  14.755  0.00  0.00    +0.000 A 
ATOM      6  C   UNL     1      48.064   6.183  14.163  0.00  0.00    +0.000 A 
ATOM      7  S   UNL     1      49.146   6.963  15.226  0.00  0.00    +0.000 S 
ATOM      8  C   UNL     1      48.673   5.970  16.525  0.00  0.00    +0.000 A 
ATOM      9  N   UNL     1      49.211   6.130  17.766  0.00  0.00    +0.000 NA
ATOM     10  C   UNL     1      48.730   5.338  18.660  0.00  0.00    +0.000 A 
ATOM     11  N   UNL     1      47.766   4.392  18.434  0.00  0.00    +0.000 N 
ATOM     12  C   UNL     1      47.252   4.142  17.186  0.00  0.00    +0.000 A 
ATOM     13  O   UNL     1      46.497   3.194  16.993  0.00  0.00    +0.000 OA
ATOM     14  C   UNL     1      47.724   5.039  16.149  0.00  0.00    +0.000 A 
ATOM     15  H   UNL     1      47.455   3.779  19.172  0.00  0.00    +0.000 HD
ENDBRANCH   2   5
BRANCH   3  16
ATOM     16  C   UNL     1      44.279   4.441  12.706  0.00  0.00    +0.000 C 
BRANCH  16  17
ATOM     17  C   UNL     1      44.781   4.297  11.292  0.00  0.00    +0.000 A 
ATOM     18  C   UNL     1      44.688   3.063  10.638  0.00  0.00    +0.000 A 
ATOM     19  C   UNL     1      45.148   2.915   9.328  0.00  0.00    +0.000 A 
ATOM     20  C   UNL     1      45.733   3.995   8.654  0.00  0.00    +0.000 A 
ATOM     21  C   UNL     1      45.836   5.228   9.312  0.00  0.00    +0.000 A 
ATOM     22  C   UNL     1      45.376   5.375  10.624  0.00  0.00    +0.000 A 
BRANCH  20  23
ATOM     23  C   UNL     1      46.271   3.825   7.253  0.00  0.00    +0.000 C 
BRANCH  23  24
ATOM     24  O   UNL     1      47.263   2.795   7.229  0.00  0.00    +0.000 OA
BRANCH  24  25
ATOM     25  C   UNL     1      47.143   1.998   6.105  0.00  0.00    +0.000 A 
ATOM     26  C   UNL     1      46.534   2.544   4.992  0.00  0.00    +0.000 A 
ATOM     27  C   UNL     1      46.428   1.756   3.850  0.00  0.00    +0.000 A 
ATOM     28  C   UNL     1      46.936   0.471   3.893  0.00  0.00    +0.000 A 
ATOM     29  N   UNL     1      47.520  -0.040   4.994  0.00  0.00    +0.000 NA
ATOM     30  N   UNL     1      47.623   0.733   6.112  0.00  0.00    +0.000 NA
ENDBRANCH  24  25
ENDBRANCH  23  24
ENDBRANCH  20  23
ENDBRANCH  16  17
ENDBRANCH   3  16
TORSDOF 6
ENDMDL
MODEL 5
REMARK VINA RESULT:    -7.576      2.526      3.792
REMARK INTER + INTRA:         -11.222
REMARK INTER:                 -10.387
REMARK INTRA:                  -0.835
REMARK UNBOUND:                -0.989
REMARK  Name = 
REMARK  6 active torsions:
REMARK  status: ('A' for Active; 'I' for Inactive)
REMARK    1  A    between atoms: C_2  and  C_19
REMARK    2  A    between atoms: N_3  and  C_4
REMARK    3  A    between atoms: C_4  and  C_5
REMARK    4  A    between atoms: C_8  and  C_9
REMARK    5  A    between atoms: C_9  and  O_10
REMARK    6  A    between atoms: O_10  and  C_11
REMARK                            x       y       z     vdW  Elec       q    Type
REMARK                         _______ _______ _______ _____ _____    ______ ____
ROOT
ATOM      1  O   UNL     1      46.261   4.304  14.414  0.00  0.00    +0.000 OA
ATOM      2  C   UNL     1      46.454   5.458  14.046  0.00  0.00    +0.000 C 
ATOM      3  N   UNL     1      45.485   6.219  13.445  0.00  0.00    +0.000 N 
ATOM      4  H   UNL     1      45.755   7.081  12.986  0.00  0.00    +0.000 HD
ENDROOT
BRANCH   2   5
ATOM      5  C   UNL     1      47.736   6.134  14.285  0.00  0.00    +0.000 A 
ATOM      6  C   UNL     1      48.336   6.068  15.535  0.00  0.00    +0.000 A 
ATOM      7  S   UNL     1      49.804   6.930  15.633  0.00  0.00    +0.000 S 
ATOM      8  C   UNL     1      49.710   7.384  13.995  0.00  0.00    +0.000 A 
ATOM      9  N   UNL     1      50.689   8.132  13.414  0.00  0.00    +0.000 NA
ATOM     10  C   UNL     1      50.507   8.367  12.161  0.00  0.00    +0.000 A 
ATOM     11  N   UNL     1      49.435   7.931  11.429  0.00  0.00    +0.000 N 
ATOM     12  C   UNL     1      48.387   7.242  11.988  0.00  0.00    +0.000 A 
ATOM     13  O   UNL     1      47.378   6.992  11.336  0.00  0.00    +0.000 OA
ATOM     14  C   UNL     1      48.563   6.909  13.389  0.00  0.00    +0.000 A 
ATOM     15  H   UNL     1      49.334   8.177  10.456  0.00  0.00    +0.000 HD
ENDBRANCH   2   5
BRANCH   3  16
ATOM     16  C   UNL     1      44.204   5.689  13.063  0.00  0.00    +0.000 C 
BRANCH  16  17
ATOM     17  C   UNL     1      44.334   4.706  11.928  0.00  0.00    +0.000 A 
ATOM     18  C   UNL     1      43.849   3.400  12.072  0.00  0.00    +0.000 A 
ATOM     19  C   UNL     1      43.962   2.480  11.029  0.00  0.00    +0.000 A 
ATOM     20  C   UNL     1      44.584   2.841   9.827  0.00  0.00    +0.000 A 
ATOM     21  C   UNL     1      45.078   4.144   9.685  0.00  0.00    +0.000 A 
ATOM     22  C   UNL     1      44.966   5.066  10.730  0.00  0.00    +0.000 A 
BRANCH  20  23
ATOM     23  C   UNL     1      44.745   1.833   8.713  0.00  0.00    +0.000 C 
BRANCH  23  24
ATOM     24  O   UNL     1      46.110   1.418   8.620  0.00  0.00    +0.000 OA
BRANCH  24  25
ATOM     25  C   UNL     1      46.618   1.620   7.350  0.00  0.00    +0.000 A 
ATOM     26  C   UNL     1      46.469   2.874   6.790  0.00  0.00    +0.000 A 
ATOM     27  C   UNL     1      46.997   3.092   5.521  0.00  0.00    +0.000 A 
ATOM     28  C   UNL     1      47.639   2.043   4.891  0.00  0.00    +0.000 A 
ATOM     29  N   UNL     1      47.765   0.827   5.457  0.00  0.00    +0.000 NA
ATOM     30  N   UNL     1      47.248   0.615   6.700  0.00  0.00    +0.000 NA
ENDBRANCH  24  25
ENDBRANCH  23  24
ENDBRANCH  20  23
ENDBRANCH  16  17
ENDBRANCH   3  16
TORSDOF 6
ENDMDL
MODEL 6
REMARK VINA RESULT:    -7.401      2.529      3.346
REMARK INTER + INTRA:         -10.986
REMARK INTER:                 -10.086
REMARK INTRA:                  -0.900
REMARK UNBOUND:                -0.989
REMARK  Name = 
REMARK  6 active torsions:
REMARK  status: ('A' for Active; 'I' for Inactive)
REMARK    1  A    between atoms: C_2  and  C_19
REMARK    2  A    between atoms: N_3  and  C_4
REMARK    3  A    between atoms: C_4  and  C_5
REMARK    4  A    between atoms: C_8  and  C_9
REMARK    5  A    between atoms: C_9  and  O_10
REMARK    6  A    between atoms: O_10  and  C_11
REMARK                            x       y       z     vdW  Elec       q    Type
REMARK                         _______ _______ _______ _____ _____    ______ ____
ROOT
ATOM      1  O   UNL     1      49.844   5.665  16.314  0.00  0.00    +0.000 OA
ATOM      2  C   UNL     1      48.863   6.372  16.524  0.00  0.00    +0.000 C 
ATOM      3  N   UNL     1      48.081   6.876  15.518  0.00  0.00    +0.000 N 
ATOM      4  H   UNL     1      47.414   7.607  15.737  0.00  0.00    +0.000 HD
ENDROOT
BRANCH   2   5
ATOM      5  C   UNL     1      48.419   6.678  17.890  0.00  0.00    +0.000 A 
ATOM      6  C   UNL     1      48.354   5.671  18.843  0.00  0.00    +0.000 A 
ATOM      7  S   UNL     1      47.795   6.207  20.363  0.00  0.00    +0.000 S 
ATOM      8  C   UNL     1      47.663   7.812  19.811  0.00  0.00    +0.000 A 
ATOM      9  N   UNL     1      47.252   8.811  20.640  0.00  0.00    +0.000 NA
ATOM     10  C   UNL     1      47.238   9.980  20.099  0.00  0.00    +0.000 A 
ATOM     11  N   UNL     1      47.590  10.249  18.804  0.00  0.00    +0.000 N 
ATOM     12  C   UNL     1      47.936   9.265  17.910  0.00  0.00    +0.000 A 
ATOM     13  O   UNL     1      48.106   9.524  16.722  0.00  0.00    +0.000 OA
ATOM     14  C   UNL     1      48.014   7.934  18.480  0.00  0.00    +0.000 A 
ATOM     15  H   UNL     1      47.526  11.184  18.430  0.00  0.00    +0.000 HD
ENDBRANCH   2   5
BRANCH   3  16
ATOM     16  C   UNL     1      48.418   6.742  14.127  0.00  0.00    +0.000 C 
BRANCH  16  17
ATOM     17  C   UNL     1      47.314   6.060  13.359  0.00  0.00    +0.000 A 
ATOM     18  C   UNL     1      46.824   4.821  13.788  0.00  0.00    +0.000 A 
ATOM     19  C   UNL     1      45.802   4.180  13.087  0.00  0.00    +0.000 A 
ATOM     20  C   UNL     1      45.264   4.754  11.929  0.00  0.00    +0.000 A 
ATOM     21  C   UNL     1      45.762   5.990  11.493  0.00  0.00    +0.000 A 
ATOM     22  C   UNL     1      46.786   6.632  12.194  0.00  0.00    +0.000 A 
BRANCH  20  23
ATOM     23  C   UNL     1      44.188   4.040  11.145  0.00  0.00    +0.000 C 
BRANCH  23  24
ATOM     24  O   UNL     1      44.127   4.554   9.813  0.00  0.00    +0.000 OA
BRANCH  24  25
ATOM     25  C   UNL     1      45.017   3.907   8.975  0.00  0.00    +0.000 A 
ATOM     26  C   UNL     1      45.139   2.537   9.102  0.00  0.00    +0.000 A 
ATOM     27  C   UNL     1      46.016   1.874   8.250  0.00  0.00    +0.000 A 
ATOM     28  C   UNL     1      46.718   2.623   7.323  0.00  0.00    +0.000 A 
ATOM     29  N   UNL     1      46.585   3.960   7.224  0.00  0.00    +0.000 NA
ATOM     30  N   UNL     1      45.725   4.607   8.060  0.00  0.00    +0.000 NA
ENDBRANCH  24  25
ENDBRANCH  23  24
ENDBRANCH  20  23
ENDBRANCH  16  17
ENDBRANCH   3  16
TORSDOF 6
ENDMDL
MODEL 7
REMARK VINA RESULT:    -7.392      4.488      8.856
REMARK INTER + INTRA:         -10.974
REMARK INTER:                 -10.156
REMARK INTRA:                  -0.817
REMARK UNBOUND:                -0.989
REMARK  Name = 
REMARK  6 active torsions:
REMARK  status: ('A' for Active; 'I' for Inactive)
REMARK    1  A    between atoms: C_2  and  C_19
REMARK    2  A    between atoms: N_3  and  C_4
REMARK    3  A    between atoms: C_4  and  C_5
REMARK    4  A    between atoms: C_8  and  C_9
REMARK    5  A    between atoms: C_9  and  O_10
REMARK    6  A    between atoms: O_10  and  C_11
REMARK                            x       y       z     vdW  Elec       q    Type
REMARK                         _______ _______ _______ _____ _____    ______ ____
ROOT
ATOM      1  O   UNL     1      47.318   3.111  14.134  0.00  0.00    +0.000 OA
ATOM      2  C   UNL     1      46.942   4.182  14.602  0.00  0.00    +0.000 C 
ATOM      3  N   UNL     1      46.916   4.436  15.948  0.00  0.00    +0.000 N 
ATOM      4  H   UNL     1      46.414   5.250  16.283  0.00  0.00    +0.000 HD
ENDROOT
BRANCH   2   5
ATOM      5  C   UNL     1      46.549   5.300  13.736  0.00  0.00    +0.000 A 
ATOM      6  C   UNL     1      47.391   6.393  13.583  0.00  0.00    +0.000 A 
ATOM      7  S   UNL     1      46.759   7.603  12.560  0.00  0.00    +0.000 S 
ATOM      8  C   UNL     1      45.358   6.687  12.251  0.00  0.00    +0.000 A 
ATOM      9  N   UNL     1      44.387   7.145  11.413  0.00  0.00    +0.000 NA
ATOM     10  C   UNL     1      43.404   6.331  11.241  0.00  0.00    +0.000 A 
ATOM     11  N   UNL     1      43.291   5.102  11.832  0.00  0.00    +0.000 N 
ATOM     12  C   UNL     1      44.204   4.631  12.744  0.00  0.00    +0.000 A 
ATOM     13  O   UNL     1      44.000   3.590  13.361  0.00  0.00    +0.000 OA
ATOM     14  C   UNL     1      45.358   5.489  12.939  0.00  0.00    +0.000 A 
ATOM     15  H   UNL     1      42.478   4.524  11.682  0.00  0.00    +0.000 HD
ENDBRANCH   2   5
BRANCH   3  16
ATOM     16  C   UNL     1      47.189   3.428  16.937  0.00  0.00    +0.000 C 
BRANCH  16  17
ATOM     17  C   UNL     1      48.672   3.253  17.146  0.00  0.00    +0.000 A 
ATOM     18  C   UNL     1      49.271   2.010  16.910  0.00  0.00    +0.000 A 
ATOM     19  C   UNL     1      50.643   1.835  17.097  0.00  0.00    +0.000 A 
ATOM     20  C   UNL     1      51.440   2.894  17.549  0.00  0.00    +0.000 A 
ATOM     21  C   UNL     1      50.839   4.135  17.796  0.00  0.00    +0.000 A 
ATOM     22  C   UNL     1      49.465   4.311  17.609  0.00  0.00    +0.000 A 
BRANCH  20  23
ATOM     23  C   UNL     1      52.917   2.693  17.794  0.00  0.00    +0.000 C 
BRANCH  23  24
ATOM     24  O   UNL     1      53.119   1.644  18.744  0.00  0.00    +0.000 OA
BRANCH  24  25
ATOM     25  C   UNL     1      53.773   0.564  18.180  0.00  0.00    +0.000 A 
ATOM     26  C   UNL     1      54.318   0.729  16.922  0.00  0.00    +0.000 A 
ATOM     27  C   UNL     1      54.996  -0.346  16.355  0.00  0.00    +0.000 A 
ATOM     28  C   UNL     1      55.086  -1.519  17.082  0.00  0.00    +0.000 A 
ATOM     29  N   UNL     1      54.540  -1.655  18.305  0.00  0.00    +0.000 NA
ATOM     30  N   UNL     1      53.876  -0.601  18.859  0.00  0.00    +0.000 NA
ENDBRANCH  24  25
ENDBRANCH  23  24
ENDBRANCH  20  23
ENDBRANCH  16  17
ENDBRANCH   3  16
TORSDOF 6
ENDMDL
MODEL 8
REMARK VINA RESULT:    -7.206      2.358      3.931
REMARK INTER + INTRA:         -10.722
REMARK INTER:                  -9.593
REMARK INTRA:                  -1.129
REMARK UNBOUND:                -0.989
REMARK  Name = 
REMARK  6 active torsions:
REMARK  status: ('A' for Active; 'I' for Inactive)
REMARK    1  A    between atoms: C_2  and  C_19
REMARK    2  A    between atoms: N_3  and  C_4
REMARK    3  A    between atoms: C_4  and  C_5
REMARK    4  A    between atoms: C_8  and  C_9
REMARK    5  A    between atoms: C_9  and  O_10
REMARK    6  A    between atoms: O_10  and  C_11
REMARK                            x       y       z     vdW  Elec       q    Type
REMARK                         _______ _______ _______ _____ _____    ______ ____
ROOT
ATOM      1  O   UNL     1      49.324   5.529  16.412  0.00  0.00    +0.000 OA
ATOM      2  C   UNL     1      48.851   6.369  15.652  0.00  0.00    +0.000 C 
ATOM      3  N   UNL     1      47.745   6.133  14.878  0.00  0.00    +0.000 N 
ATOM      4  H   UNL     1      47.523   6.781  14.132  0.00  0.00    +0.000 HD
ENDROOT
BRANCH   2   5
ATOM      5  C   UNL     1      49.411   7.724  15.566  0.00  0.00    +0.000 A 
ATOM      6  C   UNL     1      49.580   8.482  16.716  0.00  0.00    +0.000 A 
ATOM      7  S   UNL     1      50.219  10.036  16.420  0.00  0.00    +0.000 S 
ATOM      8  C   UNL     1      50.332   9.732  14.749  0.00  0.00    +0.000 A 
ATOM      9  N   UNL     1      50.835  10.666  13.895  0.00  0.00    +0.000 NA
ATOM     10  C   UNL     1      50.899  10.285  12.666  0.00  0.00    +0.000 A 
ATOM     11  N   UNL     1      50.502   9.059  12.204  0.00  0.00    +0.000 N 
ATOM     12  C   UNL     1      49.918   8.115  13.013  0.00  0.00    +0.000 A 
ATOM     13  O   UNL     1      49.444   7.086  12.540  0.00  0.00    +0.000 OA
ATOM     14  C   UNL     1      49.864   8.475  14.417  0.00  0.00    +0.000 A 
ATOM     15  H   UNL     1      50.547   8.833  11.222  0.00  0.00    +0.000 HD
ENDBRANCH   2   5
BRANCH   3  16
ATOM     16  C   UNL     1      47.125   4.839  14.780  0.00  0.00    +0.000 C 
BRANCH  16  17
ATOM     17  C   UNL     1      46.323   4.712  13.510  0.00  0.00    +0.000 A 
ATOM     18  C   UNL     1      45.850   3.458  13.103  0.00  0.00    +0.000 A 
ATOM     19  C   UNL     1      45.105   3.326  11.930  0.00  0.00    +0.000 A 
ATOM     20  C   UNL     1      44.840   4.442  11.126  0.00  0.00    +0.000 A 
ATOM     21  C   UNL     1      45.322   5.695  11.528  0.00  0.00    +0.000 A 
ATOM     22  C   UNL     1      46.068   5.828  12.702  0.00  0.00    +0.000 A 
BRANCH  20  23
ATOM     23  C   UNL     1      44.071   4.293   9.835  0.00  0.00    +0.000 C 
BRANCH  23  24
ATOM     24  O   UNL     1      44.254   2.978   9.304  0.00  0.00    +0.000 OA
BRANCH  24  25
ATOM     25  C   UNL     1      45.330   2.922   8.437  0.00  0.00    +0.000 A 
ATOM     26  C   UNL     1      46.012   1.726   8.335  0.00  0.00    +0.000 A 
ATOM     27  C   UNL     1      47.083   1.655   7.449  0.00  0.00    +0.000 A 
ATOM     28  C   UNL     1      47.405   2.785   6.722  0.00  0.00    +0.000 A 
ATOM     29  N   UNL     1      46.727   3.943   6.844  0.00  0.00    +0.000 NA
ATOM     30  N   UNL     1      45.678   4.010   7.712  0.00  0.00    +0.000 NA
ENDBRANCH  24  25
ENDBRANCH  23  24
ENDBRANCH  20  23
ENDBRANCH  16  17
ENDBRANCH   3  16
TORSDOF 6
ENDMDL
MODEL 9
REMARK VINA RESULT:    -7.203      3.402      8.065
REMARK INTER + INTRA:         -10.718
REMARK INTER:                  -9.752
REMARK INTRA:                  -0.966
REMARK UNBOUND:                -0.989
REMARK  Name = 
REMARK  6 active torsions:
REMARK  status: ('A' for Active; 'I' for Inactive)
REMARK    1  A    between atoms: C_2  and  C_19
REMARK    2  A    between atoms: N_3  and  C_4
REMARK    3  A    between atoms: C_4  and  C_5
REMARK    4  A    between atoms: C_8  and  C_9
REMARK    5  A    between atoms: C_9  and  O_10
REMARK    6  A    between atoms: O_10  and  C_11
REMARK                            x       y       z     vdW  Elec       q    Type
REMARK                         _______ _______ _______ _____ _____    ______ ____
ROOT
ATOM      1  O   UNL     1      45.564   7.830  11.854  0.00  0.00    +0.000 OA
ATOM      2  C   UNL     1      46.239   6.856  11.536  0.00  0.00    +0.000 C 
ATOM      3  N   UNL     1      47.569   6.740  11.845  0.00  0.00    +0.000 N 
ATOM      4  H   UNL     1      48.116   6.019  11.389  0.00  0.00    +0.000 HD
ENDROOT
BRANCH   2   5
ATOM      5  C   UNL     1      45.643   5.704  10.847  0.00  0.00    +0.000 A 
ATOM      6  C   UNL     1      45.861   5.515   9.489  0.00  0.00    +0.000 A 
ATOM      7  S   UNL     1      45.072   4.142   8.857  0.00  0.00    +0.000 S 
ATOM      8  C   UNL     1      44.448   3.728  10.386  0.00  0.00    +0.000 A 
ATOM      9  N   UNL     1      43.683   2.614  10.556  0.00  0.00    +0.000 NA
ATOM     10  C   UNL     1      43.314   2.403  11.772  0.00  0.00    +0.000 A 
ATOM     11  N   UNL     1      43.629   3.203  12.838  0.00  0.00    +0.000 N 
ATOM     12  C   UNL     1      44.331   4.375  12.702  0.00  0.00    +0.000 A 
ATOM     13  O   UNL     1      44.472   5.139  13.652  0.00  0.00    +0.000 OA
ATOM     14  C   UNL     1      44.812   4.638  11.359  0.00  0.00    +0.000 A 
ATOM     15  H   UNL     1      43.281   3.000  13.762  0.00  0.00    +0.000 HD
ENDBRANCH   2   5
BRANCH   3  16
ATOM     16  C   UNL     1      48.326   7.807  12.442  0.00  0.00    +0.000 C 
BRANCH  16  17
ATOM     17  C   UNL     1      48.910   7.388  13.767  0.00  0.00    +0.000 A 
ATOM     18  C   UNL     1      50.213   7.770  14.111  0.00  0.00    +0.000 A 
ATOM     19  C   UNL     1      50.765   7.391  15.335  0.00  0.00    +0.000 A 
ATOM     20  C   UNL     1      50.034   6.601  16.231  0.00  0.00    +0.000 A 
ATOM     21  C   UNL     1      48.734   6.210  15.883  0.00  0.00    +0.000 A 
ATOM     22  C   UNL     1      48.181   6.589  14.657  0.00  0.00    +0.000 A 
BRANCH  20  23
ATOM     23  C   UNL     1      50.647   6.154  17.537  0.00  0.00    +0.000 C 
BRANCH  23  24
ATOM     24  O   UNL     1      49.904   5.059  18.080  0.00  0.00    +0.000 OA
BRANCH  24  25
ATOM     25  C   UNL     1      50.483   3.844  17.765  0.00  0.00    +0.000 A 
ATOM     26  C   UNL     1      51.767   3.608  18.214  0.00  0.00    +0.000 A 
ATOM     27  C   UNL     1      52.350   2.379  17.920  0.00  0.00    +0.000 A 
ATOM     28  C   UNL     1      51.612   1.463  17.194  0.00  0.00    +0.000 A 
ATOM     29  N   UNL     1      50.362   1.720  16.762  0.00  0.00    +0.000 NA
ATOM     30  N   UNL     1      49.793   2.925  17.051  0.00  0.00    +0.000 NA
ENDBRANCH  24  25
ENDBRANCH  23  24
ENDBRANCH  20  23
ENDBRANCH  16  17
ENDBRANCH   3  16
TORSDOF 6
ENDMDL
