MODEL 1
REMARK VINA RESULT:    -8.554      0.000      0.000
REMARK INTER + INTRA:         -12.373
REMARK INTER:                 -11.555
REMARK INTRA:                  -0.819
REMARK UNBOUND:                -0.819
REMARK  Name = 
REMARK  6 active torsions:
REMARK  status: ('A' for Active; 'I' for Inactive)
REMARK    1  A    between atoms: C_2  and  C_4
REMARK    2  A    between atoms: N_8  and  C_9
REMARK    3  A    between atoms: C_9  and  C_10
REMARK    4  A    between atoms: C_10  and  C_11
REMARK    5  A    between atoms: C_15  and  O_16
REMARK    6  A    between atoms: O_16  and  C_17
REMARK                            x       y       z     vdW  Elec       q    Type
REMARK                         _______ _______ _______ _____ _____    ______ ____
ROOT
ATOM      1  C   UNL     1      46.573   2.502   7.499  0.00  0.00    +0.000 A 
ATOM      2  C   UNL     1      45.797   1.830   8.438  0.00  0.00    +0.000 A 
ATOM      3  C   UNL     1      44.897   2.558   9.215  0.00  0.00    +0.000 A 
ATOM      4  C   UNL     1      44.779   3.938   9.039  0.00  0.00    +0.000 A 
ATOM      5  N   UNL     1      43.817   4.686   9.699  0.00  0.00    +0.000 N 
ATOM      6  N   UNL     1      45.542   4.598   8.148  0.00  0.00    +0.000 NA
ATOM      7  C   UNL     1      46.422   3.879   7.411  0.00  0.00    +0.000 A 
ATOM      8  H   UNL     1      43.934   5.673   9.483  0.00  0.00    +0.000 HD
ENDROOT
BRANCH   1  10
ATOM      9  N   UNL     1      48.704   2.470   6.348  0.00  0.00    +0.000 N 
ATOM     10  C   UNL     1      47.538   1.807   6.627  0.00  0.00    +0.000 C 
ATOM     11  O   UNL     1      47.323   0.691   6.203  0.00  0.00    +0.000 OA
ATOM     12  H   UNL     1      49.405   1.946   5.831  0.00  0.00    +0.000 HD
ATOM     13  H   UNL     1      49.018   3.271   6.876  0.00  0.00    +0.000 HD
ENDBRANCH   1  10
BRANCH   5  14
ATOM     14  C   UNL     1      43.418   4.320  11.051  0.00  0.00    +0.000 C 
BRANCH  14  15
ATOM     15  C   UNL     1      43.666   5.469  12.035  0.00  0.00    +0.000 C 
BRANCH  15  16
ATOM     16  C   UNL     1      45.110   5.509  12.479  0.00  0.00    +0.000 A 
ATOM     17  C   UNL     1      45.989   6.461  11.945  0.00  0.00    +0.000 A 
ATOM     18  C   UNL     1      47.302   6.529  12.394  0.00  0.00    +0.000 A 
ATOM     19  C   UNL     1      47.751   5.658  13.392  0.00  0.00    +0.000 A 
ATOM     20  C   UNL     1      46.899   4.689  13.930  0.00  0.00    +0.000 A 
ATOM     21  C   UNL     1      45.583   4.627  13.472  0.00  0.00    +0.000 A 
BRANCH  20  22
ATOM     22  O   UNL     1      47.214   3.793  14.930  0.00  0.00    +0.000 OA
BRANCH  22  23
ATOM     23  C   UNL     1      47.166   4.200  16.316  0.00  0.00    +0.000 C 
ATOM     24  C   UNL     1      48.417   4.865  16.928  0.00  0.00    +0.000 C 
ATOM     25  C   UNL     1      48.324   3.921  18.134  0.00  0.00    +0.000 C 
ATOM     26  C   UNL     1      47.312   3.062  17.361  0.00  0.00    +0.000 C 
ENDBRANCH  22  23
ENDBRANCH  20  22
ENDBRANCH  15  16
ENDBRANCH  14  15
ENDBRANCH   5  14
TORSDOF 6
ENDMDL
MODEL 2
REMARK VINA RESULT:    -7.929      1.873      3.447
REMARK INTER + INTRA:         -11.529
REMARK INTER:                 -10.610
REMARK INTRA:                  -0.918
REMARK UNBOUND:                -0.819
REMARK  Name = 
REMARK  6 active torsions:
REMARK  status: ('A' for Active; 'I' for Inactive)
REMARK    1  A    between atoms: C_2  and  C_4
REMARK    2  A    between atoms: N_8  and  C_9
REMARK    3  A    between atoms: C_9  and  C_10
REMARK    4  A    between atoms: C_10  and  C_11
REMARK    5  A    between atoms: C_15  and  O_16
REMARK    6  A    between atoms: O_16  and  C_17
REMARK                            x       y       z     vdW  Elec       q    Type
REMARK                         _______ _______ _______ _____ _____    ______ ____
ROOT
ATOM      1  C   UNL     1      46.600   2.479   7.474  0.00  0.00    +0.000 A 
ATOM      2  C   UNL     1      45.811   1.822   8.413  0.00  0.00    +0.000 A 
ATOM      3  C   UNL     1      44.893   2.561   9.158  0.00  0.00    +0.000 A 
ATOM      4  C   UNL     1      44.770   3.936   8.951  0.00  0.00    +0.000 A 
ATOM      5  N   UNL     1      43.792   4.691   9.577  0.00  0.00    +0.000 N 
ATOM      6  N   UNL     1      45.545   4.581   8.060  0.00  0.00    +0.000 NA
ATOM      7  C   UNL     1      46.443   3.852   7.354  0.00  0.00    +0.000 A 
ATOM      8  H   UNL     1      43.907   5.674   9.341  0.00  0.00    +0.000 HD
ENDROOT
BRANCH   1  10
ATOM      9  N   UNL     1      48.787   2.398   6.434  0.00  0.00    +0.000 N 
ATOM     10  C   UNL     1      47.585   1.771   6.635  0.00  0.00    +0.000 C 
ATOM     11  O   UNL     1      47.354   0.674   6.171  0.00  0.00    +0.000 OA
ATOM     12  H   UNL     1      49.495   1.862   5.940  0.00  0.00    +0.000 HD
ATOM     13  H   UNL     1      49.099   3.174   6.998  0.00  0.00    +0.000 HD
ENDBRANCH   1  10
BRANCH   5  14
ATOM     14  C   UNL     1      43.370   4.352  10.929  0.00  0.00    +0.000 C 
BRANCH  14  15
ATOM     15  C   UNL     1      43.531   5.545  11.878  0.00  0.00    +0.000 C 
BRANCH  15  16
ATOM     16  C   UNL     1      44.894   5.543  12.533  0.00  0.00    +0.000 A 
ATOM     17  C   UNL     1      45.397   4.373  13.117  0.00  0.00    +0.000 A 
ATOM     18  C   UNL     1      46.671   4.361  13.671  0.00  0.00    +0.000 A 
ATOM     19  C   UNL     1      47.466   5.511  13.635  0.00  0.00    +0.000 A 
ATOM     20  C   UNL     1      46.982   6.696  13.072  0.00  0.00    +0.000 A 
ATOM     21  C   UNL     1      45.701   6.699  12.521  0.00  0.00    +0.000 A 
BRANCH  20  22
ATOM     22  O   UNL     1      47.673   7.884  12.957  0.00  0.00    +0.000 OA
BRANCH  22  23
ATOM     23  C   UNL     1      48.489   8.141  11.792  0.00  0.00    +0.000 C 
ATOM     24  C   UNL     1      49.953   7.652  11.801  0.00  0.00    +0.000 C 
ATOM     25  C   UNL     1      50.414   9.035  11.321  0.00  0.00    +0.000 C 
ATOM     26  C   UNL     1      49.021   9.593  11.645  0.00  0.00    +0.000 C 
ENDBRANCH  22  23
ENDBRANCH  20  22
ENDBRANCH  15  16
ENDBRANCH  14  15
ENDBRANCH   5  14
TORSDOF 6
ENDMDL
MODEL 3
REMARK VINA RESULT:    -7.706      2.020      3.890
REMARK INTER + INTRA:         -11.228
REMARK INTER:                 -10.584
REMARK INTRA:                  -0.644
REMARK UNBOUND:                -0.819
REMARK  Name = 
REMARK  6 active torsions:
REMARK  status: ('A' for Active; 'I' for Inactive)
REMARK    1  A    between atoms: C_2  and  C_4
REMARK    2  A    between atoms: N_8  and  C_9
REMARK    3  A    between atoms: C_9  and  C_10
REMARK    4  A    between atoms: C_10  and  C_11
REMARK    5  A    between atoms: C_15  and  O_16
REMARK    6  A    between atoms: O_16  and  C_17
REMARK                            x       y       z     vdW  Elec       q    Type
REMARK                         _______ _______ _______ _____ _____    ______ ____
ROOT
ATOM      1  C   UNL     1      46.469   2.491   7.678  0.00  0.00    +0.000 A 
ATOM      2  C   UNL     1      45.639   1.811   8.563  0.00  0.00    +0.000 A 
ATOM      3  C   UNL     1      44.728   2.538   9.329  0.00  0.00    +0.000 A 
ATOM      4  C   UNL     1      44.653   3.925   9.195  0.00  0.00    +0.000 A 
ATOM      5  N   UNL     1      43.686   4.678   9.841  0.00  0.00    +0.000 N 
ATOM      6  N   UNL     1      45.468   4.592   8.356  0.00  0.00    +0.000 NA
ATOM      7  C   UNL     1      46.358   3.873   7.631  0.00  0.00    +0.000 A 
ATOM      8  H   UNL     1      43.837   5.668   9.662  0.00  0.00    +0.000 HD
ENDROOT
BRANCH   1  10
ATOM      9  N   UNL     1      48.549   2.518   6.437  0.00  0.00    +0.000 N 
ATOM     10  C   UNL     1      47.449   1.797   6.822  0.00  0.00    +0.000 C 
ATOM     11  O   UNL     1      47.303   0.637   6.500  0.00  0.00    +0.000 OA
ATOM     12  H   UNL     1      49.266   2.005   5.932  0.00  0.00    +0.000 HD
ATOM     13  H   UNL     1      48.821   3.381   6.884  0.00  0.00    +0.000 HD
ENDBRANCH   1  10
BRANCH   5  14
ATOM     14  C   UNL     1      43.224   4.280  11.164  0.00  0.00    +0.000 C 
BRANCH  14  15
ATOM     15  C   UNL     1      43.331   5.438  12.162  0.00  0.00    +0.000 C 
BRANCH  15  16
ATOM     16  C   UNL     1      44.766   5.676  12.573  0.00  0.00    +0.000 A 
ATOM     17  C   UNL     1      45.437   4.741  13.373  0.00  0.00    +0.000 A 
ATOM     18  C   UNL     1      46.773   4.937  13.705  0.00  0.00    +0.000 A 
ATOM     19  C   UNL     1      47.459   6.059  13.230  0.00  0.00    +0.000 A 
ATOM     20  C   UNL     1      46.808   7.014  12.444  0.00  0.00    +0.000 A 
ATOM     21  C   UNL     1      45.468   6.811  12.118  0.00  0.00    +0.000 A 
BRANCH  20  22
ATOM     22  O   UNL     1      47.378   8.146  11.899  0.00  0.00    +0.000 OA
BRANCH  22  23
ATOM     23  C   UNL     1      47.002   9.456  12.384  0.00  0.00    +0.000 C 
ATOM     24  C   UNL     1      45.644  10.039  11.939  0.00  0.00    +0.000 C 
ATOM     25  C   UNL     1      46.337  11.359  11.573  0.00  0.00    +0.000 C 
ATOM     26  C   UNL     1      47.698  10.658  11.690  0.00  0.00    +0.000 C 
ENDBRANCH  22  23
ENDBRANCH  20  22
ENDBRANCH  15  16
ENDBRANCH  14  15
ENDBRANCH   5  14
TORSDOF 6
ENDMDL
MODEL 4
REMARK VINA RESULT:    -7.422      2.951      5.000
REMARK INTER + INTRA:         -10.845
REMARK INTER:                 -10.227
REMARK INTRA:                  -0.618
REMARK UNBOUND:                -0.819
REMARK  Name = 
REMARK  6 active torsions:
REMARK  status: ('A' for Active; 'I' for Inactive)
REMARK    1  A    between atoms: C_2  and  C_4
REMARK    2  A    between atoms: N_8  and  C_9
REMARK    3  A    between atoms: C_9  and  C_10
REMARK    4  A    between atoms: C_10  and  C_11
REMARK    5  A    between atoms: C_15  and  O_16
REMARK    6  A    between atoms: O_16  and  C_17
REMARK                            x       y       z     vdW  Elec       q    Type
REMARK                         _______ _______ _______ _____ _____    ______ ____
ROOT
ATOM      1  C   UNL     1      46.626   2.437   7.415  0.00  0.00    +0.000 A 
ATOM      2  C   UNL     1      45.818   1.879   8.400  0.00  0.00    +0.000 A 
ATOM      3  C   UNL     1      45.006   2.717   9.162  0.00  0.00    +0.000 A 
ATOM      4  C   UNL     1      45.004   4.093   8.926  0.00  0.00    +0.000 A 
ATOM      5  N   UNL     1      44.129   4.952   9.571  0.00  0.00    +0.000 N 
ATOM      6  N   UNL     1      45.799   4.643   7.989  0.00  0.00    +0.000 NA
ATOM      7  C   UNL     1      46.594   3.817   7.267  0.00  0.00    +0.000 A 
ATOM      8  H   UNL     1      44.326   5.914   9.306  0.00  0.00    +0.000 HD
ENDROOT
BRANCH   1  10
ATOM      9  N   UNL     1      48.620   2.237   6.054  0.00  0.00    +0.000 N 
ATOM     10  C   UNL     1      47.503   1.621   6.556  0.00  0.00    +0.000 C 
ATOM     11  O   UNL     1      47.264   0.454   6.328  0.00  0.00    +0.000 OA
ATOM     12  H   UNL     1      49.269   1.643   5.547  0.00  0.00    +0.000 HD
ATOM     13  H   UNL     1      48.973   3.109   6.419  0.00  0.00    +0.000 HD
ENDBRANCH   1  10
BRANCH   5  14
ATOM     14  C   UNL     1      43.734   4.683  10.947  0.00  0.00    +0.000 C 
BRANCH  14  15
ATOM     15  C   UNL     1      44.941   4.728  11.891  0.00  0.00    +0.000 C 
BRANCH  15  16
ATOM     16  C   UNL     1      45.520   6.121  11.974  0.00  0.00    +0.000 A 
ATOM     17  C   UNL     1      46.904   6.306  12.098  0.00  0.00    +0.000 A 
ATOM     18  C   UNL     1      47.437   7.589  12.121  0.00  0.00    +0.000 A 
ATOM     19  C   UNL     1      46.600   8.703  12.004  0.00  0.00    +0.000 A 
ATOM     20  C   UNL     1      45.215   8.546  11.894  0.00  0.00    +0.000 A 
ATOM     21  C   UNL     1      44.688   7.255  11.875  0.00  0.00    +0.000 A 
BRANCH  20  22
ATOM     22  O   UNL     1      44.289   9.559  11.751  0.00  0.00    +0.000 OA
BRANCH  22  23
ATOM     23  C   UNL     1      43.428   9.600  10.590  0.00  0.00    +0.000 C 
ATOM     24  C   UNL     1      43.756  10.610   9.470  0.00  0.00    +0.000 C 
ATOM     25  C   UNL     1      42.290  11.067   9.461  0.00  0.00    +0.000 C 
ATOM     26  C   UNL     1      42.066  10.320  10.784  0.00  0.00    +0.000 C 
ENDBRANCH  22  23
ENDBRANCH  20  22
ENDBRANCH  15  16
ENDBRANCH  14  15
ENDBRANCH   5  14
TORSDOF 6
ENDMDL
MODEL 5
REMARK VINA RESULT:    -7.354      2.450      3.065
REMARK INTER + INTRA:         -10.752
REMARK INTER:                 -10.093
REMARK INTRA:                  -0.659
REMARK UNBOUND:                -0.819
REMARK  Name = 
REMARK  6 active torsions:
REMARK  status: ('A' for Active; 'I' for Inactive)
REMARK    1  A    between atoms: C_2  and  C_4
REMARK    2  A    between atoms: N_8  and  C_9
REMARK    3  A    between atoms: C_9  and  C_10
REMARK    4  A    between atoms: C_10  and  C_11
REMARK    5  A    between atoms: C_15  and  O_16
REMARK    6  A    between atoms: O_16  and  C_17
REMARK                            x       y       z     vdW  Elec       q    Type
REMARK                         _______ _______ _______ _____ _____    ______ ____
ROOT
ATOM      1  C   UNL     1      46.671   2.492   7.429  0.00  0.00    +0.000 A 
ATOM      2  C   UNL     1      45.860   1.843   8.355  0.00  0.00    +0.000 A 
ATOM      3  C   UNL     1      44.963   2.597   9.111  0.00  0.00    +0.000 A 
ATOM      4  C   UNL     1      44.882   3.979   8.927  0.00  0.00    +0.000 A 
ATOM      5  N   UNL     1      43.927   4.753   9.565  0.00  0.00    +0.000 N 
ATOM      6  N   UNL     1      45.679   4.615   8.049  0.00  0.00    +0.000 NA
ATOM      7  C   UNL     1      46.556   3.871   7.333  0.00  0.00    +0.000 A 
ATOM      8  H   UNL     1      44.072   5.736   9.346  0.00  0.00    +0.000 HD
ENDROOT
BRANCH   1  10
ATOM      9  N   UNL     1      48.799   2.424   6.275  0.00  0.00    +0.000 N 
ATOM     10  C   UNL     1      47.635   1.768   6.581  0.00  0.00    +0.000 C 
ATOM     11  O   UNL     1      47.422   0.637   6.197  0.00  0.00    +0.000 OA
ATOM     12  H   UNL     1      49.499   1.883   5.774  0.00  0.00    +0.000 HD
ATOM     13  H   UNL     1      49.111   3.244   6.773  0.00  0.00    +0.000 HD
ENDBRANCH   1  10
BRANCH   5  14
ATOM     14  C   UNL     1      43.491   4.404  10.910  0.00  0.00    +0.000 C 
BRANCH  14  15
ATOM     15  C   UNL     1      42.961   5.632  11.659  0.00  0.00    +0.000 C 
BRANCH  15  16
ATOM     16  C   UNL     1      44.048   6.663  11.858  0.00  0.00    +0.000 A 
ATOM     17  C   UNL     1      43.887   7.965  11.364  0.00  0.00    +0.000 A 
ATOM     18  C   UNL     1      44.864   8.925  11.595  0.00  0.00    +0.000 A 
ATOM     19  C   UNL     1      46.007   8.604  12.335  0.00  0.00    +0.000 A 
ATOM     20  C   UNL     1      46.198   7.309  12.826  0.00  0.00    +0.000 A 
ATOM     21  C   UNL     1      45.213   6.351  12.587  0.00  0.00    +0.000 A 
BRANCH  20  22
ATOM     22  O   UNL     1      47.266   6.876  13.584  0.00  0.00    +0.000 OA
BRANCH  22  23
ATOM     23  C   UNL     1      48.594   6.832  13.014  0.00  0.00    +0.000 C 
ATOM     24  C   UNL     1      49.584   7.959  13.377  0.00  0.00    +0.000 C 
ATOM     25  C   UNL     1      49.924   8.132  11.891  0.00  0.00    +0.000 C 
ATOM     26  C   UNL     1      48.707   7.269  11.529  0.00  0.00    +0.000 C 
ENDBRANCH  22  23
ENDBRANCH  20  22
ENDBRANCH  15  16
ENDBRANCH  14  15
ENDBRANCH   5  14
TORSDOF 6
ENDMDL
MODEL 6
REMARK VINA RESULT:    -7.333      2.674      7.799
REMARK INTER + INTRA:         -10.724
REMARK INTER:                 -10.281
REMARK INTRA:                  -0.443
REMARK UNBOUND:                -0.819
REMARK  Name = 
REMARK  6 active torsions:
REMARK  status: ('A' for Active; 'I' for Inactive)
REMARK    1  A    between atoms: C_2  and  C_4
REMARK    2  A    between atoms: N_8  and  C_9
REMARK    3  A    between atoms: C_9  and  C_10
REMARK    4  A    between atoms: C_10  and  C_11
REMARK    5  A    between atoms: C_15  and  O_16
REMARK    6  A    between atoms: O_16  and  C_17
REMARK                            x       y       z     vdW  Elec       q    Type
REMARK                         _______ _______ _______ _____ _____    ______ ____
ROOT
ATOM      1  C   UNL     1      47.329   6.179  13.533  0.00  0.00    +0.000 A 
ATOM      2  C   UNL     1      46.550   6.583  12.453  0.00  0.00    +0.000 A 
ATOM      3  C   UNL     1      45.434   5.823  12.104  0.00  0.00    +0.000 A 
ATOM      4  C   UNL     1      45.107   4.683  12.840  0.00  0.00    +0.000 A 
ATOM      5  N   UNL     1      43.946   3.964  12.611  0.00  0.00    +0.000 N 
ATOM      6  N   UNL     1      45.869   4.274  13.873  0.00  0.00    +0.000 NA
ATOM      7  C   UNL     1      46.958   5.014  14.189  0.00  0.00    +0.000 A 
ATOM      8  H   UNL     1      43.921   3.140  13.207  0.00  0.00    +0.000 HD
ENDROOT
BRANCH   1  10
ATOM      9  N   UNL     1      48.671   8.195  13.463  0.00  0.00    +0.000 N 
ATOM     10  C   UNL     1      48.516   6.933  13.976  0.00  0.00    +0.000 C 
ATOM     11  O   UNL     1      49.301   6.471  14.777  0.00  0.00    +0.000 OA
ATOM     12  H   UNL     1      49.435   8.744  13.848  0.00  0.00    +0.000 HD
ATOM     13  H   UNL     1      47.924   8.693  13.004  0.00  0.00    +0.000 HD
ENDBRANCH   1  10
BRANCH   5  14
ATOM     14  C   UNL     1      43.420   3.850  11.257  0.00  0.00    +0.000 C 
BRANCH  14  15
ATOM     15  C   UNL     1      43.939   2.585  10.563  0.00  0.00    +0.000 C 
BRANCH  15  16
ATOM     16  C   UNL     1      44.866   2.929   9.421  0.00  0.00    +0.000 A 
ATOM     17  C   UNL     1      45.089   4.267   9.068  0.00  0.00    +0.000 A 
ATOM     18  C   UNL     1      45.983   4.582   8.051  0.00  0.00    +0.000 A 
ATOM     19  C   UNL     1      46.678   3.568   7.385  0.00  0.00    +0.000 A 
ATOM     20  C   UNL     1      46.463   2.224   7.708  0.00  0.00    +0.000 A 
ATOM     21  C   UNL     1      45.562   1.918   8.728  0.00  0.00    +0.000 A 
BRANCH  20  22
ATOM     22  O   UNL     1      47.100   1.140   7.143  0.00  0.00    +0.000 OA
BRANCH  22  23
ATOM     23  C   UNL     1      47.547   1.192   5.769  0.00  0.00    +0.000 C 
ATOM     24  C   UNL     1      46.808   2.133   4.794  0.00  0.00    +0.000 C 
ATOM     25  C   UNL     1      46.703   0.989   3.776  0.00  0.00    +0.000 C 
ATOM     26  C   UNL     1      47.119  -0.002   4.873  0.00  0.00    +0.000 C 
ENDBRANCH  22  23
ENDBRANCH  20  22
ENDBRANCH  15  16
ENDBRANCH  14  15
ENDBRANCH   5  14
TORSDOF 6
ENDMDL
MODEL 7
REMARK VINA RESULT:    -7.189      3.250      8.373
REMARK INTER + INTRA:         -10.529
REMARK INTER:                  -9.986
REMARK INTRA:                  -0.544
REMARK UNBOUND:                -0.819
REMARK  Name = 
REMARK  6 active torsions:
REMARK  status: ('A' for Active; 'I' for Inactive)
REMARK    1  A    between atoms: C_2  and  C_4
REMARK    2  A    between atoms: N_8  and  C_9
REMARK    3  A    between atoms: C_9  and  C_10
REMARK    4  A    between atoms: C_10  and  C_11
REMARK    5  A    between atoms: C_15  and  O_16
REMARK    6  A    between atoms: O_16  and  C_17
REMARK                            x       y       z     vdW  Elec       q    Type
REMARK                         _______ _______ _______ _____ _____    ______ ____
ROOT
ATOM      1  C   UNL     1      48.442   4.541  16.919  0.00  0.00    +0.000 A 
ATOM      2  C   UNL     1      47.433   3.871  16.236  0.00  0.00    +0.000 A 
ATOM      3  C   UNL     1      46.970   4.396  15.030  0.00  0.00    +0.000 A 
ATOM      4  C   UNL     1      47.524   5.572  14.521  0.00  0.00    +0.000 A 
ATOM      5  N   UNL     1      47.185   6.068  13.273  0.00  0.00    +0.000 N 
ATOM      6  N   UNL     1      48.485   6.238  15.188  0.00  0.00    +0.000 NA
ATOM      7  C   UNL     1      48.913   5.723  16.366  0.00  0.00    +0.000 A 
ATOM      8  H   UNL     1      47.650   6.959  13.114  0.00  0.00    +0.000 HD
ENDROOT
BRANCH   1  10
ATOM      9  N   UNL     1      48.208   3.191  18.917  0.00  0.00    +0.000 N 
ATOM     10  C   UNL     1      48.997   4.047  18.192  0.00  0.00    +0.000 C 
ATOM     11  O   UNL     1      50.108   4.358  18.566  0.00  0.00    +0.000 OA
ATOM     12  H   UNL     1      48.636   2.777  19.741  0.00  0.00    +0.000 HD
ATOM     13  H   UNL     1      47.405   2.724  18.524  0.00  0.00    +0.000 HD
ENDBRANCH   1  10
BRANCH   5  14
ATOM     14  C   UNL     1      45.829   5.900  12.771  0.00  0.00    +0.000 C 
BRANCH  14  15
ATOM     15  C   UNL     1      45.747   6.208  11.272  0.00  0.00    +0.000 C 
BRANCH  15  16
ATOM     16  C   UNL     1      45.365   4.979  10.480  0.00  0.00    +0.000 A 
ATOM     17  C   UNL     1      44.622   3.954  11.080  0.00  0.00    +0.000 A 
ATOM     18  C   UNL     1      44.227   2.849  10.334  0.00  0.00    +0.000 A 
ATOM     19  C   UNL     1      44.555   2.762   8.977  0.00  0.00    +0.000 A 
ATOM     20  C   UNL     1      45.309   3.764   8.359  0.00  0.00    +0.000 A 
ATOM     21  C   UNL     1      45.703   4.867   9.116  0.00  0.00    +0.000 A 
BRANCH  20  22
ATOM     22  O   UNL     1      45.675   3.804   7.030  0.00  0.00    +0.000 OA
BRANCH  22  23
ATOM     23  C   UNL     1      46.908   3.185   6.596  0.00  0.00    +0.000 C 
ATOM     24  C   UNL     1      46.931   2.486   5.219  0.00  0.00    +0.000 C 
ATOM     25  C   UNL     1      47.587   1.256   5.861  0.00  0.00    +0.000 C 
ATOM     26  C   UNL     1      47.244   1.817   7.248  0.00  0.00    +0.000 C 
ENDBRANCH  22  23
ENDBRANCH  20  22
ENDBRANCH  15  16
ENDBRANCH  14  15
ENDBRANCH   5  14
TORSDOF 6
ENDMDL
MODEL 8
REMARK VINA RESULT:    -6.288      3.719      7.495
REMARK INTER + INTRA:          -9.312
REMARK INTER:                  -9.165
REMARK INTRA:                  -0.147
REMARK UNBOUND:                -0.819
REMARK  Name = 
REMARK  6 active torsions:
REMARK  status: ('A' for Active; 'I' for Inactive)
REMARK    1  A    between atoms: C_2  and  C_4
REMARK    2  A    between atoms: N_8  and  C_9
REMARK    3  A    between atoms: C_9  and  C_10
REMARK    4  A    between atoms: C_10  and  C_11
REMARK    5  A    between atoms: C_15  and  O_16
REMARK    6  A    between atoms: O_16  and  C_17
REMARK                            x       y       z     vdW  Elec       q    Type
REMARK                         _______ _______ _______ _____ _____    ______ ____
ROOT
ATOM      1  C   UNL     1      49.405   8.585  11.982  0.00  0.00    +0.000 A 
ATOM      2  C   UNL     1      48.113   9.095  12.062  0.00  0.00    +0.000 A 
ATOM      3  C   UNL     1      47.080   8.253  12.470  0.00  0.00    +0.000 A 
ATOM      4  C   UNL     1      47.350   6.923  12.799  0.00  0.00    +0.000 A 
ATOM      5  N   UNL     1      46.383   6.081  13.323  0.00  0.00    +0.000 N 
ATOM      6  N   UNL     1      48.594   6.417  12.703  0.00  0.00    +0.000 NA
ATOM      7  C   UNL     1      49.585   7.244  12.290  0.00  0.00    +0.000 A 
ATOM      8  H   UNL     1      46.761   5.144  13.439  0.00  0.00    +0.000 HD
ENDROOT
BRANCH   1  10
ATOM      9  N   UNL     1      50.301  10.730  11.302  0.00  0.00    +0.000 N 
ATOM     10  C   UNL     1      50.556   9.411  11.574  0.00  0.00    +0.000 C 
ATOM     11  O   UNL     1      51.677   8.954  11.511  0.00  0.00    +0.000 OA
ATOM     12  H   UNL     1      51.113  11.314  11.118  0.00  0.00    +0.000 HD
ATOM     13  H   UNL     1      49.449  11.192  11.582  0.00  0.00    +0.000 HD
ENDBRANCH   1  10
BRANCH   5  14
ATOM     14  C   UNL     1      44.997   6.216  12.895  0.00  0.00    +0.000 C 
BRANCH  14  15
ATOM     15  C   UNL     1      44.899   6.422  11.380  0.00  0.00    +0.000 C 
BRANCH  15  16
ATOM     16  C   UNL     1      44.823   5.100  10.651  0.00  0.00    +0.000 A 
ATOM     17  C   UNL     1      44.204   3.996  11.252  0.00  0.00    +0.000 A 
ATOM     18  C   UNL     1      44.089   2.797  10.559  0.00  0.00    +0.000 A 
ATOM     19  C   UNL     1      44.576   2.689   9.252  0.00  0.00    +0.000 A 
ATOM     20  C   UNL     1      45.211   3.772   8.635  0.00  0.00    +0.000 A 
ATOM     21  C   UNL     1      45.324   4.970   9.340  0.00  0.00    +0.000 A 
BRANCH  20  22
ATOM     22  O   UNL     1      45.710   3.798   7.350  0.00  0.00    +0.000 OA
BRANCH  22  23
ATOM     23  C   UNL     1      46.911   3.064   7.020  0.00  0.00    +0.000 C 
ATOM     24  C   UNL     1      47.102   2.588   5.564  0.00  0.00    +0.000 C 
ATOM     25  C   UNL     1      47.460   1.186   6.075  0.00  0.00    +0.000 C 
ATOM     26  C   UNL     1      46.938   1.576   7.464  0.00  0.00    +0.000 C 
ENDBRANCH  22  23
ENDBRANCH  20  22
ENDBRANCH  15  16
ENDBRANCH  14  15
ENDBRANCH   5  14
TORSDOF 6
ENDMDL
MODEL 9
REMARK VINA RESULT:    -6.248      4.246      8.744
REMARK INTER + INTRA:          -9.258
REMARK INTER:                  -8.690
REMARK INTRA:                  -0.569
REMARK UNBOUND:                -0.819
REMARK  Name = 
REMARK  6 active torsions:
REMARK  status: ('A' for Active; 'I' for Inactive)
REMARK    1  A    between atoms: C_2  and  C_4
REMARK    2  A    between atoms: N_8  and  C_9
REMARK    3  A    between atoms: C_9  and  C_10
REMARK    4  A    between atoms: C_10  and  C_11
REMARK    5  A    between atoms: C_15  and  O_16
REMARK    6  A    between atoms: O_16  and  C_17
REMARK                            x       y       z     vdW  Elec       q    Type
REMARK                         _______ _______ _______ _____ _____    ______ ____
ROOT
ATOM      1  C   UNL     1      50.576   4.512  18.079  0.00  0.00    +0.000 A 
ATOM      2  C   UNL     1      50.005   5.593  17.415  0.00  0.00    +0.000 A 
ATOM      3  C   UNL     1      48.837   5.392  16.680  0.00  0.00    +0.000 A 
ATOM      4  C   UNL     1      48.254   4.125  16.625  0.00  0.00    +0.000 A 
ATOM      5  N   UNL     1      47.034   3.899  16.010  0.00  0.00    +0.000 N 
ATOM      6  N   UNL     1      48.814   3.070  17.247  0.00  0.00    +0.000 NA
ATOM      7  C   UNL     1      49.957   3.278  17.945  0.00  0.00    +0.000 A 
ATOM      8  H   UNL     1      46.813   2.907  16.027  0.00  0.00    +0.000 HD
ENDROOT
BRANCH   1  10
ATOM      9  N   UNL     1      52.420   3.475  19.258  0.00  0.00    +0.000 N 
ATOM     10  C   UNL     1      51.801   4.641  18.889  0.00  0.00    +0.000 C 
ATOM     11  O   UNL     1      52.255   5.725  19.188  0.00  0.00    +0.000 OA
ATOM     12  H   UNL     1      53.316   3.574  19.730  0.00  0.00    +0.000 HD
ATOM     13  H   UNL     1      52.217   2.587  18.825  0.00  0.00    +0.000 HD
ENDBRANCH   1  10
BRANCH   5  14
ATOM     14  C   UNL     1      46.665   4.667  14.829  0.00  0.00    +0.000 C 
BRANCH  14  15
ATOM     15  C   UNL     1      46.710   3.801  13.566  0.00  0.00    +0.000 C 
BRANCH  15  16
ATOM     16  C   UNL     1      45.459   3.977  12.737  0.00  0.00    +0.000 A 
ATOM     17  C   UNL     1      44.533   4.980  13.056  0.00  0.00    +0.000 A 
ATOM     18  C   UNL     1      43.410   5.173  12.261  0.00  0.00    +0.000 A 
ATOM     19  C   UNL     1      43.204   4.379  11.128  0.00  0.00    +0.000 A 
ATOM     20  C   UNL     1      44.105   3.362  10.796  0.00  0.00    +0.000 A 
ATOM     21  C   UNL     1      45.227   3.174  11.601  0.00  0.00    +0.000 A 
BRANCH  20  22
ATOM     22  O   UNL     1      44.025   2.531   9.698  0.00  0.00    +0.000 OA
BRANCH  22  23
ATOM     23  C   UNL     1      44.580   2.945   8.429  0.00  0.00    +0.000 C 
ATOM     24  C   UNL     1      45.938   2.353   7.995  0.00  0.00    +0.000 C 
ATOM     25  C   UNL     1      46.440   3.764   7.658  0.00  0.00    +0.000 C 
ATOM     26  C   UNL     1      45.235   4.353   8.405  0.00  0.00    +0.000 C 
ENDBRANCH  22  23
ENDBRANCH  20  22
ENDBRANCH  15  16
ENDBRANCH  14  15
ENDBRANCH   5  14
TORSDOF 6
ENDMDL
