MODEL 1
REMARK VINA RESULT:    -8.141      0.000      0.000
REMARK INTER + INTRA:         -12.266
REMARK INTER:                 -11.234
REMARK INTRA:                  -1.032
REMARK UNBOUND:                -1.032
REMARK  Name = 
REMARK  7 active torsions:
REMARK  status: ('A' for Active; 'I' for Inactive)
REMARK    1  A    between atoms: N_1  and  S_2
REMARK    2  A    between atoms: S_2  and  C_5
REMARK    3  A    between atoms: C_8  and  O_9
REMARK    4  A    between atoms: O_9  and  C_10
REMARK    5  A    between atoms: C_10  and  C_11
REMARK    6  A    between atoms: C_11  and  C_12
REMARK    7  A    between atoms: C_16  and  C_17
REMARK                            x       y       z     vdW  Elec       q    Type
REMARK                         _______ _______ _______ _____ _____    ______ ____
ROOT
ATOM      1  C   UNL     1      43.461   5.012  10.797  0.00  0.00    +0.000 C 
ENDROOT
BRANCH   1   2
ATOM      2  O   UNL     1      43.801   3.631  10.626  0.00  0.00    +0.000 OA
BRANCH   2   6
ATOM      3  C   UNL     1      46.295   2.559   7.453  0.00  0.00    +0.000 A 
ATOM      4  C   UNL     1      45.950   3.902   7.591  0.00  0.00    +0.000 A 
ATOM      5  C   UNL     1      45.116   4.293   8.645  0.00  0.00    +0.000 A 
ATOM      6  C   UNL     1      44.625   3.352   9.560  0.00  0.00    +0.000 A 
ATOM      7  C   UNL     1      44.975   2.008   9.405  0.00  0.00    +0.000 A 
ATOM      8  C   UNL     1      45.803   1.606   8.351  0.00  0.00    +0.000 A 
BRANCH   3   9
ATOM      9  S   UNL     1      47.284   2.028   6.086  0.00  0.00    +0.000 S 
ATOM     10  O   UNL     1      46.897   2.759   4.904  0.00  0.00    +0.000 OA
ATOM     11  O   UNL     1      47.378   0.581   6.105  0.00  0.00    +0.000 OA
BRANCH   9  12
ATOM     12  N   UNL     1      48.816   2.582   6.513  0.00  0.00    +0.000 NA
ATOM     13  H   UNL     1      49.428   2.503   5.702  0.00  0.00    +0.000 HD
ATOM     14  H   UNL     1      49.160   2.077   7.325  0.00  0.00    +0.000 HD
ENDBRANCH   9  12
ENDBRANCH   3   9
ENDBRANCH   2   6
ENDBRANCH   1   2
BRANCH   1  15
ATOM     15  C   UNL     1      43.689   5.459  12.244  0.00  0.00    +0.000 C 
BRANCH  15  16
ATOM     16  C   UNL     1      45.164   5.652  12.533  0.00  0.00    +0.000 A 
ATOM     17  C   UNL     1      45.949   6.526  11.771  0.00  0.00    +0.000 A 
ATOM     18  C   UNL     1      47.282   6.760  12.107  0.00  0.00    +0.000 A 
ATOM     19  C   UNL     1      47.839   6.146  13.227  0.00  0.00    +0.000 A 
ATOM     20  C   UNL     1      47.081   5.278  14.028  0.00  0.00    +0.000 A 
ATOM     21  C   UNL     1      45.750   5.020  13.639  0.00  0.00    +0.000 A 
BRANCH  20  22
ATOM     22  C   UNL     1      47.644   4.712  15.265  0.00  0.00    +0.000 A 
ATOM     23  C   UNL     1      48.308   5.494  16.209  0.00  0.00    +0.000 A 
ATOM     24  C   UNL     1      48.875   4.888  17.322  0.00  0.00    +0.000 A 
ATOM     25  C   UNL     1      48.765   3.517  17.475  0.00  0.00    +0.000 A 
ATOM     26  C   UNL     1      48.088   2.801  16.502  0.00  0.00    +0.000 A 
ATOM     27  N   UNL     1      47.522   3.366  15.414  0.00  0.00    +0.000 NA
ENDBRANCH  20  22
ENDBRANCH  15  16
ENDBRANCH   1  15
TORSDOF 7
ENDMDL
MODEL 2
REMARK VINA RESULT:    -7.760      3.845      7.698
REMARK INTER + INTRA:         -11.741
REMARK INTER:                 -10.550
REMARK INTRA:                  -1.190
REMARK UNBOUND:                -1.032
REMARK  Name = 
REMARK  7 active torsions:
REMARK  status: ('A' for Active; 'I' for Inactive)
REMARK    1  A    between atoms: N_1  and  S_2
REMARK    2  A    between atoms: S_2  and  C_5
REMARK    3  A    between atoms: C_8  and  O_9
REMARK    4  A    between atoms: O_9  and  C_10
REMARK    5  A    between atoms: C_10  and  C_11
REMARK    6  A    between atoms: C_11  and  C_12
REMARK    7  A    between atoms: C_16  and  C_17
REMARK                            x       y       z     vdW  Elec       q    Type
REMARK                         _______ _______ _______ _____ _____    ______ ____
ROOT
ATOM      1  C   UNL     1      45.644   8.071  12.738  0.00  0.00    +0.000 C 
ENDROOT
BRANCH   1   2
ATOM      2  O   UNL     1      46.960   7.512  12.672  0.00  0.00    +0.000 OA
BRANCH   2   6
ATOM      3  C   UNL     1      47.795   4.696  15.640  0.00  0.00    +0.000 A 
ATOM      4  C   UNL     1      48.415   5.940  15.724  0.00  0.00    +0.000 A 
ATOM      5  C   UNL     1      48.156   6.905  14.745  0.00  0.00    +0.000 A 
ATOM      6  C   UNL     1      47.282   6.636  13.684  0.00  0.00    +0.000 A 
ATOM      7  C   UNL     1      46.671   5.381  13.609  0.00  0.00    +0.000 A 
ATOM      8  C   UNL     1      46.930   4.407  14.580  0.00  0.00    +0.000 A 
BRANCH   3   9
ATOM      9  S   UNL     1      48.165   3.431  16.822  0.00  0.00    +0.000 S 
ATOM     10  O   UNL     1      48.937   3.998  17.900  0.00  0.00    +0.000 OA
ATOM     11  O   UNL     1      48.580   2.234  16.118  0.00  0.00    +0.000 OA
BRANCH   9  12
ATOM     12  N   UNL     1      46.646   3.076  17.456  0.00  0.00    +0.000 NA
ATOM     13  H   UNL     1      46.063   2.698  16.710  0.00  0.00    +0.000 HD
ATOM     14  H   UNL     1      46.246   3.900  17.896  0.00  0.00    +0.000 HD
ENDBRANCH   9  12
ENDBRANCH   3   9
ENDBRANCH   2   6
ENDBRANCH   1   2
BRANCH   1  15
ATOM     15  C   UNL     1      44.902   7.887  11.411  0.00  0.00    +0.000 C 
BRANCH  15  16
ATOM     16  C   UNL     1      44.487   6.443  11.209  0.00  0.00    +0.000 A 
ATOM     17  C   UNL     1      43.350   5.917  11.831  0.00  0.00    +0.000 A 
ATOM     18  C   UNL     1      42.933   4.613  11.564  0.00  0.00    +0.000 A 
ATOM     19  C   UNL     1      43.631   3.830  10.648  0.00  0.00    +0.000 A 
ATOM     20  C   UNL     1      44.766   4.327   9.989  0.00  0.00    +0.000 A 
ATOM     21  C   UNL     1      45.196   5.631  10.313  0.00  0.00    +0.000 A 
BRANCH  20  22
ATOM     22  C   UNL     1      45.440   3.532   8.948  0.00  0.00    +0.000 A 
ATOM     23  C   UNL     1      45.564   2.146   9.031  0.00  0.00    +0.000 A 
ATOM     24  C   UNL     1      46.269   1.462   8.050  0.00  0.00    +0.000 A 
ATOM     25  C   UNL     1      46.834   2.173   7.005  0.00  0.00    +0.000 A 
ATOM     26  C   UNL     1      46.670   3.547   6.981  0.00  0.00    +0.000 A 
ATOM     27  N   UNL     1      45.982   4.235   7.918  0.00  0.00    +0.000 NA
ENDBRANCH  20  22
ENDBRANCH  15  16
ENDBRANCH   1  15
TORSDOF 7
ENDMDL
MODEL 3
REMARK VINA RESULT:    -7.749      2.267      3.944
REMARK INTER + INTRA:         -11.725
REMARK INTER:                 -10.657
REMARK INTRA:                  -1.068
REMARK UNBOUND:                -1.032
REMARK  Name = 
REMARK  7 active torsions:
REMARK  status: ('A' for Active; 'I' for Inactive)
REMARK    1  A    between atoms: N_1  and  S_2
REMARK    2  A    between atoms: S_2  and  C_5
REMARK    3  A    between atoms: C_8  and  O_9
REMARK    4  A    between atoms: O_9  and  C_10
REMARK    5  A    between atoms: C_10  and  C_11
REMARK    6  A    between atoms: C_11  and  C_12
REMARK    7  A    between atoms: C_16  and  C_17
REMARK                            x       y       z     vdW  Elec       q    Type
REMARK                         _______ _______ _______ _____ _____    ______ ____
ROOT
ATOM      1  C   UNL     1      43.501   3.423  11.626  0.00  0.00    +0.000 C 
ENDROOT
BRANCH   1   2
ATOM      2  O   UNL     1      43.632   4.229  10.449  0.00  0.00    +0.000 OA
BRANCH   2   6
ATOM      3  C   UNL     1      46.309   2.620   7.679  0.00  0.00    +0.000 A 
ATOM      4  C   UNL     1      46.203   4.007   7.758  0.00  0.00    +0.000 A 
ATOM      5  C   UNL     1      45.314   4.577   8.677  0.00  0.00    +0.000 A 
ATOM      6  C   UNL     1      44.533   3.771   9.516  0.00  0.00    +0.000 A 
ATOM      7  C   UNL     1      44.647   2.381   9.421  0.00  0.00    +0.000 A 
ATOM      8  C   UNL     1      45.528   1.802   8.500  0.00  0.00    +0.000 A 
BRANCH   3   9
ATOM      9  S   UNL     1      47.368   1.874   6.473  0.00  0.00    +0.000 S 
ATOM     10  O   UNL     1      46.789   2.040   5.162  0.00  0.00    +0.000 OA
ATOM     11  O   UNL     1      47.810   0.584   6.965  0.00  0.00    +0.000 OA
BRANCH   9  12
ATOM     12  N   UNL     1      48.728   2.864   6.526  0.00  0.00    +0.000 NA
ATOM     13  H   UNL     1      48.430   3.814   6.743  0.00  0.00    +0.000 HD
ATOM     14  H   UNL     1      49.248   2.798   5.655  0.00  0.00    +0.000 HD
ENDBRANCH   9  12
ENDBRANCH   3   9
ENDBRANCH   2   6
ENDBRANCH   1   2
BRANCH   1  15
ATOM     15  C   UNL     1      43.495   4.290  12.888  0.00  0.00    +0.000 C 
BRANCH  15  16
ATOM     16  C   UNL     1      44.809   5.026  13.056  0.00  0.00    +0.000 A 
ATOM     17  C   UNL     1      45.981   4.352  13.419  0.00  0.00    +0.000 A 
ATOM     18  C   UNL     1      47.199   5.029  13.481  0.00  0.00    +0.000 A 
ATOM     19  C   UNL     1      47.265   6.381  13.152  0.00  0.00    +0.000 A 
ATOM     20  C   UNL     1      46.116   7.088  12.765  0.00  0.00    +0.000 A 
ATOM     21  C   UNL     1      44.889   6.393  12.758  0.00  0.00    +0.000 A 
BRANCH  20  22
ATOM     22  C   UNL     1      46.209   8.490  12.323  0.00  0.00    +0.000 A 
ATOM     23  C   UNL     1      47.429   9.147  12.176  0.00  0.00    +0.000 A 
ATOM     24  C   UNL     1      47.445  10.489  11.821  0.00  0.00    +0.000 A 
ATOM     25  C   UNL     1      46.245  11.147  11.613  0.00  0.00    +0.000 A 
ATOM     26  C   UNL     1      45.069  10.433  11.770  0.00  0.00    +0.000 A 
ATOM     27  N   UNL     1      45.027   9.126  12.109  0.00  0.00    +0.000 NA
ENDBRANCH  20  22
ENDBRANCH  15  16
ENDBRANCH   1  15
TORSDOF 7
ENDMDL
MODEL 4
REMARK VINA RESULT:    -7.093      2.557      3.847
REMARK INTER + INTRA:         -10.820
REMARK INTER:                  -9.915
REMARK INTRA:                  -0.904
REMARK UNBOUND:                -1.032
REMARK  Name = 
REMARK  7 active torsions:
REMARK  status: ('A' for Active; 'I' for Inactive)
REMARK    1  A    between atoms: N_1  and  S_2
REMARK    2  A    between atoms: S_2  and  C_5
REMARK    3  A    between atoms: C_8  and  O_9
REMARK    4  A    between atoms: O_9  and  C_10
REMARK    5  A    between atoms: C_10  and  C_11
REMARK    6  A    between atoms: C_11  and  C_12
REMARK    7  A    between atoms: C_16  and  C_17
REMARK                            x       y       z     vdW  Elec       q    Type
REMARK                         _______ _______ _______ _____ _____    ______ ____
ROOT
ATOM      1  C   UNL     1      44.567   3.596  12.049  0.00  0.00    +0.000 C 
ENDROOT
BRANCH   1   2
ATOM      2  O   UNL     1      44.381   4.238  10.783  0.00  0.00    +0.000 OA
BRANCH   2   6
ATOM      3  C   UNL     1      46.327   2.623   7.460  0.00  0.00    +0.000 A 
ATOM      4  C   UNL     1      45.827   1.744   8.418  0.00  0.00    +0.000 A 
ATOM      5  C   UNL     1      45.169   2.254   9.543  0.00  0.00    +0.000 A 
ATOM      6  C   UNL     1      45.008   3.635   9.717  0.00  0.00    +0.000 A 
ATOM      7  C   UNL     1      45.520   4.505   8.749  0.00  0.00    +0.000 A 
ATOM      8  C   UNL     1      46.185   4.004   7.625  0.00  0.00    +0.000 A 
BRANCH   3   9
ATOM      9  S   UNL     1      47.229   2.007   6.068  0.00  0.00    +0.000 S 
ATOM     10  O   UNL     1      46.834   2.731   4.885  0.00  0.00    +0.000 OA
ATOM     11  O   UNL     1      47.245   0.558   6.119  0.00  0.00    +0.000 OA
BRANCH   9  12
ATOM     12  N   UNL     1      48.804   2.486   6.420  0.00  0.00    +0.000 NA
ATOM     13  H   UNL     1      49.166   3.019   5.630  0.00  0.00    +0.000 HD
ATOM     14  H   UNL     1      49.375   1.678   6.652  0.00  0.00    +0.000 HD
ENDBRANCH   9  12
ENDBRANCH   3   9
ENDBRANCH   2   6
ENDBRANCH   1   2
BRANCH   1  15
ATOM     15  C   UNL     1      45.748   4.209  12.808  0.00  0.00    +0.000 C 
BRANCH  15  16
ATOM     16  C   UNL     1      45.849   5.700  12.555  0.00  0.00    +0.000 A 
ATOM     17  C   UNL     1      44.762   6.553  12.778  0.00  0.00    +0.000 A 
ATOM     18  C   UNL     1      44.900   7.933  12.626  0.00  0.00    +0.000 A 
ATOM     19  C   UNL     1      46.133   8.478  12.277  0.00  0.00    +0.000 A 
ATOM     20  C   UNL     1      47.251   7.658  12.063  0.00  0.00    +0.000 A 
ATOM     21  C   UNL     1      47.074   6.263  12.175  0.00  0.00    +0.000 A 
BRANCH  20  22
ATOM     22  C   UNL     1      48.575   8.246  11.793  0.00  0.00    +0.000 A 
ATOM     23  C   UNL     1      48.759   9.615  11.606  0.00  0.00    +0.000 A 
ATOM     24  C   UNL     1      50.021  10.098  11.289  0.00  0.00    +0.000 A 
ATOM     25  C   UNL     1      51.075   9.209  11.169  0.00  0.00    +0.000 A 
ATOM     26  C   UNL     1      50.823   7.862  11.372  0.00  0.00    +0.000 A 
ATOM     27  N   UNL     1      49.607   7.368  11.688  0.00  0.00    +0.000 NA
ENDBRANCH  20  22
ENDBRANCH  15  16
ENDBRANCH   1  15
TORSDOF 7
ENDMDL
MODEL 5
REMARK VINA RESULT:    -6.935      3.257      5.344
REMARK INTER + INTRA:         -10.602
REMARK INTER:                  -9.920
REMARK INTRA:                  -0.682
REMARK UNBOUND:                -1.032
REMARK  Name = 
REMARK  7 active torsions:
REMARK  status: ('A' for Active; 'I' for Inactive)
REMARK    1  A    between atoms: N_1  and  S_2
REMARK    2  A    between atoms: S_2  and  C_5
REMARK    3  A    between atoms: C_8  and  O_9
REMARK    4  A    between atoms: O_9  and  C_10
REMARK    5  A    between atoms: C_10  and  C_11
REMARK    6  A    between atoms: C_11  and  C_12
REMARK    7  A    between atoms: C_16  and  C_17
REMARK                            x       y       z     vdW  Elec       q    Type
REMARK                         _______ _______ _______ _____ _____    ______ ____
ROOT
ATOM      1  C   UNL     1      44.072   4.693  11.586  0.00  0.00    +0.000 C 
ENDROOT
BRANCH   1   2
ATOM      2  O   UNL     1      43.634   4.535  10.231  0.00  0.00    +0.000 OA
BRANCH   2   6
ATOM      3  C   UNL     1      46.271   2.408   7.791  0.00  0.00    +0.000 A 
ATOM      4  C   UNL     1      46.169   3.785   7.603  0.00  0.00    +0.000 A 
ATOM      5  C   UNL     1      45.294   4.525   8.405  0.00  0.00    +0.000 A 
ATOM      6  C   UNL     1      44.521   3.901   9.393  0.00  0.00    +0.000 A 
ATOM      7  C   UNL     1      44.631   2.518   9.567  0.00  0.00    +0.000 A 
ATOM      8  C   UNL     1      45.498   1.768   8.765  0.00  0.00    +0.000 A 
BRANCH   3   9
ATOM      9  S   UNL     1      47.312   1.437   6.740  0.00  0.00    +0.000 S 
ATOM     10  O   UNL     1      46.991   0.042   6.907  0.00  0.00    +0.000 OA
ATOM     11  O   UNL     1      48.671   1.935   6.830  0.00  0.00    +0.000 OA
BRANCH   9  12
ATOM     12  N   UNL     1      46.776   1.872   5.203  0.00  0.00    +0.000 NA
ATOM     13  H   UNL     1      47.033   1.134   4.549  0.00  0.00    +0.000 HD
ATOM     14  H   UNL     1      47.146   2.782   4.945  0.00  0.00    +0.000 HD
ENDBRANCH   9  12
ENDBRANCH   3   9
ENDBRANCH   2   6
ENDBRANCH   1   2
BRANCH   1  15
ATOM     15  C   UNL     1      45.562   5.043  11.644  0.00  0.00    +0.000 C 
BRANCH  15  16
ATOM     16  C   UNL     1      45.770   6.486  12.059  0.00  0.00    +0.000 A 
ATOM     17  C   UNL     1      46.928   6.891  12.734  0.00  0.00    +0.000 A 
ATOM     18  C   UNL     1      47.144   8.237  13.029  0.00  0.00    +0.000 A 
ATOM     19  C   UNL     1      46.219   9.198  12.626  0.00  0.00    +0.000 A 
ATOM     20  C   UNL     1      45.055   8.835  11.932  0.00  0.00    +0.000 A 
ATOM     21  C   UNL     1      44.836   7.463  11.689  0.00  0.00    +0.000 A 
BRANCH  20  22
ATOM     22  C   UNL     1      44.132   9.863  11.422  0.00  0.00    +0.000 A 
ATOM     23  C   UNL     1      43.059   9.556  10.587  0.00  0.00    +0.000 A 
ATOM     24  C   UNL     1      42.267  10.579  10.087  0.00  0.00    +0.000 A 
ATOM     25  C   UNL     1      42.556  11.889  10.431  0.00  0.00    +0.000 A 
ATOM     26  C   UNL     1      43.634  12.124  11.269  0.00  0.00    +0.000 A 
ATOM     27  N   UNL     1      44.416  11.146  11.774  0.00  0.00    +0.000 NA
ENDBRANCH  20  22
ENDBRANCH  15  16
ENDBRANCH   1  15
TORSDOF 7
ENDMDL
MODEL 6
REMARK VINA RESULT:    -6.820      3.113      5.464
REMARK INTER + INTRA:         -10.443
REMARK INTER:                  -9.530
REMARK INTRA:                  -0.913
REMARK UNBOUND:                -1.032
REMARK  Name = 
REMARK  7 active torsions:
REMARK  status: ('A' for Active; 'I' for Inactive)
REMARK    1  A    between atoms: N_1  and  S_2
REMARK    2  A    between atoms: S_2  and  C_5
REMARK    3  A    between atoms: C_8  and  O_9
REMARK    4  A    between atoms: O_9  and  C_10
REMARK    5  A    between atoms: C_10  and  C_11
REMARK    6  A    between atoms: C_11  and  C_12
REMARK    7  A    between atoms: C_16  and  C_17
REMARK                            x       y       z     vdW  Elec       q    Type
REMARK                         _______ _______ _______ _____ _____    ______ ____
ROOT
ATOM      1  C   UNL     1      48.646   6.641  14.515  0.00  0.00    +0.000 C 
ENDROOT
BRANCH   1   2
ATOM      2  O   UNL     1      47.484   7.182  13.877  0.00  0.00    +0.000 OA
BRANCH   2   6
ATOM      3  C   UNL     1      45.172   4.592  11.556  0.00  0.00    +0.000 A 
ATOM      4  C   UNL     1      45.527   4.182  12.839  0.00  0.00    +0.000 A 
ATOM      5  C   UNL     1      46.301   5.028  13.642  0.00  0.00    +0.000 A 
ATOM      6  C   UNL     1      46.722   6.279  13.172  0.00  0.00    +0.000 A 
ATOM      7  C   UNL     1      46.363   6.674  11.879  0.00  0.00    +0.000 A 
ATOM      8  C   UNL     1      45.595   5.832  11.067  0.00  0.00    +0.000 A 
BRANCH   3   9
ATOM      9  S   UNL     1      44.260   3.510  10.493  0.00  0.00    +0.000 S 
ATOM     10  O   UNL     1      43.090   3.034  11.189  0.00  0.00    +0.000 OA
ATOM     11  O   UNL     1      45.183   2.613   9.827  0.00  0.00    +0.000 OA
BRANCH   9  12
ATOM     12  N   UNL     1      43.712   4.560   9.296  0.00  0.00    +0.000 NA
ATOM     13  H   UNL     1      44.324   4.476   8.486  0.00  0.00    +0.000 HD
ATOM     14  H   UNL     1      43.655   5.508   9.658  0.00  0.00    +0.000 HD
ENDBRANCH   9  12
ENDBRANCH   3   9
ENDBRANCH   2   6
ENDBRANCH   1   2
BRANCH   1  15
ATOM     15  C   UNL     1      48.533   6.743  16.040  0.00  0.00    +0.000 C 
BRANCH  15  16
ATOM     16  C   UNL     1      48.534   5.371  16.683  0.00  0.00    +0.000 A 
ATOM     17  C   UNL     1      47.345   4.663  16.895  0.00  0.00    +0.000 A 
ATOM     18  C   UNL     1      47.372   3.365  17.406  0.00  0.00    +0.000 A 
ATOM     19  C   UNL     1      48.590   2.748  17.683  0.00  0.00    +0.000 A 
ATOM     20  C   UNL     1      49.805   3.417  17.467  0.00  0.00    +0.000 A 
ATOM     21  C   UNL     1      49.749   4.746  16.997  0.00  0.00    +0.000 A 
BRANCH  20  22
ATOM     22  C   UNL     1      51.089   2.725  17.667  0.00  0.00    +0.000 A 
ATOM     23  C   UNL     1      52.229   3.384  18.125  0.00  0.00    +0.000 A 
ATOM     24  C   UNL     1      53.426   2.690  18.227  0.00  0.00    +0.000 A 
ATOM     25  C   UNL     1      53.463   1.351  17.876  0.00  0.00    +0.000 A 
ATOM     26  C   UNL     1      52.294   0.756  17.433  0.00  0.00    +0.000 A 
ATOM     27  N   UNL     1      51.115   1.408  17.330  0.00  0.00    +0.000 NA
ENDBRANCH  20  22
ENDBRANCH  15  16
ENDBRANCH   1  15
TORSDOF 7
ENDMDL
MODEL 7
REMARK VINA RESULT:    -6.676      4.603      7.932
REMARK INTER + INTRA:         -10.244
REMARK INTER:                  -9.104
REMARK INTRA:                  -1.140
REMARK UNBOUND:                -1.032
REMARK  Name = 
REMARK  7 active torsions:
REMARK  status: ('A' for Active; 'I' for Inactive)
REMARK    1  A    between atoms: N_1  and  S_2
REMARK    2  A    between atoms: S_2  and  C_5
REMARK    3  A    between atoms: C_8  and  O_9
REMARK    4  A    between atoms: O_9  and  C_10
REMARK    5  A    between atoms: C_10  and  C_11
REMARK    6  A    between atoms: C_11  and  C_12
REMARK    7  A    between atoms: C_16  and  C_17
REMARK                            x       y       z     vdW  Elec       q    Type
REMARK                         _______ _______ _______ _____ _____    ______ ____
ROOT
ATOM      1  C   UNL     1      49.625   7.704  13.113  0.00  0.00    +0.000 C 
ENDROOT
BRANCH   1   2
ATOM      2  O   UNL     1      48.967   7.938  14.364  0.00  0.00    +0.000 OA
BRANCH   2   6
ATOM      3  C   UNL     1      48.259   4.500  16.626  0.00  0.00    +0.000 A 
ATOM      4  C   UNL     1      49.283   5.353  17.032  0.00  0.00    +0.000 A 
ATOM      5  C   UNL     1      49.545   6.513  16.295  0.00  0.00    +0.000 A 
ATOM      6  C   UNL     1      48.791   6.827  15.156  0.00  0.00    +0.000 A 
ATOM      7  C   UNL     1      47.770   5.958  14.758  0.00  0.00    +0.000 A 
ATOM      8  C   UNL     1      47.506   4.792  15.484  0.00  0.00    +0.000 A 
BRANCH   3   9
ATOM      9  S   UNL     1      47.958   2.989  17.495  0.00  0.00    +0.000 S 
ATOM     10  O   UNL     1      48.882   1.982  17.035  0.00  0.00    +0.000 OA
ATOM     11  O   UNL     1      46.529   2.756  17.558  0.00  0.00    +0.000 OA
BRANCH   9  12
ATOM     12  N   UNL     1      48.419   3.380  19.067  0.00  0.00    +0.000 NA
ATOM     13  H   UNL     1      49.057   2.662  19.407  0.00  0.00    +0.000 HD
ATOM     14  H   UNL     1      47.600   3.498  19.656  0.00  0.00    +0.000 HD
ENDBRANCH   9  12
ENDBRANCH   3   9
ENDBRANCH   2   6
ENDBRANCH   1   2
BRANCH   1  15
ATOM     15  C   UNL     1      48.911   8.435  11.972  0.00  0.00    +0.000 C 
BRANCH  15  16
ATOM     16  C   UNL     1      47.447   8.050  11.904  0.00  0.00    +0.000 A 
ATOM     17  C   UNL     1      46.438   8.953  12.255  0.00  0.00    +0.000 A 
ATOM     18  C   UNL     1      45.094   8.612  12.100  0.00  0.00    +0.000 A 
ATOM     19  C   UNL     1      44.744   7.375  11.565  0.00  0.00    +0.000 A 
ATOM     20  C   UNL     1      45.726   6.448  11.183  0.00  0.00    +0.000 A 
ATOM     21  C   UNL     1      47.076   6.797  11.395  0.00  0.00    +0.000 A 
BRANCH  20  22
ATOM     22  C   UNL     1      45.352   5.184  10.526  0.00  0.00    +0.000 A 
ATOM     23  C   UNL     1      45.556   4.962   9.165  0.00  0.00    +0.000 A 
ATOM     24  C   UNL     1      45.120   3.774   8.593  0.00  0.00    +0.000 A 
ATOM     25  C   UNL     1      44.494   2.831   9.389  0.00  0.00    +0.000 A 
ATOM     26  C   UNL     1      44.327   3.114  10.735  0.00  0.00    +0.000 A 
ATOM     27  N   UNL     1      44.748   4.258  11.316  0.00  0.00    +0.000 NA
ENDBRANCH  20  22
ENDBRANCH  15  16
ENDBRANCH   1  15
TORSDOF 7
ENDMDL
MODEL 8
REMARK VINA RESULT:    -6.457      4.504      7.328
REMARK INTER + INTRA:          -9.942
REMARK INTER:                  -9.039
REMARK INTRA:                  -0.903
REMARK UNBOUND:                -1.032
REMARK  Name = 
REMARK  7 active torsions:
REMARK  status: ('A' for Active; 'I' for Inactive)
REMARK    1  A    between atoms: N_1  and  S_2
REMARK    2  A    between atoms: S_2  and  C_5
REMARK    3  A    between atoms: C_8  and  O_9
REMARK    4  A    between atoms: O_9  and  C_10
REMARK    5  A    between atoms: C_10  and  C_11
REMARK    6  A    between atoms: C_11  and  C_12
REMARK    7  A    between atoms: C_16  and  C_17
REMARK                            x       y       z     vdW  Elec       q    Type
REMARK                         _______ _______ _______ _____ _____    ______ ____
ROOT
ATOM      1  C   UNL     1      45.668   7.294  12.677  0.00  0.00    +0.000 C 
ENDROOT
BRANCH   1   2
ATOM      2  O   UNL     1      46.304   8.577  12.661  0.00  0.00    +0.000 OA
BRANCH   2   6
ATOM      3  C   UNL     1      50.285   8.364  11.422  0.00  0.00    +0.000 A 
ATOM      4  C   UNL     1      49.647   9.601  11.365  0.00  0.00    +0.000 A 
ATOM      5  C   UNL     1      48.312   9.705  11.774  0.00  0.00    +0.000 A 
ATOM      6  C   UNL     1      47.613   8.583  12.238  0.00  0.00    +0.000 A 
ATOM      7  C   UNL     1      48.266   7.347  12.284  0.00  0.00    +0.000 A 
ATOM      8  C   UNL     1      49.598   7.232  11.871  0.00  0.00    +0.000 A 
BRANCH   3   9
ATOM      9  S   UNL     1      51.947   8.190  10.839  0.00  0.00    +0.000 S 
ATOM     10  O   UNL     1      52.390   9.443  10.279  0.00  0.00    +0.000 OA
ATOM     11  O   UNL     1      52.067   6.936  10.121  0.00  0.00    +0.000 OA
BRANCH   9  12
ATOM     12  N   UNL     1      52.809   7.972  12.269  0.00  0.00    +0.000 NA
ATOM     13  H   UNL     1      53.370   7.126  12.184  0.00  0.00    +0.000 HD
ATOM     14  H   UNL     1      52.175   7.954  13.063  0.00  0.00    +0.000 HD
ENDBRANCH   9  12
ENDBRANCH   3   9
ENDBRANCH   2   6
ENDBRANCH   1   2
BRANCH   1  15
ATOM     15  C   UNL     1      44.706   7.143  11.495  0.00  0.00    +0.000 C 
BRANCH  15  16
ATOM     16  C   UNL     1      44.468   5.684  11.163  0.00  0.00    +0.000 A 
ATOM     17  C   UNL     1      43.413   4.967  11.739  0.00  0.00    +0.000 A 
ATOM     18  C   UNL     1      43.154   3.651  11.355  0.00  0.00    +0.000 A 
ATOM     19  C   UNL     1      43.929   3.046  10.368  0.00  0.00    +0.000 A 
ATOM     20  C   UNL     1      44.985   3.737   9.754  0.00  0.00    +0.000 A 
ATOM     21  C   UNL     1      45.257   5.048  10.195  0.00  0.00    +0.000 A 
BRANCH  20  22
ATOM     22  C   UNL     1      45.736   3.128   8.643  0.00  0.00    +0.000 A 
ATOM     23  C   UNL     1      46.115   3.850   7.513  0.00  0.00    +0.000 A 
ATOM     24  C   UNL     1      46.763   3.201   6.471  0.00  0.00    +0.000 A 
ATOM     25  C   UNL     1      47.024   1.845   6.577  0.00  0.00    +0.000 A 
ATOM     26  C   UNL     1      46.625   1.189   7.729  0.00  0.00    +0.000 A 
ATOM     27  N   UNL     1      45.999   1.799   8.760  0.00  0.00    +0.000 NA
ENDBRANCH  20  22
ENDBRANCH  15  16
ENDBRANCH   1  15
TORSDOF 7
ENDMDL
MODEL 9
REMARK VINA RESULT:    -6.208      3.804      5.409
REMARK INTER + INTRA:          -9.599
REMARK INTER:                  -8.340
REMARK INTRA:                  -1.258
REMARK UNBOUND:                -1.032
REMARK  Name = 
REMARK  7 active torsions:
REMARK  status: ('A' for Active; 'I' for Inactive)
REMARK    1  A    between atoms: N_1  and  S_2
REMARK    2  A    between atoms: S_2  and  C_5
REMARK    3  A    between atoms: C_8  and  O_9
REMARK    4  A    between atoms: O_9  and  C_10
REMARK    5  A    between atoms: C_10  and  C_11
REMARK    6  A    between atoms: C_11  and  C_12
REMARK    7  A    between atoms: C_16  and  C_17
REMARK                            x       y       z     vdW  Elec       q    Type
REMARK                         _______ _______ _______ _____ _____    ______ ____
ROOT
ATOM      1  C   UNL     1      48.417   8.466  13.188  0.00  0.00    +0.000 C 
ENDROOT
BRANCH   1   2
ATOM      2  O   UNL     1      47.019   8.722  13.011  0.00  0.00    +0.000 OA
BRANCH   2   6
ATOM      3  C   UNL     1      44.834   5.246  12.250  0.00  0.00    +0.000 A 
ATOM      4  C   UNL     1      44.358   6.447  11.728  0.00  0.00    +0.000 A 
ATOM      5  C   UNL     1      45.068   7.629  11.966  0.00  0.00    +0.000 A 
ATOM      6  C   UNL     1      46.249   7.620  12.720  0.00  0.00    +0.000 A 
ATOM      7  C   UNL     1      46.711   6.408  13.241  0.00  0.00    +0.000 A 
ATOM      8  C   UNL     1      46.004   5.222  13.015  0.00  0.00    +0.000 A 
BRANCH   3   9
ATOM      9  S   UNL     1      43.915   3.750  12.029  0.00  0.00    +0.000 S 
ATOM     10  O   UNL     1      42.875   3.969  11.054  0.00  0.00    +0.000 OA
ATOM     11  O   UNL     1      43.647   3.164  13.327  0.00  0.00    +0.000 OA
BRANCH   9  12
ATOM     12  N   UNL     1      45.046   2.737  11.303  0.00  0.00    +0.000 NA
ATOM     13  H   UNL     1      45.908   2.769  11.847  0.00  0.00    +0.000 HD
ATOM     14  H   UNL     1      45.179   2.995  10.330  0.00  0.00    +0.000 HD
ENDBRANCH   9  12
ENDBRANCH   3   9
ENDBRANCH   2   6
ENDBRANCH   1   2
BRANCH   1  15
ATOM     15  C   UNL     1      48.985   9.298  14.343  0.00  0.00    +0.000 C 
BRANCH  15  16
ATOM     16  C   UNL     1      48.839   8.574  15.666  0.00  0.00    +0.000 A 
ATOM     17  C   UNL     1      48.305   9.211  16.791  0.00  0.00    +0.000 A 
ATOM     18  C   UNL     1      48.094   8.503  17.975  0.00  0.00    +0.000 A 
ATOM     19  C   UNL     1      48.386   7.143  18.038  0.00  0.00    +0.000 A 
ATOM     20  C   UNL     1      48.906   6.463  16.926  0.00  0.00    +0.000 A 
ATOM     21  C   UNL     1      49.156   7.211  15.756  0.00  0.00    +0.000 A 
BRANCH  20  22
ATOM     22  C   UNL     1      49.119   5.006  16.967  0.00  0.00    +0.000 A 
ATOM     23  C   UNL     1      48.088   4.094  16.748  0.00  0.00    +0.000 A 
ATOM     24  C   UNL     1      48.340   2.735  16.868  0.00  0.00    +0.000 A 
ATOM     25  C   UNL     1      49.616   2.311  17.198  0.00  0.00    +0.000 A 
ATOM     26  C   UNL     1      50.595   3.269  17.397  0.00  0.00    +0.000 A 
ATOM     27  N   UNL     1      50.377   4.597  17.280  0.00  0.00    +0.000 NA
ENDBRANCH  20  22
ENDBRANCH  15  16
ENDBRANCH   1  15
TORSDOF 7
ENDMDL
