MODEL 1
REMARK VINA RESULT:    -7.861      0.000      0.000
REMARK INTER + INTRA:         -13.717
REMARK INTER:                 -11.997
REMARK INTRA:                  -1.720
REMARK UNBOUND:                -1.720
REMARK  Name = 
REMARK  10 active torsions:
REMARK  status: ('A' for Active; 'I' for Inactive)
REMARK    1  A    between atoms: C_1  and  C_2
REMARK    2  A    between atoms: C_2  and  C_3
REMARK    3  A    between atoms: C_3  and  C_4
REMARK    4  A    between atoms: C_4  and  N_5
REMARK    5  A    between atoms: C_4  and  C_13
REMARK    6  A    between atoms: N_5  and  C_6
REMARK    7  A    between atoms: C_6  and  C_7
REMARK    8  A    between atoms: C_16  and  C_17
REMARK    9  A    between atoms: C_17  and  N_18
REMARK   10  A    between atoms: C_19  and  C_21
REMARK                            x       y       z     vdW  Elec       q    Type
REMARK                         _______ _______ _______ _____ _____    ______ ____
ROOT
ATOM      1  C   UNL     1      45.699   6.298  11.420  0.00  0.00    +0.000 A 
ATOM      2  C   UNL     1      44.980   7.387  11.950  0.00  0.00    +0.000 A 
ATOM      3  C   UNL     1      45.574   8.276  12.852  0.00  0.00    +0.000 A 
ATOM      4  C   UNL     1      46.925   8.146  13.188  0.00  0.00    +0.000 A 
ATOM      5  C   UNL     1      47.656   7.089  12.637  0.00  0.00    +0.000 A 
ATOM      6  C   UNL     1      47.049   6.171  11.776  0.00  0.00    +0.000 A 
ENDROOT
BRANCH   1   7
ATOM      7  C   UNL     1      44.965   5.228  10.590  0.00  0.00    +0.000 C 
BRANCH   7   8
ATOM      8  N   UNL     1      45.325   5.308   9.149  0.00  0.00    +0.000 NA
ATOM      9  H   UNL     1      46.340   5.324   9.068  0.00  0.00    +0.000 HD
BRANCH   8  10
ATOM     10  C   UNL     1      44.823   4.134   8.419  0.00  0.00    +0.000 C 
BRANCH  10  11
ATOM     11  C   UNL     1      45.847   3.183   7.846  0.00  0.00    +0.000 A 
ATOM     12  C   UNL     1      45.905   1.876   8.372  0.00  0.00    +0.000 A 
ATOM     13  C   UNL     1      46.680   0.889   7.765  0.00  0.00    +0.000 A 
ATOM     14  C   UNL     1      47.411   1.197   6.623  0.00  0.00    +0.000 A 
ATOM     15  C   UNL     1      47.385   2.495   6.107  0.00  0.00    +0.000 A 
ATOM     16  C   UNL     1      46.606   3.485   6.715  0.00  0.00    +0.000 A 
ENDBRANCH  10  11
ENDBRANCH   8  10
ENDBRANCH   7   8
BRANCH   7  17
ATOM     17  C   UNL     1      43.430   5.317  10.808  0.00  0.00    +0.000 C 
BRANCH  17  19
ATOM     18  C   UNL     1      43.722   3.064  11.875  0.00  0.00    +0.000 C 
ATOM     19  C   UNL     1      42.823   4.296  11.774  0.00  0.00    +0.000 C 
ENDBRANCH  17  19
ENDBRANCH   7  17
ENDBRANCH   1   7
BRANCH   4  20
ATOM     20  C   UNL     1      47.582   9.091  14.159  0.00  0.00    +0.000 C 
BRANCH  20  21
ATOM     21  N   UNL     1      47.889   8.436  15.406  0.00  0.00    +0.000 N 
ATOM     22  C   UNL     1      49.190   8.199  15.769  0.00  0.00    +0.000 C 
ATOM     23  O   UNL     1      50.133   8.579  15.083  0.00  0.00    +0.000 OA
ATOM     24  H   UNL     1      47.137   7.928  15.863  0.00  0.00    +0.000 HD
BRANCH  22  25
ATOM     25  C   UNL     1      49.407   7.516  17.054  0.00  0.00    +0.000 A 
ATOM     26  C   UNL     1      50.032   8.196  18.090  0.00  0.00    +0.000 A 
ATOM     27  S   UNL     1      50.158   7.289  19.527  0.00  0.00    +0.000 S 
ATOM     28  C   UNL     1      49.431   5.935  18.800  0.00  0.00    +0.000 A 
ATOM     29  N   UNL     1      49.254   4.780  19.494  0.00  0.00    +0.000 NA
ATOM     30  C   UNL     1      48.718   3.821  18.812  0.00  0.00    +0.000 A 
ATOM     31  N   UNL     1      48.338   3.921  17.498  0.00  0.00    +0.000 N 
ATOM     32  C   UNL     1      48.467   5.076  16.766  0.00  0.00    +0.000 A 
ATOM     33  O   UNL     1      48.078   5.139  15.604  0.00  0.00    +0.000 OA
ATOM     34  C   UNL     1      49.080   6.180  17.481  0.00  0.00    +0.000 A 
ATOM     35  H   UNL     1      47.916   3.133  17.024  0.00  0.00    +0.000 HD
ENDBRANCH  22  25
ENDBRANCH  20  21
ENDBRANCH   4  20
TORSDOF 9
ENDMDL
MODEL 2
REMARK VINA RESULT:    -7.858      1.642      2.190
REMARK INTER + INTRA:         -13.712
REMARK INTER:                 -12.252
REMARK INTRA:                  -1.460
REMARK UNBOUND:                -1.720
REMARK  Name = 
REMARK  10 active torsions:
REMARK  status: ('A' for Active; 'I' for Inactive)
REMARK    1  A    between atoms: C_1  and  C_2
REMARK    2  A    between atoms: C_2  and  C_3
REMARK    3  A    between atoms: C_3  and  C_4
REMARK    4  A    between atoms: C_4  and  N_5
REMARK    5  A    between atoms: C_4  and  C_13
REMARK    6  A    between atoms: N_5  and  C_6
REMARK    7  A    between atoms: C_6  and  C_7
REMARK    8  A    between atoms: C_16  and  C_17
REMARK    9  A    between atoms: C_17  and  N_18
REMARK   10  A    between atoms: C_19  and  C_21
REMARK                            x       y       z     vdW  Elec       q    Type
REMARK                         _______ _______ _______ _____ _____    ______ ____
ROOT
ATOM      1  C   UNL     1      45.489   4.333  12.161  0.00  0.00    +0.000 A 
ATOM      2  C   UNL     1      45.969   5.458  11.463  0.00  0.00    +0.000 A 
ATOM      3  C   UNL     1      46.901   6.326  12.041  0.00  0.00    +0.000 A 
ATOM      4  C   UNL     1      47.438   6.050  13.302  0.00  0.00    +0.000 A 
ATOM      5  C   UNL     1      46.994   4.915  13.988  0.00  0.00    +0.000 A 
ATOM      6  C   UNL     1      46.025   4.075  13.431  0.00  0.00    +0.000 A 
ENDROOT
BRANCH   1   7
ATOM      7  C   UNL     1      44.322   3.513  11.582  0.00  0.00    +0.000 C 
BRANCH   7   8
ATOM      8  N   UNL     1      44.803   2.449  10.659  0.00  0.00    +0.000 NA
ATOM      9  H   UNL     1      44.348   1.573  10.908  0.00  0.00    +0.000 HD
BRANCH   8  10
ATOM     10  C   UNL     1      44.456   2.769   9.266  0.00  0.00    +0.000 C 
BRANCH  10  11
ATOM     11  C   UNL     1      45.497   2.490   8.209  0.00  0.00    +0.000 A 
ATOM     12  C   UNL     1      45.869   3.542   7.349  0.00  0.00    +0.000 A 
ATOM     13  C   UNL     1      46.957   3.419   6.486  0.00  0.00    +0.000 A 
ATOM     14  C   UNL     1      47.688   2.236   6.470  0.00  0.00    +0.000 A 
ATOM     15  C   UNL     1      47.314   1.174   7.297  0.00  0.00    +0.000 A 
ATOM     16  C   UNL     1      46.224   1.299   8.164  0.00  0.00    +0.000 A 
ENDBRANCH  10  11
ENDBRANCH   8  10
ENDBRANCH   7   8
BRANCH   7  17
ATOM     17  C   UNL     1      43.280   4.441  10.899  0.00  0.00    +0.000 C 
BRANCH  17  19
ATOM     18  C   UNL     1      42.719   6.814  11.492  0.00  0.00    +0.000 C 
ATOM     19  C   UNL     1      42.467   5.345  11.829  0.00  0.00    +0.000 C 
ENDBRANCH  17  19
ENDBRANCH   7  17
ENDBRANCH   1   7
BRANCH   4  20
ATOM     20  C   UNL     1      48.439   6.972  13.943  0.00  0.00    +0.000 C 
BRANCH  20  21
ATOM     21  N   UNL     1      48.195   7.115  15.357  0.00  0.00    +0.000 N 
ATOM     22  C   UNL     1      49.144   6.737  16.272  0.00  0.00    +0.000 C 
ATOM     23  O   UNL     1      50.245   6.317  15.928  0.00  0.00    +0.000 OA
ATOM     24  H   UNL     1      47.232   7.245  15.653  0.00  0.00    +0.000 HD
BRANCH  22  25
ATOM     25  C   UNL     1      48.803   6.909  17.692  0.00  0.00    +0.000 A 
ATOM     26  C   UNL     1      48.531   8.181  18.177  0.00  0.00    +0.000 A 
ATOM     27  S   UNL     1      48.098   8.208  19.826  0.00  0.00    +0.000 S 
ATOM     28  C   UNL     1      48.313   6.527  19.964  0.00  0.00    +0.000 A 
ATOM     29  N   UNL     1      48.122   5.893  21.152  0.00  0.00    +0.000 NA
ATOM     30  C   UNL     1      48.350   4.621  21.124  0.00  0.00    +0.000 A 
ATOM     31  N   UNL     1      48.746   3.927  20.010  0.00  0.00    +0.000 N 
ATOM     32  C   UNL     1      48.921   4.518  18.782  0.00  0.00    +0.000 A 
ATOM     33  O   UNL     1      49.236   3.857  17.797  0.00  0.00    +0.000 OA
ATOM     34  C   UNL     1      48.693   5.950  18.762  0.00  0.00    +0.000 A 
ATOM     35  H   UNL     1      48.901   2.928  20.054  0.00  0.00    +0.000 HD
ENDBRANCH  22  25
ENDBRANCH  20  21
ENDBRANCH   4  20
TORSDOF 9
ENDMDL
MODEL 3
REMARK VINA RESULT:    -7.807      1.811      2.408
REMARK INTER + INTRA:         -13.635
REMARK INTER:                 -12.068
REMARK INTRA:                  -1.567
REMARK UNBOUND:                -1.720
REMARK  Name = 
REMARK  10 active torsions:
REMARK  status: ('A' for Active; 'I' for Inactive)
REMARK    1  A    between atoms: C_1  and  C_2
REMARK    2  A    between atoms: C_2  and  C_3
REMARK    3  A    between atoms: C_3  and  C_4
REMARK    4  A    between atoms: C_4  and  N_5
REMARK    5  A    between atoms: C_4  and  C_13
REMARK    6  A    between atoms: N_5  and  C_6
REMARK    7  A    between atoms: C_6  and  C_7
REMARK    8  A    between atoms: C_16  and  C_17
REMARK    9  A    between atoms: C_17  and  N_18
REMARK   10  A    between atoms: C_19  and  C_21
REMARK                            x       y       z     vdW  Elec       q    Type
REMARK                         _______ _______ _______ _____ _____    ______ ____
ROOT
ATOM      1  C   UNL     1      45.974   5.583  11.759  0.00  0.00    +0.000 A 
ATOM      2  C   UNL     1      46.192   4.957  13.002  0.00  0.00    +0.000 A 
ATOM      3  C   UNL     1      47.167   5.427  13.888  0.00  0.00    +0.000 A 
ATOM      4  C   UNL     1      47.895   6.583  13.591  0.00  0.00    +0.000 A 
ATOM      5  C   UNL     1      47.659   7.233  12.375  0.00  0.00    +0.000 A 
ATOM      6  C   UNL     1      46.721   6.733  11.467  0.00  0.00    +0.000 A 
ENDROOT
BRANCH   1   7
ATOM      7  C   UNL     1      45.040   4.927  10.726  0.00  0.00    +0.000 C 
BRANCH   7   8
ATOM      8  N   UNL     1      45.462   5.233   9.332  0.00  0.00    +0.000 NA
ATOM      9  H   UNL     1      46.479   5.203   9.287  0.00  0.00    +0.000 HD
BRANCH   8  10
ATOM     10  C   UNL     1      44.929   4.233   8.394  0.00  0.00    +0.000 C 
BRANCH  10  11
ATOM     11  C   UNL     1      45.905   3.240   7.809  0.00  0.00    +0.000 A 
ATOM     12  C   UNL     1      45.959   1.951   8.376  0.00  0.00    +0.000 A 
ATOM     13  C   UNL     1      46.683   0.927   7.770  0.00  0.00    +0.000 A 
ATOM     14  C   UNL     1      47.369   1.179   6.586  0.00  0.00    +0.000 A 
ATOM     15  C   UNL     1      47.348   2.459   6.028  0.00  0.00    +0.000 A 
ATOM     16  C   UNL     1      46.618   3.487   6.635  0.00  0.00    +0.000 A 
ENDBRANCH  10  11
ENDBRANCH   8  10
ENDBRANCH   7   8
BRANCH   7  17
ATOM     17  C   UNL     1      43.562   5.329  10.983  0.00  0.00    +0.000 C 
BRANCH  17  19
ATOM     18  C   UNL     1      43.335   2.921  11.655  0.00  0.00    +0.000 C 
ATOM     19  C   UNL     1      42.707   4.312  11.743  0.00  0.00    +0.000 C 
ENDBRANCH  17  19
ENDBRANCH   7  17
ENDBRANCH   1   7
BRANCH   4  20
ATOM     20  C   UNL     1      48.949   7.104  14.530  0.00  0.00    +0.000 C 
BRANCH  20  21
ATOM     21  N   UNL     1      48.601   6.852  15.906  0.00  0.00    +0.000 N 
ATOM     22  C   UNL     1      49.463   6.177  16.733  0.00  0.00    +0.000 C 
ATOM     23  O   UNL     1      50.573   5.814  16.355  0.00  0.00    +0.000 OA
ATOM     24  H   UNL     1      47.623   6.943  16.164  0.00  0.00    +0.000 HD
BRANCH  22  25
ATOM     25  C   UNL     1      49.019   5.957  18.117  0.00  0.00    +0.000 A 
ATOM     26  C   UNL     1      49.175   4.703  18.691  0.00  0.00    +0.000 A 
ATOM     27  S   UNL     1      48.664   4.624  20.316  0.00  0.00    +0.000 S 
ATOM     28  C   UNL     1      48.165   6.249  20.294  0.00  0.00    +0.000 A 
ATOM     29  N   UNL     1      47.602   6.822  21.391  0.00  0.00    +0.000 NA
ATOM     30  C   UNL     1      47.240   8.052  21.226  0.00  0.00    +0.000 A 
ATOM     31  N   UNL     1      47.400   8.760  20.063  0.00  0.00    +0.000 N 
ATOM     32  C   UNL     1      47.993   8.235  18.941  0.00  0.00    +0.000 A 
ATOM     33  O   UNL     1      48.156   8.913  17.931  0.00  0.00    +0.000 OA
ATOM     34  C   UNL     1      48.403   6.849  19.066  0.00  0.00    +0.000 A 
ATOM     35  H   UNL     1      47.102   9.726  20.004  0.00  0.00    +0.000 HD
ENDBRANCH  22  25
ENDBRANCH  20  21
ENDBRANCH   4  20
TORSDOF 9
ENDMDL
MODEL 4
REMARK VINA RESULT:    -6.953      3.034      8.712
REMARK INTER + INTRA:         -12.331
REMARK INTER:                 -10.177
REMARK INTRA:                  -2.154
REMARK UNBOUND:                -1.720
REMARK  Name = 
REMARK  10 active torsions:
REMARK  status: ('A' for Active; 'I' for Inactive)
REMARK    1  A    between atoms: C_1  and  C_2
REMARK    2  A    between atoms: C_2  and  C_3
REMARK    3  A    between atoms: C_3  and  C_4
REMARK    4  A    between atoms: C_4  and  N_5
REMARK    5  A    between atoms: C_4  and  C_13
REMARK    6  A    between atoms: N_5  and  C_6
REMARK    7  A    between atoms: C_6  and  C_7
REMARK    8  A    between atoms: C_16  and  C_17
REMARK    9  A    between atoms: C_17  and  N_18
REMARK   10  A    between atoms: C_19  and  C_21
REMARK                            x       y       z     vdW  Elec       q    Type
REMARK                         _______ _______ _______ _____ _____    ______ ____
ROOT
ATOM      1  C   UNL     1      48.833   8.269  16.389  0.00  0.00    +0.000 A 
ATOM      2  C   UNL     1      49.039   7.047  15.720  0.00  0.00    +0.000 A 
ATOM      3  C   UNL     1      48.709   6.896  14.369  0.00  0.00    +0.000 A 
ATOM      4  C   UNL     1      48.238   7.984  13.629  0.00  0.00    +0.000 A 
ATOM      5  C   UNL     1      48.066   9.212  14.276  0.00  0.00    +0.000 A 
ATOM      6  C   UNL     1      48.347   9.349  15.639  0.00  0.00    +0.000 A 
ENDROOT
BRANCH   1   7
ATOM      7  C   UNL     1      49.016   8.347  17.915  0.00  0.00    +0.000 C 
BRANCH   7   8
ATOM      8  N   UNL     1      49.898   7.258  18.418  0.00  0.00    +0.000 NA
ATOM      9  H   UNL     1      50.597   7.666  19.037  0.00  0.00    +0.000 HD
BRANCH   8  10
ATOM     10  C   UNL     1      49.123   6.271  19.185  0.00  0.00    +0.000 C 
BRANCH  10  11
ATOM     11  C   UNL     1      48.860   4.935  18.532  0.00  0.00    +0.000 A 
ATOM     12  C   UNL     1      47.544   4.645  18.121  0.00  0.00    +0.000 A 
ATOM     13  C   UNL     1      47.263   3.527  17.339  0.00  0.00    +0.000 A 
ATOM     14  C   UNL     1      48.297   2.679  16.958  0.00  0.00    +0.000 A 
ATOM     15  C   UNL     1      49.603   2.938  17.381  0.00  0.00    +0.000 A 
ATOM     16  C   UNL     1      49.886   4.062  18.164  0.00  0.00    +0.000 A 
ENDBRANCH  10  11
ENDBRANCH   8  10
ENDBRANCH   7   8
BRANCH   7  17
ATOM     17  C   UNL     1      47.642   8.356  18.638  0.00  0.00    +0.000 C 
BRANCH  17  19
ATOM     18  C   UNL     1      47.340   9.076  21.023  0.00  0.00    +0.000 C 
ATOM     19  C   UNL     1      47.374   9.542  19.568  0.00  0.00    +0.000 C 
ENDBRANCH  17  19
ENDBRANCH   7  17
ENDBRANCH   1   7
BRANCH   4  20
ATOM     20  C   UNL     1      47.876   7.842  12.176  0.00  0.00    +0.000 C 
BRANCH  20  21
ATOM     21  N   UNL     1      47.142   6.626  11.932  0.00  0.00    +0.000 N 
ATOM     22  C   UNL     1      45.774   6.601  12.037  0.00  0.00    +0.000 C 
ATOM     23  O   UNL     1      45.126   7.613  12.287  0.00  0.00    +0.000 OA
ATOM     24  H   UNL     1      47.664   5.756  11.947  0.00  0.00    +0.000 HD
BRANCH  22  25
ATOM     25  C   UNL     1      45.112   5.314  11.781  0.00  0.00    +0.000 A 
ATOM     26  C   UNL     1      44.436   4.678  12.813  0.00  0.00    +0.000 A 
ATOM     27  S   UNL     1      43.675   3.227  12.343  0.00  0.00    +0.000 S 
ATOM     28  C   UNL     1      44.268   3.367  10.757  0.00  0.00    +0.000 A 
ATOM     29  N   UNL     1      43.997   2.418   9.822  0.00  0.00    +0.000 NA
ATOM     30  C   UNL     1      44.536   2.633   8.667  0.00  0.00    +0.000 A 
ATOM     31  N   UNL     1      45.316   3.719   8.363  0.00  0.00    +0.000 N 
ATOM     32  C   UNL     1      45.590   4.720   9.263  0.00  0.00    +0.000 A 
ATOM     33  O   UNL     1      46.259   5.697   8.943  0.00  0.00    +0.000 OA
ATOM     34  C   UNL     1      45.023   4.518  10.583  0.00  0.00    +0.000 A 
ATOM     35  H   UNL     1      45.701   3.832   7.435  0.00  0.00    +0.000 HD
ENDBRANCH  22  25
ENDBRANCH  20  21
ENDBRANCH   4  20
TORSDOF 9
ENDMDL
MODEL 5
REMARK VINA RESULT:    -6.916      3.796      9.412
REMARK INTER + INTRA:         -12.274
REMARK INTER:                  -9.388
REMARK INTRA:                  -2.886
REMARK UNBOUND:                -1.720
REMARK  Name = 
REMARK  10 active torsions:
REMARK  status: ('A' for Active; 'I' for Inactive)
REMARK    1  A    between atoms: C_1  and  C_2
REMARK    2  A    between atoms: C_2  and  C_3
REMARK    3  A    between atoms: C_3  and  C_4
REMARK    4  A    between atoms: C_4  and  N_5
REMARK    5  A    between atoms: C_4  and  C_13
REMARK    6  A    between atoms: N_5  and  C_6
REMARK    7  A    between atoms: C_6  and  C_7
REMARK    8  A    between atoms: C_16  and  C_17
REMARK    9  A    between atoms: C_17  and  N_18
REMARK   10  A    between atoms: C_19  and  C_21
REMARK                            x       y       z     vdW  Elec       q    Type
REMARK                         _______ _______ _______ _____ _____    ______ ____
ROOT
ATOM      1  C   UNL     1      49.473   5.365  19.614  0.00  0.00    +0.000 A 
ATOM      2  C   UNL     1      48.103   5.548  19.340  0.00  0.00    +0.000 A 
ATOM      3  C   UNL     1      47.495   4.924  18.245  0.00  0.00    +0.000 A 
ATOM      4  C   UNL     1      48.220   4.040  17.441  0.00  0.00    +0.000 A 
ATOM      5  C   UNL     1      49.572   3.824  17.729  0.00  0.00    +0.000 A 
ATOM      6  C   UNL     1      50.192   4.487  18.792  0.00  0.00    +0.000 A 
ENDROOT
BRANCH   1   7
ATOM      7  C   UNL     1      50.155   6.217  20.700  0.00  0.00    +0.000 C 
BRANCH   7   8
ATOM      8  N   UNL     1      49.961   7.672  20.459  0.00  0.00    +0.000 NA
ATOM      9  H   UNL     1      50.156   8.173  21.324  0.00  0.00    +0.000 HD
BRANCH   8  10
ATOM     10  C   UNL     1      50.889   8.158  19.426  0.00  0.00    +0.000 C 
BRANCH  10  11
ATOM     11  C   UNL     1      50.469   7.997  17.985  0.00  0.00    +0.000 A 
ATOM     12  C   UNL     1      51.343   7.321  17.110  0.00  0.00    +0.000 A 
ATOM     13  C   UNL     1      50.942   6.961  15.825  0.00  0.00    +0.000 A 
ATOM     14  C   UNL     1      49.658   7.276  15.395  0.00  0.00    +0.000 A 
ATOM     15  C   UNL     1      48.790   7.971  16.240  0.00  0.00    +0.000 A 
ATOM     16  C   UNL     1      49.192   8.330  17.531  0.00  0.00    +0.000 A 
ENDBRANCH  10  11
ENDBRANCH   8  10
ENDBRANCH   7   8
BRANCH   7  17
ATOM     17  C   UNL     1      51.658   5.848  20.829  0.00  0.00    +0.000 C 
BRANCH  17  19
ATOM     18  C   UNL     1      53.208   4.028  21.596  0.00  0.00    +0.000 C 
ATOM     19  C   UNL     1      52.030   4.920  21.988  0.00  0.00    +0.000 C 
ENDBRANCH  17  19
ENDBRANCH   7  17
ENDBRANCH   1   7
BRANCH   4  20
ATOM     20  C   UNL     1      47.585   3.361  16.258  0.00  0.00    +0.000 C 
BRANCH  20  21
ATOM     21  N   UNL     1      46.813   4.289  15.470  0.00  0.00    +0.000 N 
ATOM     22  C   UNL     1      46.919   4.303  14.102  0.00  0.00    +0.000 C 
ATOM     23  O   UNL     1      47.626   3.500  13.500  0.00  0.00    +0.000 OA
ATOM     24  H   UNL     1      46.408   5.086  15.952  0.00  0.00    +0.000 HD
BRANCH  22  25
ATOM     25  C   UNL     1      46.101   5.290  13.382  0.00  0.00    +0.000 A 
ATOM     26  C   UNL     1      46.540   6.604  13.293  0.00  0.00    +0.000 A 
ATOM     27  S   UNL     1      45.511   7.611  12.381  0.00  0.00    +0.000 S 
ATOM     28  C   UNL     1      44.412   6.340  12.119  0.00  0.00    +0.000 A 
ATOM     29  N   UNL     1      43.269   6.540  11.411  0.00  0.00    +0.000 NA
ATOM     30  C   UNL     1      42.509   5.498  11.315  0.00  0.00    +0.000 A 
ATOM     31  N   UNL     1      42.798   4.274  11.859  0.00  0.00    +0.000 N 
ATOM     32  C   UNL     1      43.954   4.015  12.553  0.00  0.00    +0.000 A 
ATOM     33  O   UNL     1      44.197   2.895  12.991  0.00  0.00    +0.000 OA
ATOM     34  C   UNL     1      44.836   5.157  12.706  0.00  0.00    +0.000 A 
ATOM     35  H   UNL     1      42.162   3.495  11.739  0.00  0.00    +0.000 HD
ENDBRANCH  22  25
ENDBRANCH  20  21
ENDBRANCH   4  20
TORSDOF 9
ENDMDL
MODEL 6
REMARK VINA RESULT:    -6.824      3.595      9.364
REMARK INTER + INTRA:         -12.135
REMARK INTER:                  -9.264
REMARK INTRA:                  -2.871
REMARK UNBOUND:                -1.720
REMARK  Name = 
REMARK  10 active torsions:
REMARK  status: ('A' for Active; 'I' for Inactive)
REMARK    1  A    between atoms: C_1  and  C_2
REMARK    2  A    between atoms: C_2  and  C_3
REMARK    3  A    between atoms: C_3  and  C_4
REMARK    4  A    between atoms: C_4  and  N_5
REMARK    5  A    between atoms: C_4  and  C_13
REMARK    6  A    between atoms: N_5  and  C_6
REMARK    7  A    between atoms: C_6  and  C_7
REMARK    8  A    between atoms: C_16  and  C_17
REMARK    9  A    between atoms: C_17  and  N_18
REMARK   10  A    between atoms: C_19  and  C_21
REMARK                            x       y       z     vdW  Elec       q    Type
REMARK                         _______ _______ _______ _____ _____    ______ ____
ROOT
ATOM      1  C   UNL     1      50.177   5.042  17.439  0.00  0.00    +0.000 A 
ATOM      2  C   UNL     1      48.843   4.907  17.005  0.00  0.00    +0.000 A 
ATOM      3  C   UNL     1      48.286   5.802  16.086  0.00  0.00    +0.000 A 
ATOM      4  C   UNL     1      49.070   6.810  15.516  0.00  0.00    +0.000 A 
ATOM      5  C   UNL     1      50.406   6.929  15.914  0.00  0.00    +0.000 A 
ATOM      6  C   UNL     1      50.947   6.066  16.871  0.00  0.00    +0.000 A 
ENDROOT
BRANCH   1   7
ATOM      7  C   UNL     1      50.697   4.168  18.594  0.00  0.00    +0.000 C 
BRANCH   7   8
ATOM      8  N   UNL     1      49.824   4.268  19.795  0.00  0.00    +0.000 NA
ATOM      9  H   UNL     1      50.027   3.482  20.411  0.00  0.00    +0.000 HD
BRANCH   8  10
ATOM     10  C   UNL     1      50.091   5.512  20.533  0.00  0.00    +0.000 C 
BRANCH  10  11
ATOM     11  C   UNL     1      49.359   6.755  20.086  0.00  0.00    +0.000 A 
ATOM     12  C   UNL     1      50.124   7.875  19.704  0.00  0.00    +0.000 A 
ATOM     13  C   UNL     1      49.532   8.979  19.096  0.00  0.00    +0.000 A 
ATOM     14  C   UNL     1      48.161   8.981  18.863  0.00  0.00    +0.000 A 
ATOM     15  C   UNL     1      47.385   7.890  19.262  0.00  0.00    +0.000 A 
ATOM     16  C   UNL     1      47.980   6.780  19.870  0.00  0.00    +0.000 A 
ENDBRANCH  10  11
ENDBRANCH   8  10
ENDBRANCH   7   8
BRANCH   7  17
ATOM     17  C   UNL     1      52.175   4.512  18.925  0.00  0.00    +0.000 C 
BRANCH  17  19
ATOM     18  C   UNL     1      52.580   2.217  17.992  0.00  0.00    +0.000 C 
ATOM     19  C   UNL     1      53.231   3.541  18.391  0.00  0.00    +0.000 C 
ENDBRANCH  17  19
ENDBRANCH   7  17
ENDBRANCH   1   7
BRANCH   4  20
ATOM     20  C   UNL     1      48.489   7.785  14.528  0.00  0.00    +0.000 C 
BRANCH  20  21
ATOM     21  N   UNL     1      47.224   7.325  14.014  0.00  0.00    +0.000 N 
ATOM     22  C   UNL     1      47.143   6.739  12.776  0.00  0.00    +0.000 C 
ATOM     23  O   UNL     1      48.140   6.537  12.089  0.00  0.00    +0.000 OA
ATOM     24  H   UNL     1      46.383   7.679  14.460  0.00  0.00    +0.000 HD
BRANCH  22  25
ATOM     25  C   UNL     1      45.810   6.309  12.330  0.00  0.00    +0.000 A 
ATOM     26  C   UNL     1      44.920   7.253  11.837  0.00  0.00    +0.000 A 
ATOM     27  S   UNL     1      43.440   6.591  11.310  0.00  0.00    +0.000 S 
ATOM     28  C   UNL     1      43.914   5.026  11.774  0.00  0.00    +0.000 A 
ATOM     29  N   UNL     1      43.077   3.966  11.614  0.00  0.00    +0.000 NA
ATOM     30  C   UNL     1      43.551   2.840  12.038  0.00  0.00    +0.000 A 
ATOM     31  N   UNL     1      44.791   2.682  12.601  0.00  0.00    +0.000 N 
ATOM     32  C   UNL     1      45.683   3.716  12.753  0.00  0.00    +0.000 A 
ATOM     33  O   UNL     1      46.801   3.528  13.223  0.00  0.00    +0.000 OA
ATOM     34  C   UNL     1      45.194   5.007  12.308  0.00  0.00    +0.000 A 
ATOM     35  H   UNL     1      45.106   1.770  12.905  0.00  0.00    +0.000 HD
ENDBRANCH  22  25
ENDBRANCH  20  21
ENDBRANCH   4  20
TORSDOF 9
ENDMDL
MODEL 7
REMARK VINA RESULT:    -6.547      3.415      8.494
REMARK INTER + INTRA:         -11.711
REMARK INTER:                 -10.003
REMARK INTRA:                  -1.708
REMARK UNBOUND:                -1.720
REMARK  Name = 
REMARK  10 active torsions:
REMARK  status: ('A' for Active; 'I' for Inactive)
REMARK    1  A    between atoms: C_1  and  C_2
REMARK    2  A    between atoms: C_2  and  C_3
REMARK    3  A    between atoms: C_3  and  C_4
REMARK    4  A    between atoms: C_4  and  N_5
REMARK    5  A    between atoms: C_4  and  C_13
REMARK    6  A    between atoms: N_5  and  C_6
REMARK    7  A    between atoms: C_6  and  C_7
REMARK    8  A    between atoms: C_16  and  C_17
REMARK    9  A    between atoms: C_17  and  N_18
REMARK   10  A    between atoms: C_19  and  C_21
REMARK                            x       y       z     vdW  Elec       q    Type
REMARK                         _______ _______ _______ _____ _____    ______ ____
ROOT
ATOM      1  C   UNL     1      48.771   7.527  16.421  0.00  0.00    +0.000 A 
ATOM      2  C   UNL     1      48.451   6.420  15.611  0.00  0.00    +0.000 A 
ATOM      3  C   UNL     1      48.301   6.555  14.226  0.00  0.00    +0.000 A 
ATOM      4  C   UNL     1      48.545   7.783  13.605  0.00  0.00    +0.000 A 
ATOM      5  C   UNL     1      48.900   8.879  14.398  0.00  0.00    +0.000 A 
ATOM      6  C   UNL     1      48.999   8.756  15.787  0.00  0.00    +0.000 A 
ENDROOT
BRANCH   1   7
ATOM      7  C   UNL     1      48.733   7.389  17.954  0.00  0.00    +0.000 C 
BRANCH   7   8
ATOM      8  N   UNL     1      47.902   6.230  18.380  0.00  0.00    +0.000 NA
ATOM      9  H   UNL     1      47.501   5.795  17.551  0.00  0.00    +0.000 HD
BRANCH   8  10
ATOM     10  C   UNL     1      48.723   5.227  19.075  0.00  0.00    +0.000 C 
BRANCH  10  11
ATOM     11  C   UNL     1      49.379   4.160  18.231  0.00  0.00    +0.000 A 
ATOM     12  C   UNL     1      50.778   4.013  18.316  0.00  0.00    +0.000 A 
ATOM     13  C   UNL     1      51.427   2.931  17.725  0.00  0.00    +0.000 A 
ATOM     14  C   UNL     1      50.683   1.979  17.036  0.00  0.00    +0.000 A 
ATOM     15  C   UNL     1      49.299   2.126  16.919  0.00  0.00    +0.000 A 
ATOM     16  C   UNL     1      48.648   3.211  17.515  0.00  0.00    +0.000 A 
ENDBRANCH  10  11
ENDBRANCH   8  10
ENDBRANCH   7   8
BRANCH   7  17
ATOM     17  C   UNL     1      48.260   8.712  18.616  0.00  0.00    +0.000 C 
BRANCH  17  19
ATOM     18  C   UNL     1      47.457   9.806  20.728  0.00  0.00    +0.000 C 
ATOM     19  C   UNL     1      47.347   8.569  19.837  0.00  0.00    +0.000 C 
ENDBRANCH  17  19
ENDBRANCH   7  17
ENDBRANCH   1   7
BRANCH   4  20
ATOM     20  C   UNL     1      48.387   7.951  12.118  0.00  0.00    +0.000 C 
BRANCH  20  21
ATOM     21  N   UNL     1      47.667   6.845  11.536  0.00  0.00    +0.000 N 
ATOM     22  C   UNL     1      46.305   6.899  11.386  0.00  0.00    +0.000 C 
ATOM     23  O   UNL     1      45.660   7.898  11.687  0.00  0.00    +0.000 OA
ATOM     24  H   UNL     1      48.144   5.950  11.493  0.00  0.00    +0.000 HD
BRANCH  22  25
ATOM     25  C   UNL     1      45.655   5.720  10.793  0.00  0.00    +0.000 A 
ATOM     26  C   UNL     1      45.758   5.501   9.426  0.00  0.00    +0.000 A 
ATOM     27  S   UNL     1      45.001   4.067   8.903  0.00  0.00    +0.000 S 
ATOM     28  C   UNL     1      44.461   3.715  10.476  0.00  0.00    +0.000 A 
ATOM     29  N   UNL     1      43.713   2.607  10.727  0.00  0.00    +0.000 NA
ATOM     30  C   UNL     1      43.343   2.478  11.959  0.00  0.00    +0.000 A 
ATOM     31  N   UNL     1      43.662   3.356  12.962  0.00  0.00    +0.000 N 
ATOM     32  C   UNL     1      44.441   4.470  12.764  0.00  0.00    +0.000 A 
ATOM     33  O   UNL     1      44.740   5.212  13.695  0.00  0.00    +0.000 OA
ATOM     34  C   UNL     1      44.869   4.672  11.392  0.00  0.00    +0.000 A 
ATOM     35  H   UNL     1      43.347   3.192  13.909  0.00  0.00    +0.000 HD
ENDBRANCH  22  25
ENDBRANCH  20  21
ENDBRANCH   4  20
TORSDOF 9
ENDMDL
MODEL 8
REMARK VINA RESULT:    -6.314      3.140      8.818
REMARK INTER + INTRA:         -11.356
REMARK INTER:                  -9.303
REMARK INTRA:                  -2.053
REMARK UNBOUND:                -1.720
REMARK  Name = 
REMARK  10 active torsions:
REMARK  status: ('A' for Active; 'I' for Inactive)
REMARK    1  A    between atoms: C_1  and  C_2
REMARK    2  A    between atoms: C_2  and  C_3
REMARK    3  A    between atoms: C_3  and  C_4
REMARK    4  A    between atoms: C_4  and  N_5
REMARK    5  A    between atoms: C_4  and  C_13
REMARK    6  A    between atoms: N_5  and  C_6
REMARK    7  A    between atoms: C_6  and  C_7
REMARK    8  A    between atoms: C_16  and  C_17
REMARK    9  A    between atoms: C_17  and  N_18
REMARK   10  A    between atoms: C_19  and  C_21
REMARK                            x       y       z     vdW  Elec       q    Type
REMARK                         _______ _______ _______ _____ _____    ______ ____
ROOT
ATOM      1  C   UNL     1      49.820   8.143  15.450  0.00  0.00    +0.000 A 
ATOM      2  C   UNL     1      48.440   8.424  15.399  0.00  0.00    +0.000 A 
ATOM      3  C   UNL     1      47.737   8.380  14.191  0.00  0.00    +0.000 A 
ATOM      4  C   UNL     1      48.375   7.976  13.015  0.00  0.00    +0.000 A 
ATOM      5  C   UNL     1      49.736   7.659  13.063  0.00  0.00    +0.000 A 
ATOM      6  C   UNL     1      50.451   7.753  14.261  0.00  0.00    +0.000 A 
ENDROOT
BRANCH   1   7
ATOM      7  C   UNL     1      50.604   8.393  16.751  0.00  0.00    +0.000 C 
BRANCH   7   8
ATOM      8  N   UNL     1      50.067   7.585  17.880  0.00  0.00    +0.000 NA
ATOM      9  H   UNL     1      49.063   7.478  17.754  0.00  0.00    +0.000 HD
BRANCH   8  10
ATOM     10  C   UNL     1      50.675   6.246  17.898  0.00  0.00    +0.000 C 
BRANCH  10  11
ATOM     11  C   UNL     1      49.756   5.064  17.703  0.00  0.00    +0.000 A 
ATOM     12  C   UNL     1      48.411   5.317  17.369  0.00  0.00    +0.000 A 
ATOM     13  C   UNL     1      47.558   4.286  16.981  0.00  0.00    +0.000 A 
ATOM     14  C   UNL     1      48.039   2.982  16.924  0.00  0.00    +0.000 A 
ATOM     15  C   UNL     1      49.363   2.712  17.279  0.00  0.00    +0.000 A 
ATOM     16  C   UNL     1      50.220   3.748  17.666  0.00  0.00    +0.000 A 
ENDBRANCH  10  11
ENDBRANCH   8  10
ENDBRANCH   7   8
BRANCH   7  17
ATOM     17  C   UNL     1      50.640   9.908  17.092  0.00  0.00    +0.000 C 
BRANCH  17  19
ATOM     18  C   UNL     1      50.781  12.221  16.128  0.00  0.00    +0.000 C 
ATOM     19  C   UNL     1      51.366  10.810  16.090  0.00  0.00    +0.000 C 
ENDBRANCH  17  19
ENDBRANCH   7  17
ENDBRANCH   1   7
BRANCH   4  20
ATOM     20  C   UNL     1      47.636   7.924  11.704  0.00  0.00    +0.000 C 
BRANCH  20  21
ATOM     21  N   UNL     1      46.958   6.664  11.532  0.00  0.00    +0.000 N 
ATOM     22  C   UNL     1      45.588   6.595  11.574  0.00  0.00    +0.000 C 
ATOM     23  O   UNL     1      44.894   7.599  11.705  0.00  0.00    +0.000 OA
ATOM     24  H   UNL     1      47.509   5.819  11.646  0.00  0.00    +0.000 HD
BRANCH  22  25
ATOM     25  C   UNL     1      44.984   5.266  11.398  0.00  0.00    +0.000 A 
ATOM     26  C   UNL     1      44.289   4.689  12.452  0.00  0.00    +0.000 A 
ATOM     27  S   UNL     1      43.602   3.176  12.073  0.00  0.00    +0.000 S 
ATOM     28  C   UNL     1      44.257   3.212  10.504  0.00  0.00    +0.000 A 
ATOM     29  N   UNL     1      44.060   2.180   9.641  0.00  0.00    +0.000 NA
ATOM     30  C   UNL     1      44.639   2.323   8.494  0.00  0.00    +0.000 A 
ATOM     31  N   UNL     1      45.392   3.410   8.134  0.00  0.00    +0.000 N 
ATOM     32  C   UNL     1      45.591   4.491   8.959  0.00  0.00    +0.000 A 
ATOM     33  O   UNL     1      46.237   5.465   8.586  0.00  0.00    +0.000 OA
ATOM     34  C   UNL     1      44.976   4.374  10.267  0.00  0.00    +0.000 A 
ATOM     35  H   UNL     1      45.812   3.464   7.215  0.00  0.00    +0.000 HD
ENDBRANCH  22  25
ENDBRANCH  20  21
ENDBRANCH   4  20
TORSDOF 9
ENDMDL
MODEL 9
REMARK VINA RESULT:    -6.105      4.017      6.679
REMARK INTER + INTRA:         -11.038
REMARK INTER:                  -9.534
REMARK INTRA:                  -1.504
REMARK UNBOUND:                -1.720
REMARK  Name = 
REMARK  10 active torsions:
REMARK  status: ('A' for Active; 'I' for Inactive)
REMARK    1  A    between atoms: C_1  and  C_2
REMARK    2  A    between atoms: C_2  and  C_3
REMARK    3  A    between atoms: C_3  and  C_4
REMARK    4  A    between atoms: C_4  and  N_5
REMARK    5  A    between atoms: C_4  and  C_13
REMARK    6  A    between atoms: N_5  and  C_6
REMARK    7  A    between atoms: C_6  and  C_7
REMARK    8  A    between atoms: C_16  and  C_17
REMARK    9  A    between atoms: C_17  and  N_18
REMARK   10  A    between atoms: C_19  and  C_21
REMARK                            x       y       z     vdW  Elec       q    Type
REMARK                         _______ _______ _______ _____ _____    ______ ____
ROOT
ATOM      1  C   UNL     1      44.527   9.789  11.494  0.00  0.00    +0.000 A 
ATOM      2  C   UNL     1      43.924   8.590  11.064  0.00  0.00    +0.000 A 
ATOM      3  C   UNL     1      44.419   7.346  11.466  0.00  0.00    +0.000 A 
ATOM      4  C   UNL     1      45.483   7.265  12.370  0.00  0.00    +0.000 A 
ATOM      5  C   UNL     1      46.064   8.450  12.831  0.00  0.00    +0.000 A 
ATOM      6  C   UNL     1      45.602   9.694  12.390  0.00  0.00    +0.000 A 
ENDROOT
BRANCH   1   7
ATOM      7  C   UNL     1      44.087  11.130  10.880  0.00  0.00    +0.000 C 
BRANCH   7   8
ATOM      8  N   UNL     1      43.142  11.857  11.770  0.00  0.00    +0.000 NA
ATOM      9  H   UNL     1      43.580  12.728  12.066  0.00  0.00    +0.000 HD
BRANCH   8  10
ATOM     10  C   UNL     1      41.900  12.187  11.054  0.00  0.00    +0.000 C 
BRANCH  10  11
ATOM     11  C   UNL     1      40.622  11.558  11.556  0.00  0.00    +0.000 A 
ATOM     12  C   UNL     1      39.867  12.263  12.515  0.00  0.00    +0.000 A 
ATOM     13  C   UNL     1      38.588  11.845  12.876  0.00  0.00    +0.000 A 
ATOM     14  C   UNL     1      38.045  10.710  12.282  0.00  0.00    +0.000 A 
ATOM     15  C   UNL     1      38.791   9.986  11.350  0.00  0.00    +0.000 A 
ATOM     16  C   UNL     1      40.075  10.407  10.986  0.00  0.00    +0.000 A 
ENDBRANCH  10  11
ENDBRANCH   8  10
ENDBRANCH   7   8
BRANCH   7  17
ATOM     17  C   UNL     1      43.496  10.920   9.459  0.00  0.00    +0.000 C 
BRANCH  17  19
ATOM     18  C   UNL     1      43.786  10.886   6.966  0.00  0.00    +0.000 C 
ATOM     19  C   UNL     1      44.368  11.383   8.289  0.00  0.00    +0.000 C 
ENDBRANCH  17  19
ENDBRANCH   7  17
ENDBRANCH   1   7
BRANCH   4  20
ATOM     20  C   UNL     1      46.032   5.936  12.812  0.00  0.00    +0.000 C 
BRANCH  20  21
ATOM     21  N   UNL     1      46.674   6.033  14.100  0.00  0.00    +0.000 N 
ATOM     22  C   UNL     1      48.042   6.059  14.199  0.00  0.00    +0.000 C 
ATOM     23  O   UNL     1      48.763   6.056  13.206  0.00  0.00    +0.000 OA
ATOM     24  H   UNL     1      46.113   5.814  14.917  0.00  0.00    +0.000 HD
BRANCH  22  25
ATOM     25  C   UNL     1      48.608   6.149  15.553  0.00  0.00    +0.000 A 
ATOM     26  C   UNL     1      49.518   7.155  15.845  0.00  0.00    +0.000 A 
ATOM     27  S   UNL     1      50.038   7.159  17.469  0.00  0.00    +0.000 S 
ATOM     28  C   UNL     1      49.107   5.782  17.826  0.00  0.00    +0.000 A 
ATOM     29  N   UNL     1      49.116   5.235  19.071  0.00  0.00    +0.000 NA
ATOM     30  C   UNL     1      48.389   4.173  19.195  0.00  0.00    +0.000 A 
ATOM     31  N   UNL     1      47.648   3.616  18.185  0.00  0.00    +0.000 N 
ATOM     32  C   UNL     1      47.581   4.151  16.922  0.00  0.00    +0.000 A 
ATOM     33  O   UNL     1      46.874   3.647  16.055  0.00  0.00    +0.000 OA
ATOM     34  C   UNL     1      48.394   5.336  16.723  0.00  0.00    +0.000 A 
ATOM     35  H   UNL     1      47.092   2.787  18.352  0.00  0.00    +0.000 HD
ENDBRANCH  22  25
ENDBRANCH  20  21
ENDBRANCH   4  20
TORSDOF 9
ENDMDL
