MODEL 1
REMARK VINA RESULT:    -7.535      0.000      0.000
REMARK INTER + INTRA:         -11.164
REMARK INTER:                 -10.398
REMARK INTRA:                  -0.766
REMARK UNBOUND:                -0.766
REMARK  Name = 
REMARK  8 active torsions:
REMARK  status: ('A' for Active; 'I' for Inactive)
REMARK    1  A    between atoms: C_1  and  C_2
REMARK    2  A    between atoms: C_2  and  C_3
REMARK    3  A    between atoms: C_2  and  O_12
REMARK    4  A    between atoms: C_3  and  C_4
REMARK    5  A    between atoms: C_8  and  C_9
REMARK    6  A    between atoms: C_9  and  N_10
REMARK    7  A    between atoms: O_12  and  C_13
REMARK    8  A    between atoms: C_16  and  C_17
REMARK                            x       y       z     vdW  Elec       q    Type
REMARK                         _______ _______ _______ _____ _____    ______ ____
ROOT
ATOM      1  C   UNL     1      42.570   5.407  11.859  0.00  0.00    +0.000 C 
ATOM      2  C   UNL     1      43.889   5.187  11.122  0.00  0.00    +0.000 C 
ENDROOT
BRANCH   2   3
ATOM      3  C   UNL     1      44.796   6.435  11.140  0.00  0.00    +0.000 C 
BRANCH   3   4
ATOM      4  C   UNL     1      46.043   6.362  11.991  0.00  0.00    +0.000 A 
ATOM      5  C   UNL     1      47.111   7.240  11.776  0.00  0.00    +0.000 A 
ATOM      6  C   UNL     1      48.225   7.216  12.616  0.00  0.00    +0.000 A 
ATOM      7  C   UNL     1      48.278   6.325  13.688  0.00  0.00    +0.000 A 
ATOM      8  C   UNL     1      47.222   5.435  13.922  0.00  0.00    +0.000 A 
ATOM      9  C   UNL     1      46.118   5.451  13.055  0.00  0.00    +0.000 A 
BRANCH   8  10
ATOM     10  C   UNL     1      47.262   4.473  15.082  0.00  0.00    +0.000 C 
BRANCH  10  11
ATOM     11  N   UNL     1      47.517   3.106  14.636  0.00  0.00    +0.000 NA
ATOM     12  H   UNL     1      48.508   2.903  14.757  0.00  0.00    +0.000 HD
ATOM     13  H   UNL     1      47.324   3.036  13.640  0.00  0.00    +0.000 HD
ENDBRANCH  10  11
ENDBRANCH   8  10
ENDBRANCH   3   4
ENDBRANCH   2   3
BRANCH   2  14
ATOM     14  O   UNL     1      43.603   4.747   9.784  0.00  0.00    +0.000 OA
BRANCH  14  15
ATOM     15  C   UNL     1      44.407   3.790   9.227  0.00  0.00    +0.000 A 
ATOM     16  C   UNL     1      45.349   4.241   8.304  0.00  0.00    +0.000 A 
ATOM     17  C   UNL     1      46.215   3.334   7.686  0.00  0.00    +0.000 A 
ATOM     18  C   UNL     1      46.102   1.991   8.023  0.00  0.00    +0.000 A 
ATOM     19  N   UNL     1      45.193   1.511   8.915  0.00  0.00    +0.000 NA
ATOM     20  C   UNL     1      44.374   2.424   9.489  0.00  0.00    +0.000 A 
BRANCH  18  21
ATOM     21  C   UNL     1      47.007   0.972   7.407  0.00  0.00    +0.000 C 
ATOM     22  N   UNL     1      47.863   1.461   6.455  0.00  0.00    +0.000 N 
ATOM     23  O   UNL     1      46.988  -0.212   7.718  0.00  0.00    +0.000 OA
ATOM     24  H   UNL     1      47.825   2.447   6.215  0.00  0.00    +0.000 HD
ATOM     25  H   UNL     1      48.486   0.835   5.969  0.00  0.00    +0.000 HD
ENDBRANCH  18  21
ENDBRANCH  14  15
ENDBRANCH   2  14
TORSDOF 7
ENDMDL
MODEL 2
REMARK VINA RESULT:    -7.000      2.260      6.274
REMARK INTER + INTRA:         -10.426
REMARK INTER:                  -9.475
REMARK INTRA:                  -0.951
REMARK UNBOUND:                -0.766
REMARK  Name = 
REMARK  8 active torsions:
REMARK  status: ('A' for Active; 'I' for Inactive)
REMARK    1  A    between atoms: C_1  and  C_2
REMARK    2  A    between atoms: C_2  and  C_3
REMARK    3  A    between atoms: C_2  and  O_12
REMARK    4  A    between atoms: C_3  and  C_4
REMARK    5  A    between atoms: C_8  and  C_9
REMARK    6  A    between atoms: C_9  and  N_10
REMARK    7  A    between atoms: O_12  and  C_13
REMARK    8  A    between atoms: C_16  and  C_17
REMARK                            x       y       z     vdW  Elec       q    Type
REMARK                         _______ _______ _______ _____ _____    ______ ____
ROOT
ATOM      1  C   UNL     1      42.476   4.930  11.796  0.00  0.00    +0.000 C 
ATOM      2  C   UNL     1      43.922   4.560  11.472  0.00  0.00    +0.000 C 
ENDROOT
BRANCH   2   3
ATOM      3  C   UNL     1      44.034   3.249  10.667  0.00  0.00    +0.000 C 
BRANCH   3   4
ATOM      4  C   UNL     1      44.919   3.271   9.442  0.00  0.00    +0.000 A 
ATOM      5  C   UNL     1      45.277   4.481   8.836  0.00  0.00    +0.000 A 
ATOM      6  C   UNL     1      46.157   4.496   7.753  0.00  0.00    +0.000 A 
ATOM      7  C   UNL     1      46.699   3.303   7.273  0.00  0.00    +0.000 A 
ATOM      8  C   UNL     1      46.354   2.080   7.861  0.00  0.00    +0.000 A 
ATOM      9  C   UNL     1      45.448   2.076   8.934  0.00  0.00    +0.000 A 
BRANCH   8  10
ATOM     10  C   UNL     1      46.940   0.785   7.358  0.00  0.00    +0.000 C 
BRANCH  10  11
ATOM     11  N   UNL     1      47.838   1.007   6.228  0.00  0.00    +0.000 NA
ATOM     12  H   UNL     1      47.449   0.545   5.407  0.00  0.00    +0.000 HD
ATOM     13  H   UNL     1      48.733   0.562   6.416  0.00  0.00    +0.000 HD
ENDBRANCH  10  11
ENDBRANCH   8  10
ENDBRANCH   3   4
ENDBRANCH   2   3
BRANCH   2  14
ATOM     14  O   UNL     1      44.671   4.508  12.697  0.00  0.00    +0.000 OA
BRANCH  14  15
ATOM     15  C   UNL     1      45.870   5.164  12.756  0.00  0.00    +0.000 A 
ATOM     16  C   UNL     1      46.051   6.198  11.838  0.00  0.00    +0.000 A 
ATOM     17  C   UNL     1      47.244   6.925  11.827  0.00  0.00    +0.000 A 
ATOM     18  C   UNL     1      48.224   6.583  12.749  0.00  0.00    +0.000 A 
ATOM     19  N   UNL     1      48.089   5.579  13.658  0.00  0.00    +0.000 NA
ATOM     20  C   UNL     1      46.917   4.901  13.633  0.00  0.00    +0.000 A 
BRANCH  18  21
ATOM     21  C   UNL     1      49.519   7.331  12.798  0.00  0.00    +0.000 C 
ATOM     22  N   UNL     1      50.126   7.352  14.027  0.00  0.00    +0.000 N 
ATOM     23  O   UNL     1      50.006   7.888  11.824  0.00  0.00    +0.000 OA
ATOM     24  H   UNL     1      49.672   6.893  14.812  0.00  0.00    +0.000 HD
ATOM     25  H   UNL     1      50.988   7.860  14.155  0.00  0.00    +0.000 HD
ENDBRANCH  18  21
ENDBRANCH  14  15
ENDBRANCH   2  14
TORSDOF 7
ENDMDL
MODEL 3
REMARK VINA RESULT:    -6.427      2.099      2.711
REMARK INTER + INTRA:          -9.635
REMARK INTER:                  -9.201
REMARK INTRA:                  -0.434
REMARK UNBOUND:                -0.766
REMARK  Name = 
REMARK  8 active torsions:
REMARK  status: ('A' for Active; 'I' for Inactive)
REMARK    1  A    between atoms: C_1  and  C_2
REMARK    2  A    between atoms: C_2  and  C_3
REMARK    3  A    between atoms: C_2  and  O_12
REMARK    4  A    between atoms: C_3  and  C_4
REMARK    5  A    between atoms: C_8  and  C_9
REMARK    6  A    between atoms: C_9  and  N_10
REMARK    7  A    between atoms: O_12  and  C_13
REMARK    8  A    between atoms: C_16  and  C_17
REMARK                            x       y       z     vdW  Elec       q    Type
REMARK                         _______ _______ _______ _____ _____    ______ ____
ROOT
ATOM      1  C   UNL     1      42.785   4.100  11.891  0.00  0.00    +0.000 C 
ATOM      2  C   UNL     1      44.226   3.778  11.500  0.00  0.00    +0.000 C 
ENDROOT
BRANCH   2   3
ATOM      3  C   UNL     1      45.243   4.195  12.581  0.00  0.00    +0.000 C 
BRANCH   3   4
ATOM      4  C   UNL     1      45.831   5.583  12.470  0.00  0.00    +0.000 A 
ATOM      5  C   UNL     1      47.209   5.792  12.593  0.00  0.00    +0.000 A 
ATOM      6  C   UNL     1      47.750   7.065  12.412  0.00  0.00    +0.000 A 
ATOM      7  C   UNL     1      46.921   8.141  12.091  0.00  0.00    +0.000 A 
ATOM      8  C   UNL     1      45.539   7.958  11.965  0.00  0.00    +0.000 A 
ATOM      9  C   UNL     1      45.004   6.677  12.175  0.00  0.00    +0.000 A 
BRANCH   8  10
ATOM     10  C   UNL     1      44.633   9.110  11.610  0.00  0.00    +0.000 C 
BRANCH  10  11
ATOM     11  N   UNL     1      43.422   8.651  10.935  0.00  0.00    +0.000 NA
ATOM     12  H   UNL     1      43.083   9.398  10.330  0.00  0.00    +0.000 HD
ATOM     13  H   UNL     1      42.696   8.482  11.626  0.00  0.00    +0.000 HD
ENDBRANCH  10  11
ENDBRANCH   8  10
ENDBRANCH   3   4
ENDBRANCH   2   3
BRANCH   2  14
ATOM     14  O   UNL     1      44.507   4.388  10.229  0.00  0.00    +0.000 OA
BRANCH  14  15
ATOM     15  C   UNL     1      45.220   3.672   9.306  0.00  0.00    +0.000 A 
ATOM     16  C   UNL     1      45.850   4.413   8.307  0.00  0.00    +0.000 A 
ATOM     17  C   UNL     1      46.602   3.765   7.323  0.00  0.00    +0.000 A 
ATOM     18  C   UNL     1      46.696   2.381   7.380  0.00  0.00    +0.000 A 
ATOM     19  N   UNL     1      46.093   1.621   8.335  0.00  0.00    +0.000 NA
ATOM     20  C   UNL     1      45.374   2.290   9.268  0.00  0.00    +0.000 A 
BRANCH  18  21
ATOM     21  C   UNL     1      47.496   1.628   6.364  0.00  0.00    +0.000 C 
ATOM     22  N   UNL     1      48.726   2.166   6.086  0.00  0.00    +0.000 N 
ATOM     23  O   UNL     1      47.092   0.613   5.814  0.00  0.00    +0.000 OA
ATOM     24  H   UNL     1      49.009   3.023   6.553  0.00  0.00    +0.000 HD
ATOM     25  H   UNL     1      49.317   1.738   5.391  0.00  0.00    +0.000 HD
ENDBRANCH  18  21
ENDBRANCH  14  15
ENDBRANCH   2  14
TORSDOF 7
ENDMDL
MODEL 4
REMARK VINA RESULT:    -6.400      2.673      6.804
REMARK INTER + INTRA:          -9.597
REMARK INTER:                  -8.902
REMARK INTRA:                  -0.696
REMARK UNBOUND:                -0.766
REMARK  Name = 
REMARK  8 active torsions:
REMARK  status: ('A' for Active; 'I' for Inactive)
REMARK    1  A    between atoms: C_1  and  C_2
REMARK    2  A    between atoms: C_2  and  C_3
REMARK    3  A    between atoms: C_2  and  O_12
REMARK    4  A    between atoms: C_3  and  C_4
REMARK    5  A    between atoms: C_8  and  C_9
REMARK    6  A    between atoms: C_9  and  N_10
REMARK    7  A    between atoms: O_12  and  C_13
REMARK    8  A    between atoms: C_16  and  C_17
REMARK                            x       y       z     vdW  Elec       q    Type
REMARK                         _______ _______ _______ _____ _____    ______ ____
ROOT
ATOM      1  C   UNL     1      47.833   7.686  11.628  0.00  0.00    +0.000 C 
ATOM      2  C   UNL     1      46.929   6.468  11.808  0.00  0.00    +0.000 C 
ENDROOT
BRANCH   2   3
ATOM      3  C   UNL     1      45.745   6.456  10.820  0.00  0.00    +0.000 C 
BRANCH   3   4
ATOM      4  C   UNL     1      45.371   5.123  10.216  0.00  0.00    +0.000 A 
ATOM      5  C   UNL     1      44.539   4.231  10.903  0.00  0.00    +0.000 A 
ATOM      6  C   UNL     1      44.137   3.035  10.305  0.00  0.00    +0.000 A 
ATOM      7  C   UNL     1      44.550   2.725   9.008  0.00  0.00    +0.000 A 
ATOM      8  C   UNL     1      45.384   3.601   8.302  0.00  0.00    +0.000 A 
ATOM      9  C   UNL     1      45.803   4.788   8.924  0.00  0.00    +0.000 A 
BRANCH   8  10
ATOM     10  C   UNL     1      45.830   3.282   6.897  0.00  0.00    +0.000 C 
BRANCH  10  11
ATOM     11  N   UNL     1      46.984   4.086   6.506  0.00  0.00    +0.000 NA
ATOM     12  H   UNL     1      47.151   4.789   7.225  0.00  0.00    +0.000 HD
ATOM     13  H   UNL     1      46.769   4.590   5.650  0.00  0.00    +0.000 HD
ENDBRANCH  10  11
ENDBRANCH   8  10
ENDBRANCH   3   4
ENDBRANCH   2   3
BRANCH   2  14
ATOM     14  O   UNL     1      46.492   6.416  13.176  0.00  0.00    +0.000 OA
BRANCH  14  15
ATOM     15  C   UNL     1      46.999   5.435  13.985  0.00  0.00    +0.000 A 
ATOM     16  C   UNL     1      47.684   5.868  15.120  0.00  0.00    +0.000 A 
ATOM     17  C   UNL     1      48.232   4.935  16.004  0.00  0.00    +0.000 A 
ATOM     18  C   UNL     1      48.071   3.587  15.714  0.00  0.00    +0.000 A 
ATOM     19  N   UNL     1      47.414   3.125  14.615  0.00  0.00    +0.000 NA
ATOM     20  C   UNL     1      46.898   4.062  13.785  0.00  0.00    +0.000 A 
BRANCH  18  21
ATOM     21  C   UNL     1      48.623   2.538  16.627  0.00  0.00    +0.000 C 
ATOM     22  N   UNL     1      48.288   2.689  17.947  0.00  0.00    +0.000 N 
ATOM     23  O   UNL     1      49.326   1.616  16.236  0.00  0.00    +0.000 OA
ATOM     24  H   UNL     1      47.720   3.484  18.226  0.00  0.00    +0.000 HD
ATOM     25  H   UNL     1      48.644   2.043  18.634  0.00  0.00    +0.000 HD
ENDBRANCH  18  21
ENDBRANCH  14  15
ENDBRANCH   2  14
TORSDOF 7
ENDMDL
MODEL 5
REMARK VINA RESULT:    -6.195      3.340      6.667
REMARK INTER + INTRA:          -9.314
REMARK INTER:                  -8.551
REMARK INTRA:                  -0.763
REMARK UNBOUND:                -0.766
REMARK  Name = 
REMARK  8 active torsions:
REMARK  status: ('A' for Active; 'I' for Inactive)
REMARK    1  A    between atoms: C_1  and  C_2
REMARK    2  A    between atoms: C_2  and  C_3
REMARK    3  A    between atoms: C_2  and  O_12
REMARK    4  A    between atoms: C_3  and  C_4
REMARK    5  A    between atoms: C_8  and  C_9
REMARK    6  A    between atoms: C_9  and  N_10
REMARK    7  A    between atoms: O_12  and  C_13
REMARK    8  A    between atoms: C_16  and  C_17
REMARK                            x       y       z     vdW  Elec       q    Type
REMARK                         _______ _______ _______ _____ _____    ______ ____
ROOT
ATOM      1  C   UNL     1      48.565   7.609  11.438  0.00  0.00    +0.000 C 
ATOM      2  C   UNL     1      47.427   6.747  11.981  0.00  0.00    +0.000 C 
ENDROOT
BRANCH   2   3
ATOM      3  C   UNL     1      46.113   6.932  11.194  0.00  0.00    +0.000 C 
BRANCH   3   4
ATOM      4  C   UNL     1      45.535   5.704  10.529  0.00  0.00    +0.000 A 
ATOM      5  C   UNL     1      45.865   5.380   9.208  0.00  0.00    +0.000 A 
ATOM      6  C   UNL     1      45.388   4.204   8.628  0.00  0.00    +0.000 A 
ATOM      7  C   UNL     1      44.587   3.331   9.367  0.00  0.00    +0.000 A 
ATOM      8  C   UNL     1      44.242   3.635  10.690  0.00  0.00    +0.000 A 
ATOM      9  C   UNL     1      44.707   4.834  11.254  0.00  0.00    +0.000 A 
BRANCH   8  10
ATOM     10  C   UNL     1      43.386   2.697  11.503  0.00  0.00    +0.000 C 
BRANCH  10  11
ATOM     11  N   UNL     1      43.818   2.649  12.897  0.00  0.00    +0.000 NA
ATOM     12  H   UNL     1      44.809   2.413  12.923  0.00  0.00    +0.000 HD
ATOM     13  H   UNL     1      43.326   1.898  13.376  0.00  0.00    +0.000 HD
ENDBRANCH  10  11
ENDBRANCH   8  10
ENDBRANCH   3   4
ENDBRANCH   2   3
BRANCH   2  14
ATOM     14  O   UNL     1      47.263   7.028  13.381  0.00  0.00    +0.000 OA
BRANCH  14  15
ATOM     15  C   UNL     1      47.438   6.007  14.275  0.00  0.00    +0.000 A 
ATOM     16  C   UNL     1      48.229   6.294  15.387  0.00  0.00    +0.000 A 
ATOM     17  C   UNL     1      48.461   5.312  16.354  0.00  0.00    +0.000 A 
ATOM     18  C   UNL     1      47.882   4.064  16.168  0.00  0.00    +0.000 A 
ATOM     19  N   UNL     1      47.108   3.743  15.096  0.00  0.00    +0.000 NA
ATOM     20  C   UNL     1      46.910   4.724  14.183  0.00  0.00    +0.000 A 
BRANCH  18  21
ATOM     21  C   UNL     1      48.080   2.973  17.173  0.00  0.00    +0.000 C 
ATOM     22  N   UNL     1      46.944   2.587  17.836  0.00  0.00    +0.000 N 
ATOM     23  O   UNL     1      49.169   2.462  17.397  0.00  0.00    +0.000 OA
ATOM     24  H   UNL     1      46.067   3.057  17.631  0.00  0.00    +0.000 HD
ATOM     25  H   UNL     1      46.995   1.879  18.552  0.00  0.00    +0.000 HD
ENDBRANCH  18  21
ENDBRANCH  14  15
ENDBRANCH   2  14
TORSDOF 7
ENDMDL
MODEL 6
REMARK VINA RESULT:    -6.179      3.770      5.685
REMARK INTER + INTRA:          -9.292
REMARK INTER:                  -8.525
REMARK INTRA:                  -0.768
REMARK UNBOUND:                -0.766
REMARK  Name = 
REMARK  8 active torsions:
REMARK  status: ('A' for Active; 'I' for Inactive)
REMARK    1  A    between atoms: C_1  and  C_2
REMARK    2  A    between atoms: C_2  and  C_3
REMARK    3  A    between atoms: C_2  and  O_12
REMARK    4  A    between atoms: C_3  and  C_4
REMARK    5  A    between atoms: C_8  and  C_9
REMARK    6  A    between atoms: C_9  and  N_10
REMARK    7  A    between atoms: O_12  and  C_13
REMARK    8  A    between atoms: C_16  and  C_17
REMARK                            x       y       z     vdW  Elec       q    Type
REMARK                         _______ _______ _______ _____ _____    ______ ____
ROOT
ATOM      1  C   UNL     1      49.995   7.782  13.448  0.00  0.00    +0.000 C 
ATOM      2  C   UNL     1      48.644   7.305  13.979  0.00  0.00    +0.000 C 
ENDROOT
BRANCH   2   3
ATOM      3  C   UNL     1      48.565   7.340  15.519  0.00  0.00    +0.000 C 
BRANCH   3   4
ATOM      4  C   UNL     1      49.159   6.166  16.261  0.00  0.00    +0.000 A 
ATOM      5  C   UNL     1      50.501   6.173  16.660  0.00  0.00    +0.000 A 
ATOM      6  C   UNL     1      51.020   5.118  17.412  0.00  0.00    +0.000 A 
ATOM      7  C   UNL     1      50.200   4.052  17.786  0.00  0.00    +0.000 A 
ATOM      8  C   UNL     1      48.855   4.023  17.398  0.00  0.00    +0.000 A 
ATOM      9  C   UNL     1      48.351   5.077  16.619  0.00  0.00    +0.000 A 
BRANCH   8  10
ATOM     10  C   UNL     1      47.956   2.882  17.804  0.00  0.00    +0.000 C 
BRANCH  10  11
ATOM     11  N   UNL     1      46.559   3.159  17.479  0.00  0.00    +0.000 NA
ATOM     12  H   UNL     1      46.443   4.166  17.376  0.00  0.00    +0.000 HD
ATOM     13  H   UNL     1      45.971   2.876  18.258  0.00  0.00    +0.000 HD
ENDBRANCH  10  11
ENDBRANCH   8  10
ENDBRANCH   3   4
ENDBRANCH   2   3
BRANCH   2  14
ATOM     14  O   UNL     1      48.378   5.995  13.453  0.00  0.00    +0.000 OA
BRANCH  14  15
ATOM     15  C   UNL     1      47.099   5.693  13.071  0.00  0.00    +0.000 A 
ATOM     16  C   UNL     1      46.556   6.487  12.062  0.00  0.00    +0.000 A 
ATOM     17  C   UNL     1      45.256   6.249  11.608  0.00  0.00    +0.000 A 
ATOM     18  C   UNL     1      44.541   5.210  12.188  0.00  0.00    +0.000 A 
ATOM     19  N   UNL     1      45.034   4.415  13.177  0.00  0.00    +0.000 NA
ATOM     20  C   UNL     1      46.297   4.681  13.588  0.00  0.00    +0.000 A 
BRANCH  18  21
ATOM     21  C   UNL     1      43.150   4.895  11.738  0.00  0.00    +0.000 C 
ATOM     22  N   UNL     1      42.280   5.953  11.772  0.00  0.00    +0.000 N 
ATOM     23  O   UNL     1      42.804   3.780  11.370  0.00  0.00    +0.000 OA
ATOM     24  H   UNL     1      42.609   6.854  12.107  0.00  0.00    +0.000 HD
ATOM     25  H   UNL     1      41.315   5.820  11.514  0.00  0.00    +0.000 HD
ENDBRANCH  18  21
ENDBRANCH  14  15
ENDBRANCH   2  14
TORSDOF 7
ENDMDL
MODEL 7
REMARK VINA RESULT:    -6.158      2.118      6.403
REMARK INTER + INTRA:          -9.264
REMARK INTER:                  -9.495
REMARK INTRA:                   0.231
REMARK UNBOUND:                -0.766
REMARK  Name = 
REMARK  8 active torsions:
REMARK  status: ('A' for Active; 'I' for Inactive)
REMARK    1  A    between atoms: C_1  and  C_2
REMARK    2  A    between atoms: C_2  and  C_3
REMARK    3  A    between atoms: C_2  and  O_12
REMARK    4  A    between atoms: C_3  and  C_4
REMARK    5  A    between atoms: C_8  and  C_9
REMARK    6  A    between atoms: C_9  and  N_10
REMARK    7  A    between atoms: O_12  and  C_13
REMARK    8  A    between atoms: C_16  and  C_17
REMARK                            x       y       z     vdW  Elec       q    Type
REMARK                         _______ _______ _______ _____ _____    ______ ____
ROOT
ATOM      1  C   UNL     1      43.076   5.348  11.622  0.00  0.00    +0.000 C 
ATOM      2  C   UNL     1      44.081   5.109  10.497  0.00  0.00    +0.000 C 
ENDROOT
BRANCH   2   3
ATOM      3  C   UNL     1      44.149   3.630  10.064  0.00  0.00    +0.000 C 
BRANCH   3   4
ATOM      4  C   UNL     1      45.114   3.285   8.954  0.00  0.00    +0.000 A 
ATOM      5  C   UNL     1      45.685   4.288   8.161  0.00  0.00    +0.000 A 
ATOM      6  C   UNL     1      46.633   3.966   7.189  0.00  0.00    +0.000 A 
ATOM      7  C   UNL     1      47.032   2.640   7.009  0.00  0.00    +0.000 A 
ATOM      8  C   UNL     1      46.473   1.620   7.788  0.00  0.00    +0.000 A 
ATOM      9  C   UNL     1      45.500   1.954   8.745  0.00  0.00    +0.000 A 
BRANCH   8  10
ATOM     10  C   UNL     1      46.901   0.185   7.610  0.00  0.00    +0.000 C 
BRANCH  10  11
ATOM     11  N   UNL     1      46.991  -0.175   6.198  0.00  0.00    +0.000 NA
ATOM     12  H   UNL     1      47.056   0.679   5.646  0.00  0.00    +0.000 HD
ATOM     13  H   UNL     1      46.134  -0.642   5.914  0.00  0.00    +0.000 HD
ENDBRANCH  10  11
ENDBRANCH   8  10
ENDBRANCH   3   4
ENDBRANCH   2   3
BRANCH   2  14
ATOM     14  O   UNL     1      45.363   5.612  10.908  0.00  0.00    +0.000 OA
BRANCH  14  15
ATOM     15  C   UNL     1      45.881   5.178  12.098  0.00  0.00    +0.000 A 
ATOM     16  C   UNL     1      46.550   6.134  12.862  0.00  0.00    +0.000 A 
ATOM     17  C   UNL     1      47.109   5.781  14.093  0.00  0.00    +0.000 A 
ATOM     18  C   UNL     1      46.973   4.467  14.519  0.00  0.00    +0.000 A 
ATOM     19  N   UNL     1      46.332   3.503  13.802  0.00  0.00    +0.000 NA
ATOM     20  C   UNL     1      45.806   3.889  12.615  0.00  0.00    +0.000 A 
BRANCH  18  21
ATOM     21  C   UNL     1      47.538   4.028  15.833  0.00  0.00    +0.000 C 
ATOM     22  N   UNL     1      47.256   4.858  16.887  0.00  0.00    +0.000 N 
ATOM     23  O   UNL     1      48.205   3.011  15.967  0.00  0.00    +0.000 OA
ATOM     24  H   UNL     1      46.716   5.703  16.721  0.00  0.00    +0.000 HD
ATOM     25  H   UNL     1      47.624   4.652  17.802  0.00  0.00    +0.000 HD
ENDBRANCH  18  21
ENDBRANCH  14  15
ENDBRANCH   2  14
TORSDOF 7
ENDMDL
MODEL 8
REMARK VINA RESULT:    -5.993      3.457      5.816
REMARK INTER + INTRA:          -9.036
REMARK INTER:                  -8.051
REMARK INTRA:                  -0.984
REMARK UNBOUND:                -0.766
REMARK  Name = 
REMARK  8 active torsions:
REMARK  status: ('A' for Active; 'I' for Inactive)
REMARK    1  A    between atoms: C_1  and  C_2
REMARK    2  A    between atoms: C_2  and  C_3
REMARK    3  A    between atoms: C_2  and  O_12
REMARK    4  A    between atoms: C_3  and  C_4
REMARK    5  A    between atoms: C_8  and  C_9
REMARK    6  A    between atoms: C_9  and  N_10
REMARK    7  A    between atoms: O_12  and  C_13
REMARK    8  A    between atoms: C_16  and  C_17
REMARK                            x       y       z     vdW  Elec       q    Type
REMARK                         _______ _______ _______ _____ _____    ______ ____
ROOT
ATOM      1  C   UNL     1      49.862   7.681  11.678  0.00  0.00    +0.000 C 
ATOM      2  C   UNL     1      48.418   7.864  12.141  0.00  0.00    +0.000 C 
ENDROOT
BRANCH   2   3
ATOM      3  C   UNL     1      48.147   9.279  12.694  0.00  0.00    +0.000 C 
BRANCH   3   4
ATOM      4  C   UNL     1      47.168  10.137  11.927  0.00  0.00    +0.000 A 
ATOM      5  C   UNL     1      47.603  11.257  11.209  0.00  0.00    +0.000 A 
ATOM      6  C   UNL     1      46.704  11.998  10.442  0.00  0.00    +0.000 A 
ATOM      7  C   UNL     1      45.362  11.620  10.372  0.00  0.00    +0.000 A 
ATOM      8  C   UNL     1      44.903  10.505  11.082  0.00  0.00    +0.000 A 
ATOM      9  C   UNL     1      45.812   9.782  11.872  0.00  0.00    +0.000 A 
BRANCH   8  10
ATOM     10  C   UNL     1      43.458  10.080  11.008  0.00  0.00    +0.000 C 
BRANCH  10  11
ATOM     11  N   UNL     1      43.329   8.627  10.941  0.00  0.00    +0.000 NA
ATOM     12  H   UNL     1      44.239   8.230  10.709  0.00  0.00    +0.000 HD
ATOM     13  H   UNL     1      42.700   8.379  10.182  0.00  0.00    +0.000 HD
ENDBRANCH  10  11
ENDBRANCH   8  10
ENDBRANCH   3   4
ENDBRANCH   2   3
BRANCH   2  14
ATOM     14  O   UNL     1      48.107   6.840  13.100  0.00  0.00    +0.000 OA
BRANCH  14  15
ATOM     15  C   UNL     1      47.059   6.000  12.839  0.00  0.00    +0.000 A 
ATOM     16  C   UNL     1      46.404   6.194  11.623  0.00  0.00    +0.000 A 
ATOM     17  C   UNL     1      45.323   5.381  11.272  0.00  0.00    +0.000 A 
ATOM     18  C   UNL     1      44.935   4.390  12.164  0.00  0.00    +0.000 A 
ATOM     19  N   UNL     1      45.544   4.172  13.362  0.00  0.00    +0.000 NA
ATOM     20  C   UNL     1      46.586   4.983  13.662  0.00  0.00    +0.000 A 
BRANCH  18  21
ATOM     21  C   UNL     1      43.794   3.478  11.842  0.00  0.00    +0.000 C 
ATOM     22  N   UNL     1      43.785   2.298  12.541  0.00  0.00    +0.000 N 
ATOM     23  O   UNL     1      42.933   3.751  11.017  0.00  0.00    +0.000 OA
ATOM     24  H   UNL     1      44.534   2.107  13.199  0.00  0.00    +0.000 HD
ATOM     25  H   UNL     1      43.067   1.613  12.362  0.00  0.00    +0.000 HD
ENDBRANCH  18  21
ENDBRANCH  14  15
ENDBRANCH   2  14
TORSDOF 7
ENDMDL
MODEL 9
REMARK VINA RESULT:    -5.964      3.153      7.207
REMARK INTER + INTRA:          -8.996
REMARK INTER:                  -8.316
REMARK INTRA:                  -0.679
REMARK UNBOUND:                -0.766
REMARK  Name = 
REMARK  8 active torsions:
REMARK  status: ('A' for Active; 'I' for Inactive)
REMARK    1  A    between atoms: C_1  and  C_2
REMARK    2  A    between atoms: C_2  and  C_3
REMARK    3  A    between atoms: C_2  and  O_12
REMARK    4  A    between atoms: C_3  and  C_4
REMARK    5  A    between atoms: C_8  and  C_9
REMARK    6  A    between atoms: C_9  and  N_10
REMARK    7  A    between atoms: O_12  and  C_13
REMARK    8  A    between atoms: C_16  and  C_17
REMARK                            x       y       z     vdW  Elec       q    Type
REMARK                         _______ _______ _______ _____ _____    ______ ____
ROOT
ATOM      1  C   UNL     1      49.526   7.346  11.868  0.00  0.00    +0.000 C 
ATOM      2  C   UNL     1      48.232   6.868  12.527  0.00  0.00    +0.000 C 
ENDROOT
BRANCH   2   3
ATOM      3  C   UNL     1      46.972   7.434  11.841  0.00  0.00    +0.000 C 
BRANCH   3   4
ATOM      4  C   UNL     1      45.827   6.475  11.614  0.00  0.00    +0.000 A 
ATOM      5  C   UNL     1      44.745   6.425  12.501  0.00  0.00    +0.000 A 
ATOM      6  C   UNL     1      43.656   5.591  12.241  0.00  0.00    +0.000 A 
ATOM      7  C   UNL     1      43.631   4.809  11.086  0.00  0.00    +0.000 A 
ATOM      8  C   UNL     1      44.702   4.840  10.185  0.00  0.00    +0.000 A 
ATOM      9  C   UNL     1      45.803   5.663  10.471  0.00  0.00    +0.000 A 
BRANCH   8  10
ATOM     10  C   UNL     1      44.683   4.006   8.929  0.00  0.00    +0.000 C 
BRANCH  10  11
ATOM     11  N   UNL     1      45.707   4.439   7.983  0.00  0.00    +0.000 NA
ATOM     12  H   UNL     1      46.274   5.162   8.424  0.00  0.00    +0.000 HD
ATOM     13  H   UNL     1      45.261   4.869   7.177  0.00  0.00    +0.000 HD
ENDBRANCH  10  11
ENDBRANCH   8  10
ENDBRANCH   3   4
ENDBRANCH   2   3
BRANCH   2  14
ATOM     14  O   UNL     1      48.279   7.193  13.925  0.00  0.00    +0.000 OA
BRANCH  14  15
ATOM     15  C   UNL     1      48.065   6.192  14.834  0.00  0.00    +0.000 A 
ATOM     16  C   UNL     1      48.715   6.326  16.060  0.00  0.00    +0.000 A 
ATOM     17  C   UNL     1      48.552   5.353  17.050  0.00  0.00    +0.000 A 
ATOM     18  C   UNL     1      47.731   4.269  16.769  0.00  0.00    +0.000 A 
ATOM     19  N   UNL     1      47.082   4.099  15.585  0.00  0.00    +0.000 NA
ATOM     20  C   UNL     1      47.269   5.066  14.655  0.00  0.00    +0.000 A 
BRANCH  18  21
ATOM     21  C   UNL     1      47.504   3.199  17.790  0.00  0.00    +0.000 C 
ATOM     22  N   UNL     1      48.434   3.157  18.797  0.00  0.00    +0.000 N 
ATOM     23  O   UNL     1      46.568   2.414  17.738  0.00  0.00    +0.000 OA
ATOM     24  H   UNL     1      49.207   3.816  18.785  0.00  0.00    +0.000 HD
ATOM     25  H   UNL     1      48.373   2.447  19.510  0.00  0.00    +0.000 HD
ENDBRANCH  18  21
ENDBRANCH  14  15
ENDBRANCH   2  14
TORSDOF 7
ENDMDL
