MODEL 1
REMARK VINA RESULT:    -8.136      0.000      0.000
REMARK INTER + INTRA:         -11.772
REMARK INTER:                 -10.990
REMARK INTRA:                  -0.782
REMARK UNBOUND:                -0.782
REMARK  Name = 
REMARK  7 active torsions:
REMARK  status: ('A' for Active; 'I' for Inactive)
REMARK    1  A    between atoms: C_1  and  C_2
REMARK    2  A    between atoms: C_7  and  C_8
REMARK    3  A    between atoms: N_10  and  C_11
REMARK    4  A    between atoms: C_11  and  C_12
REMARK    5  A    between atoms: C_15  and  C_16
REMARK    6  A    between atoms: C_16  and  N_17
REMARK    7  A    between atoms: C_18  and  C_20
REMARK                            x       y       z     vdW  Elec       q    Type
REMARK                         _______ _______ _______ _____ _____    ______ ____
ROOT
ATOM      1  C   UNL     1      44.816   5.345  10.686  0.00  0.00    +0.000 A 
ATOM      2  C   UNL     1      46.026   5.937  10.298  0.00  0.00    +0.000 A 
ATOM      3  C   UNL     1      46.708   6.806  11.159  0.00  0.00    +0.000 A 
ATOM      4  C   UNL     1      46.203   7.090  12.435  0.00  0.00    +0.000 A 
ATOM      5  C   UNL     1      44.983   6.514  12.815  0.00  0.00    +0.000 A 
ATOM      6  C   UNL     1      44.303   5.643  11.955  0.00  0.00    +0.000 A 
ENDROOT
BRANCH   1   7
ATOM      7  C   UNL     1      44.104   4.376   9.774  0.00  0.00    +0.000 C 
BRANCH   7  10
ATOM      8  C   UNL     1      45.572   2.769   8.623  0.00  0.00    +0.000 C 
ATOM      9  O   UNL     1      45.461   1.946   9.525  0.00  0.00    +0.000 OA
ATOM     10  N   UNL     1      44.946   3.997   8.658  0.00  0.00    +0.000 N 
ATOM     11  H   UNL     1      44.833   4.522   7.803  0.00  0.00    +0.000 HD
BRANCH   8  18
ATOM     12  C   UNL     1      46.598  -0.070   7.906  0.00  0.00    +0.000 C 
ATOM     13  C   UNL     1      46.834   1.153   7.072  0.00  0.00    +0.000 A 
ATOM     14  N   UNL     1      47.526   0.911   5.920  0.00  0.00    +0.000 NA
ATOM     15  C   UNL     1      47.725   1.935   5.064  0.00  0.00    +0.000 A 
ATOM     16  C   UNL     1      47.274   3.219   5.297  0.00  0.00    +0.000 A 
ATOM     17  C   UNL     1      46.581   3.464   6.480  0.00  0.00    +0.000 A 
ATOM     18  C   UNL     1      46.360   2.428   7.403  0.00  0.00    +0.000 A 
ENDBRANCH   8  18
ENDBRANCH   7  10
ENDBRANCH   1   7
BRANCH   4  19
ATOM     19  C   UNL     1      46.940   8.016  13.372  0.00  0.00    +0.000 C 
BRANCH  19  20
ATOM     20  N   UNL     1      47.399   7.325  14.552  0.00  0.00    +0.000 N 
ATOM     21  C   UNL     1      48.697   6.887  14.657  0.00  0.00    +0.000 C 
ATOM     22  O   UNL     1      49.530   7.113  13.783  0.00  0.00    +0.000 OA
ATOM     23  H   UNL     1      46.690   6.931  15.161  0.00  0.00    +0.000 HD
BRANCH  21  24
ATOM     24  C   UNL     1      49.060   6.183  15.895  0.00  0.00    +0.000 A 
ATOM     25  C   UNL     1      50.150   6.617  16.638  0.00  0.00    +0.000 A 
ATOM     26  S   UNL     1      50.404   5.723  18.068  0.00  0.00    +0.000 S 
ATOM     27  C   UNL     1      49.100   4.689  17.719  0.00  0.00    +0.000 A 
ATOM     28  N   UNL     1      48.781   3.660  18.550  0.00  0.00    +0.000 NA
ATOM     29  C   UNL     1      47.788   2.939  18.149  0.00  0.00    +0.000 A 
ATOM     30  N   UNL     1      47.082   3.156  16.995  0.00  0.00    +0.000 N 
ATOM     31  C   UNL     1      47.349   4.199  16.140  0.00  0.00    +0.000 A 
ATOM     32  O   UNL     1      46.671   4.389  15.135  0.00  0.00    +0.000 OA
ATOM     33  C   UNL     1      48.465   5.035  16.538  0.00  0.00    +0.000 A 
ATOM     34  H   UNL     1      46.309   2.558  16.741  0.00  0.00    +0.000 HD
ENDBRANCH  21  24
ENDBRANCH  19  20
ENDBRANCH   4  19
TORSDOF 6
ENDMDL
MODEL 2
REMARK VINA RESULT:    -7.788      3.179      8.875
REMARK INTER + INTRA:         -11.302
REMARK INTER:                 -10.225
REMARK INTRA:                  -1.077
REMARK UNBOUND:                -0.782
REMARK  Name = 
REMARK  7 active torsions:
REMARK  status: ('A' for Active; 'I' for Inactive)
REMARK    1  A    between atoms: C_1  and  C_2
REMARK    2  A    between atoms: C_7  and  C_8
REMARK    3  A    between atoms: N_10  and  C_11
REMARK    4  A    between atoms: C_11  and  C_12
REMARK    5  A    between atoms: C_15  and  C_16
REMARK    6  A    between atoms: C_16  and  N_17
REMARK    7  A    between atoms: C_18  and  C_20
REMARK                            x       y       z     vdW  Elec       q    Type
REMARK                         _______ _______ _______ _____ _____    ______ ____
ROOT
ATOM      1  C   UNL     1      50.264   7.296  15.524  0.00  0.00    +0.000 A 
ATOM      2  C   UNL     1      48.988   6.717  15.505  0.00  0.00    +0.000 A 
ATOM      3  C   UNL     1      48.150   6.866  14.392  0.00  0.00    +0.000 A 
ATOM      4  C   UNL     1      48.577   7.584  13.267  0.00  0.00    +0.000 A 
ATOM      5  C   UNL     1      49.845   8.179  13.295  0.00  0.00    +0.000 A 
ATOM      6  C   UNL     1      50.683   8.029  14.406  0.00  0.00    +0.000 A 
ENDROOT
BRANCH   1   7
ATOM      7  C   UNL     1      51.181   7.100  16.707  0.00  0.00    +0.000 C 
BRANCH   7  10
ATOM      8  C   UNL     1      51.017   4.871  17.741  0.00  0.00    +0.000 C 
ATOM      9  O   UNL     1      50.135   5.238  18.509  0.00  0.00    +0.000 OA
ATOM     10  N   UNL     1      51.598   5.718  16.820  0.00  0.00    +0.000 N 
ATOM     11  H   UNL     1      52.104   5.328  16.038  0.00  0.00    +0.000 HD
BRANCH   8  18
ATOM     12  C   UNL     1      49.256   2.480  16.843  0.00  0.00    +0.000 C 
ATOM     13  C   UNL     1      50.664   2.356  17.344  0.00  0.00    +0.000 A 
ATOM     14  N   UNL     1      51.140   1.076  17.343  0.00  0.00    +0.000 NA
ATOM     15  C   UNL     1      52.423   0.869  17.706  0.00  0.00    +0.000 A 
ATOM     16  C   UNL     1      53.277   1.883  18.089  0.00  0.00    +0.000 A 
ATOM     17  C   UNL     1      52.783   3.185  18.102  0.00  0.00    +0.000 A 
ATOM     18  C   UNL     1      51.451   3.444  17.739  0.00  0.00    +0.000 A 
ENDBRANCH   8  18
ENDBRANCH   7  10
ENDBRANCH   1   7
BRANCH   4  19
ATOM     19  C   UNL     1      47.684   7.737  12.060  0.00  0.00    +0.000 C 
BRANCH  19  20
ATOM     20  N   UNL     1      46.978   6.515  11.761  0.00  0.00    +0.000 N 
ATOM     21  C   UNL     1      45.617   6.426  11.918  0.00  0.00    +0.000 C 
ATOM     22  O   UNL     1      44.939   7.391  12.263  0.00  0.00    +0.000 OA
ATOM     23  H   UNL     1      47.530   5.666  11.706  0.00  0.00    +0.000 HD
BRANCH  21  24
ATOM     24  C   UNL     1      44.996   5.133  11.597  0.00  0.00    +0.000 A 
ATOM     25  C   UNL     1      44.288   4.449  12.576  0.00  0.00    +0.000 A 
ATOM     26  S   UNL     1      43.592   2.991  12.027  0.00  0.00    +0.000 S 
ATOM     27  C   UNL     1      44.258   3.195  10.475  0.00  0.00    +0.000 A 
ATOM     28  N   UNL     1      44.062   2.265   9.502  0.00  0.00    +0.000 NA
ATOM     29  C   UNL     1      44.647   2.531   8.383  0.00  0.00    +0.000 A 
ATOM     30  N   UNL     1      45.409   3.647   8.147  0.00  0.00    +0.000 N 
ATOM     31  C   UNL     1      45.612   4.626   9.090  0.00  0.00    +0.000 A 
ATOM     32  O   UNL     1      46.266   5.632   8.833  0.00  0.00    +0.000 OA
ATOM     33  C   UNL     1      44.984   4.370  10.371  0.00  0.00    +0.000 A 
ATOM     34  H   UNL     1      45.835   3.800   7.245  0.00  0.00    +0.000 HD
ENDBRANCH  21  24
ENDBRANCH  19  20
ENDBRANCH   4  19
TORSDOF 6
ENDMDL
MODEL 3
REMARK VINA RESULT:    -7.557      1.677      2.257
REMARK INTER + INTRA:         -10.990
REMARK INTER:                 -10.173
REMARK INTRA:                  -0.817
REMARK UNBOUND:                -0.782
REMARK  Name = 
REMARK  7 active torsions:
REMARK  status: ('A' for Active; 'I' for Inactive)
REMARK    1  A    between atoms: C_1  and  C_2
REMARK    2  A    between atoms: C_7  and  C_8
REMARK    3  A    between atoms: N_10  and  C_11
REMARK    4  A    between atoms: C_11  and  C_12
REMARK    5  A    between atoms: C_15  and  C_16
REMARK    6  A    between atoms: C_16  and  N_17
REMARK    7  A    between atoms: C_18  and  C_20
REMARK                            x       y       z     vdW  Elec       q    Type
REMARK                         _______ _______ _______ _____ _____    ______ ____
ROOT
ATOM      1  C   UNL     1      45.260   4.629  12.134  0.00  0.00    +0.000 A 
ATOM      2  C   UNL     1      45.216   5.937  11.632  0.00  0.00    +0.000 A 
ATOM      3  C   UNL     1      46.050   6.934  12.155  0.00  0.00    +0.000 A 
ATOM      4  C   UNL     1      46.957   6.642  13.181  0.00  0.00    +0.000 A 
ATOM      5  C   UNL     1      46.988   5.339  13.696  0.00  0.00    +0.000 A 
ATOM      6  C   UNL     1      46.156   4.342  13.173  0.00  0.00    +0.000 A 
ENDROOT
BRANCH   1   7
ATOM      7  C   UNL     1      44.391   3.547  11.542  0.00  0.00    +0.000 C 
BRANCH   7  10
ATOM      8  C   UNL     1      45.015   3.106   9.201  0.00  0.00    +0.000 C 
ATOM      9  O   UNL     1      44.316   4.026   8.790  0.00  0.00    +0.000 OA
ATOM     10  N   UNL     1      45.112   2.790  10.540  0.00  0.00    +0.000 N 
ATOM     11  H   UNL     1      45.886   2.228  10.863  0.00  0.00    +0.000 HD
BRANCH   8  18
ATOM     12  C   UNL     1      46.885   4.342   7.056  0.00  0.00    +0.000 C 
ATOM     13  C   UNL     1      46.690   2.871   7.266  0.00  0.00    +0.000 A 
ATOM     14  N   UNL     1      47.448   2.090   6.441  0.00  0.00    +0.000 NA
ATOM     15  C   UNL     1      47.400   0.751   6.602  0.00  0.00    +0.000 A 
ATOM     16  C   UNL     1      46.617   0.128   7.552  0.00  0.00    +0.000 A 
ATOM     17  C   UNL     1      45.835   0.927   8.383  0.00  0.00    +0.000 A 
ATOM     18  C   UNL     1      45.849   2.325   8.243  0.00  0.00    +0.000 A 
ENDBRANCH   8  18
ENDBRANCH   7  10
ENDBRANCH   1   7
BRANCH   4  19
ATOM     19  C   UNL     1      47.868   7.709  13.739  0.00  0.00    +0.000 C 
BRANCH  19  20
ATOM     20  N   UNL     1      47.992   7.608  15.172  0.00  0.00    +0.000 N 
ATOM     21  C   UNL     1      49.155   7.166  15.754  0.00  0.00    +0.000 C 
ATOM     22  O   UNL     1      50.151   6.895  15.088  0.00  0.00    +0.000 OA
ATOM     23  H   UNL     1      47.132   7.598  15.710  0.00  0.00    +0.000 HD
BRANCH  21  24
ATOM     24  C   UNL     1      49.174   7.089  17.221  0.00  0.00    +0.000 A 
ATOM     25  C   UNL     1      49.338   8.248  17.969  0.00  0.00    +0.000 A 
ATOM     26  S   UNL     1      49.288   7.989  19.654  0.00  0.00    +0.000 S 
ATOM     27  C   UNL     1      49.100   6.312  19.447  0.00  0.00    +0.000 A 
ATOM     28  N   UNL     1      49.017   5.479  20.519  0.00  0.00    +0.000 NA
ATOM     29  C   UNL     1      48.905   4.229  20.217  0.00  0.00    +0.000 A 
ATOM     30  N   UNL     1      48.864   3.736  18.938  0.00  0.00    +0.000 N 
ATOM     31  C   UNL     1      48.916   4.541  17.825  0.00  0.00    +0.000 A 
ATOM     32  O   UNL     1      48.836   4.071  16.695  0.00  0.00    +0.000 OA
ATOM     33  C   UNL     1      49.054   5.956  18.109  0.00  0.00    +0.000 A 
ATOM     34  H   UNL     1      48.768   2.746  18.769  0.00  0.00    +0.000 HD
ENDBRANCH  21  24
ENDBRANCH  19  20
ENDBRANCH   4  19
TORSDOF 6
ENDMDL
MODEL 4
REMARK VINA RESULT:    -7.388      1.798      2.208
REMARK INTER + INTRA:         -10.761
REMARK INTER:                 -10.388
REMARK INTRA:                  -0.374
REMARK UNBOUND:                -0.782
REMARK  Name = 
REMARK  7 active torsions:
REMARK  status: ('A' for Active; 'I' for Inactive)
REMARK    1  A    between atoms: C_1  and  C_2
REMARK    2  A    between atoms: C_7  and  C_8
REMARK    3  A    between atoms: N_10  and  C_11
REMARK    4  A    between atoms: C_11  and  C_12
REMARK    5  A    between atoms: C_15  and  C_16
REMARK    6  A    between atoms: C_16  and  N_17
REMARK    7  A    between atoms: C_18  and  C_20
REMARK                            x       y       z     vdW  Elec       q    Type
REMARK                         _______ _______ _______ _____ _____    ______ ____
ROOT
ATOM      1  C   UNL     1      45.229   4.730  10.970  0.00  0.00    +0.000 A 
ATOM      2  C   UNL     1      45.921   5.899  10.623  0.00  0.00    +0.000 A 
ATOM      3  C   UNL     1      46.682   6.590  11.575  0.00  0.00    +0.000 A 
ATOM      4  C   UNL     1      46.781   6.119  12.890  0.00  0.00    +0.000 A 
ATOM      5  C   UNL     1      46.074   4.961  13.241  0.00  0.00    +0.000 A 
ATOM      6  C   UNL     1      45.315   4.269  12.290  0.00  0.00    +0.000 A 
ENDROOT
BRANCH   1   7
ATOM      7  C   UNL     1      44.443   3.964   9.934  0.00  0.00    +0.000 C 
BRANCH   7  10
ATOM      8  C   UNL     1      45.619   2.362   8.480  0.00  0.00    +0.000 C 
ATOM      9  O   UNL     1      45.277   1.408   9.169  0.00  0.00    +0.000 OA
ATOM     10  N   UNL     1      45.262   3.660   8.778  0.00  0.00    +0.000 N 
ATOM     11  H   UNL     1      45.320   4.369   8.061  0.00  0.00    +0.000 HD
BRANCH   8  18
ATOM     12  C   UNL     1      46.906  -0.341   7.666  0.00  0.00    +0.000 C 
ATOM     13  C   UNL     1      46.991   0.917   6.856  0.00  0.00    +0.000 A 
ATOM     14  N   UNL     1      47.669   0.771   5.679  0.00  0.00    +0.000 NA
ATOM     15  C   UNL     1      47.737   1.828   4.843  0.00  0.00    +0.000 A 
ATOM     16  C   UNL     1      47.165   3.053   5.119  0.00  0.00    +0.000 A 
ATOM     17  C   UNL     1      46.487   3.202   6.327  0.00  0.00    +0.000 A 
ATOM     18  C   UNL     1      46.400   2.129   7.230  0.00  0.00    +0.000 A 
ENDBRANCH   8  18
ENDBRANCH   7  10
ENDBRANCH   1   7
BRANCH   4  19
ATOM     19  C   UNL     1      47.611   6.852  13.916  0.00  0.00    +0.000 C 
BRANCH  19  20
ATOM     20  N   UNL     1      47.657   6.142  15.171  0.00  0.00    +0.000 N 
ATOM     21  C   UNL     1      48.834   6.001  15.864  0.00  0.00    +0.000 C 
ATOM     22  O   UNL     1      49.879   6.518  15.478  0.00  0.00    +0.000 OA
ATOM     23  H   UNL     1      46.879   5.525  15.379  0.00  0.00    +0.000 HD
BRANCH  21  24
ATOM     24  C   UNL     1      48.774   5.250  17.125  0.00  0.00    +0.000 A 
ATOM     25  C   UNL     1      48.762   3.861  17.099  0.00  0.00    +0.000 A 
ATOM     26  S   UNL     1      48.739   3.146  18.647  0.00  0.00    +0.000 S 
ATOM     27  C   UNL     1      48.690   4.666  19.409  0.00  0.00    +0.000 A 
ATOM     28  N   UNL     1      48.631   4.768  20.764  0.00  0.00    +0.000 NA
ATOM     29  C   UNL     1      48.569   5.979  21.206  0.00  0.00    +0.000 A 
ATOM     30  N   UNL     1      48.565   7.099  20.415  0.00  0.00    +0.000 N 
ATOM     31  C   UNL     1      48.652   7.046  19.044  0.00  0.00    +0.000 A 
ATOM     32  O   UNL     1      48.687   8.069  18.367  0.00  0.00    +0.000 OA
ATOM     33  C   UNL     1      48.712   5.706  18.494  0.00  0.00    +0.000 A 
ATOM     34  H   UNL     1      48.522   8.021  20.824  0.00  0.00    +0.000 HD
ENDBRANCH  21  24
ENDBRANCH  19  20
ENDBRANCH   4  19
TORSDOF 6
ENDMDL
MODEL 5
REMARK VINA RESULT:    -7.319      3.720      8.601
REMARK INTER + INTRA:         -10.669
REMARK INTER:                  -9.666
REMARK INTRA:                  -1.003
REMARK UNBOUND:                -0.782
REMARK  Name = 
REMARK  7 active torsions:
REMARK  status: ('A' for Active; 'I' for Inactive)
REMARK    1  A    between atoms: C_1  and  C_2
REMARK    2  A    between atoms: C_7  and  C_8
REMARK    3  A    between atoms: N_10  and  C_11
REMARK    4  A    between atoms: C_11  and  C_12
REMARK    5  A    between atoms: C_15  and  C_16
REMARK    6  A    between atoms: C_16  and  N_17
REMARK    7  A    between atoms: C_18  and  C_20
REMARK                            x       y       z     vdW  Elec       q    Type
REMARK                         _______ _______ _______ _____ _____    ______ ____
ROOT
ATOM      1  C   UNL     1      49.437   7.266  16.194  0.00  0.00    +0.000 A 
ATOM      2  C   UNL     1      48.717   6.309  15.464  0.00  0.00    +0.000 A 
ATOM      3  C   UNL     1      48.220   6.606  14.188  0.00  0.00    +0.000 A 
ATOM      4  C   UNL     1      48.444   7.860  13.607  0.00  0.00    +0.000 A 
ATOM      5  C   UNL     1      49.146   8.823  14.345  0.00  0.00    +0.000 A 
ATOM      6  C   UNL     1      49.645   8.527  15.619  0.00  0.00    +0.000 A 
ENDROOT
BRANCH   1   7
ATOM      7  C   UNL     1      50.007   6.932  17.550  0.00  0.00    +0.000 C 
BRANCH   7  10
ATOM      8  C   UNL     1      50.299   4.562  18.149  0.00  0.00    +0.000 C 
ATOM      9  O   UNL     1      49.252   4.542  18.786  0.00  0.00    +0.000 OA
ATOM     10  N   UNL     1      50.758   5.694  17.509  0.00  0.00    +0.000 N 
ATOM     11  H   UNL     1      51.455   5.607  16.785  0.00  0.00    +0.000 HD
BRANCH   8  18
ATOM     12  C   UNL     1      49.351   2.033  16.623  0.00  0.00    +0.000 C 
ATOM     13  C   UNL     1      50.675   2.160  17.314  0.00  0.00    +0.000 A 
ATOM     14  N   UNL     1      51.471   1.058  17.189  0.00  0.00    +0.000 NA
ATOM     15  C   UNL     1      52.713   1.101  17.713  0.00  0.00    +0.000 A 
ATOM     16  C   UNL     1      53.219   2.199  18.380  0.00  0.00    +0.000 A 
ATOM     17  C   UNL     1      52.398   3.315  18.518  0.00  0.00    +0.000 A 
ATOM     18  C   UNL     1      51.095   3.309  17.994  0.00  0.00    +0.000 A 
ENDBRANCH   8  18
ENDBRANCH   7  10
ENDBRANCH   1   7
BRANCH   4  19
ATOM     19  C   UNL     1      47.923   8.181  12.228  0.00  0.00    +0.000 C 
BRANCH  19  20
ATOM     20  N   UNL     1      47.330   7.026  11.600  0.00  0.00    +0.000 N 
ATOM     21  C   UNL     1      45.974   6.945  11.398  0.00  0.00    +0.000 C 
ATOM     22  O   UNL     1      45.219   7.869  11.689  0.00  0.00    +0.000 OA
ATOM     23  H   UNL     1      47.890   6.180  11.571  0.00  0.00    +0.000 HD
BRANCH  21  24
ATOM     24  C   UNL     1      45.472   5.720  10.761  0.00  0.00    +0.000 A 
ATOM     25  C   UNL     1      45.691   5.510   9.406  0.00  0.00    +0.000 A 
ATOM     26  S   UNL     1      45.086   4.020   8.836  0.00  0.00    +0.000 S 
ATOM     27  C   UNL     1      44.461   3.625  10.368  0.00  0.00    +0.000 A 
ATOM     28  N   UNL     1      43.783   2.463  10.568  0.00  0.00    +0.000 NA
ATOM     29  C   UNL     1      43.340   2.305  11.770  0.00  0.00    +0.000 A 
ATOM     30  N   UNL     1      43.517   3.202  12.792  0.00  0.00    +0.000 N 
ATOM     31  C   UNL     1      44.218   4.374  12.644  0.00  0.00    +0.000 A 
ATOM     32  O   UNL     1      44.394   5.136  13.589  0.00  0.00    +0.000 OA
ATOM     33  C   UNL     1      44.729   4.607  11.307  0.00  0.00    +0.000 A 
ATOM     34  H   UNL     1      43.151   3.015  13.714  0.00  0.00    +0.000 HD
ENDBRANCH  21  24
ENDBRANCH  19  20
ENDBRANCH   4  19
TORSDOF 6
ENDMDL
MODEL 6
REMARK VINA RESULT:    -6.989      3.133      4.806
REMARK INTER + INTRA:         -10.223
REMARK INTER:                  -9.207
REMARK INTRA:                  -1.015
REMARK UNBOUND:                -0.782
REMARK  Name = 
REMARK  7 active torsions:
REMARK  status: ('A' for Active; 'I' for Inactive)
REMARK    1  A    between atoms: C_1  and  C_2
REMARK    2  A    between atoms: C_7  and  C_8
REMARK    3  A    between atoms: N_10  and  C_11
REMARK    4  A    between atoms: C_11  and  C_12
REMARK    5  A    between atoms: C_15  and  C_16
REMARK    6  A    between atoms: C_16  and  N_17
REMARK    7  A    between atoms: C_18  and  C_20
REMARK                            x       y       z     vdW  Elec       q    Type
REMARK                         _______ _______ _______ _____ _____    ______ ____
ROOT
ATOM      1  C   UNL     1      47.965   7.916  13.408  0.00  0.00    +0.000 A 
ATOM      2  C   UNL     1      48.092   9.083  14.174  0.00  0.00    +0.000 A 
ATOM      3  C   UNL     1      48.493   9.020  15.515  0.00  0.00    +0.000 A 
ATOM      4  C   UNL     1      48.792   7.790  16.115  0.00  0.00    +0.000 A 
ATOM      5  C   UNL     1      48.646   6.622  15.354  0.00  0.00    +0.000 A 
ATOM      6  C   UNL     1      48.247   6.685  14.014  0.00  0.00    +0.000 A 
ENDROOT
BRANCH   1   7
ATOM      7  C   UNL     1      47.573   7.988  11.952  0.00  0.00    +0.000 C 
BRANCH   7  10
ATOM      8  C   UNL     1      45.689   6.568  11.247  0.00  0.00    +0.000 C 
ATOM      9  O   UNL     1      44.880   7.475  11.408  0.00  0.00    +0.000 OA
ATOM     10  N   UNL     1      47.037   6.723  11.494  0.00  0.00    +0.000 N 
ATOM     11  H   UNL     1      47.693   6.067  11.097  0.00  0.00    +0.000 HD
BRANCH   8  18
ATOM     12  C   UNL     1      44.083   4.448  12.845  0.00  0.00    +0.000 C 
ATOM     13  C   UNL     1      44.513   4.289  11.418  0.00  0.00    +0.000 A 
ATOM     14  N   UNL     1      44.102   3.119  10.845  0.00  0.00    +0.000 NA
ATOM     15  C   UNL     1      44.375   2.914   9.540  0.00  0.00    +0.000 A 
ATOM     16  C   UNL     1      45.057   3.821   8.754  0.00  0.00    +0.000 A 
ATOM     17  C   UNL     1      45.487   5.006   9.346  0.00  0.00    +0.000 A 
ATOM     18  C   UNL     1      45.231   5.256  10.705  0.00  0.00    +0.000 A 
ENDBRANCH   8  18
ENDBRANCH   7  10
ENDBRANCH   1   7
BRANCH   4  19
ATOM     19  C   UNL     1      49.238   7.718  17.555  0.00  0.00    +0.000 C 
BRANCH  19  20
ATOM     20  N   UNL     1      50.275   6.734  17.743  0.00  0.00    +0.000 N 
ATOM     21  C   UNL     1      50.084   5.651  18.566  0.00  0.00    +0.000 C 
ATOM     22  O   UNL     1      49.012   5.444  19.127  0.00  0.00    +0.000 OA
ATOM     23  H   UNL     1      51.218   7.004  17.486  0.00  0.00    +0.000 HD
BRANCH  21  24
ATOM     24  C   UNL     1      51.209   4.714  18.698  0.00  0.00    +0.000 A 
ATOM     25  C   UNL     1      52.333   5.087  19.422  0.00  0.00    +0.000 A 
ATOM     26  S   UNL     1      53.523   3.868  19.518  0.00  0.00    +0.000 S 
ATOM     27  C   UNL     1      52.601   2.816  18.550  0.00  0.00    +0.000 A 
ATOM     28  N   UNL     1      53.067   1.582  18.219  0.00  0.00    +0.000 NA
ATOM     29  C   UNL     1      52.279   0.901  17.457  0.00  0.00    +0.000 A 
ATOM     30  N   UNL     1      51.064   1.341  16.999  0.00  0.00    +0.000 N 
ATOM     31  C   UNL     1      50.540   2.568  17.329  0.00  0.00    +0.000 A 
ATOM     32  O   UNL     1      49.431   2.915  16.935  0.00  0.00    +0.000 OA
ATOM     33  C   UNL     1      51.393   3.380  18.176  0.00  0.00    +0.000 A 
ATOM     34  H   UNL     1      50.490   0.755  16.410  0.00  0.00    +0.000 HD
ENDBRANCH  21  24
ENDBRANCH  19  20
ENDBRANCH   4  19
TORSDOF 6
ENDMDL
MODEL 7
REMARK VINA RESULT:    -6.800      4.812      7.645
REMARK INTER + INTRA:          -9.967
REMARK INTER:                  -8.960
REMARK INTRA:                  -1.007
REMARK UNBOUND:                -0.782
REMARK  Name = 
REMARK  7 active torsions:
REMARK  status: ('A' for Active; 'I' for Inactive)
REMARK    1  A    between atoms: C_1  and  C_2
REMARK    2  A    between atoms: C_7  and  C_8
REMARK    3  A    between atoms: N_10  and  C_11
REMARK    4  A    between atoms: C_11  and  C_12
REMARK    5  A    between atoms: C_15  and  C_16
REMARK    6  A    between atoms: C_16  and  N_17
REMARK    7  A    between atoms: C_18  and  C_20
REMARK                            x       y       z     vdW  Elec       q    Type
REMARK                         _______ _______ _______ _____ _____    ______ ____
ROOT
ATOM      1  C   UNL     1      44.459   8.890  11.612  0.00  0.00    +0.000 A 
ATOM      2  C   UNL     1      43.931   7.663  11.185  0.00  0.00    +0.000 A 
ATOM      3  C   UNL     1      44.475   6.453  11.635  0.00  0.00    +0.000 A 
ATOM      4  C   UNL     1      45.549   6.442  12.534  0.00  0.00    +0.000 A 
ATOM      5  C   UNL     1      46.090   7.668  12.945  0.00  0.00    +0.000 A 
ATOM      6  C   UNL     1      45.545   8.878  12.497  0.00  0.00    +0.000 A 
ENDROOT
BRANCH   1   7
ATOM      7  C   UNL     1      43.847  10.193  11.159  0.00  0.00    +0.000 C 
BRANCH   7  10
ATOM      8  C   UNL     1      41.645  11.287  11.035  0.00  0.00    +0.000 C 
ATOM      9  O   UNL     1      42.102  12.250  10.429  0.00  0.00    +0.000 OA
ATOM     10  N   UNL     1      42.427  10.226  11.441  0.00  0.00    +0.000 N 
ATOM     11  H   UNL     1      41.988   9.349  11.680  0.00  0.00    +0.000 HD
BRANCH   8  18
ATOM     12  C   UNL     1      40.249  12.273  13.625  0.00  0.00    +0.000 C 
ATOM     13  C   UNL     1      39.539  11.641  12.465  0.00  0.00    +0.000 A 
ATOM     14  N   UNL     1      38.185  11.562  12.625  0.00  0.00    +0.000 NA
ATOM     15  C   UNL     1      37.446  11.076  11.605  0.00  0.00    +0.000 A 
ATOM     16  C   UNL     1      37.990  10.647  10.411  0.00  0.00    +0.000 A 
ATOM     17  C   UNL     1      39.372  10.716  10.258  0.00  0.00    +0.000 A 
ATOM     18  C   UNL     1      40.179  11.207  11.299  0.00  0.00    +0.000 A 
ENDBRANCH   8  18
ENDBRANCH   7  10
ENDBRANCH   1   7
BRANCH   4  19
ATOM     19  C   UNL     1      46.130   5.142  13.033  0.00  0.00    +0.000 C 
BRANCH  19  20
ATOM     20  N   UNL     1      46.718   5.287  14.341  0.00  0.00    +0.000 N 
ATOM     21  C   UNL     1      47.308   4.222  14.976  0.00  0.00    +0.000 C 
ATOM     22  O   UNL     1      47.410   3.122  14.439  0.00  0.00    +0.000 OA
ATOM     23  H   UNL     1      46.442   6.099  14.883  0.00  0.00    +0.000 HD
BRANCH  21  24
ATOM     24  C   UNL     1      47.867   4.474  16.312  0.00  0.00    +0.000 A 
ATOM     25  C   UNL     1      47.446   3.706  17.390  0.00  0.00    +0.000 A 
ATOM     26  S   UNL     1      48.227   4.094  18.855  0.00  0.00    +0.000 S 
ATOM     27  C   UNL     1      49.117   5.340  18.114  0.00  0.00    +0.000 A 
ATOM     28  N   UNL     1      49.980   6.106  18.834  0.00  0.00    +0.000 NA
ATOM     29  C   UNL     1      50.567   7.032  18.153  0.00  0.00    +0.000 A 
ATOM     30  N   UNL     1      50.372   7.259  16.814  0.00  0.00    +0.000 N 
ATOM     31  C   UNL     1      49.532   6.493  16.041  0.00  0.00    +0.000 A 
ATOM     32  O   UNL     1      49.411   6.697  14.837  0.00  0.00    +0.000 OA
ATOM     33  C   UNL     1      48.838   5.444  16.762  0.00  0.00    +0.000 A 
ATOM     34  H   UNL     1      50.868   7.997  16.337  0.00  0.00    +0.000 HD
ENDBRANCH  21  24
ENDBRANCH  19  20
ENDBRANCH   4  19
TORSDOF 6
ENDMDL
MODEL 8
REMARK VINA RESULT:    -6.769      4.594     11.143
REMARK INTER + INTRA:          -9.925
REMARK INTER:                  -9.189
REMARK INTRA:                  -0.737
REMARK UNBOUND:                -0.782
REMARK  Name = 
REMARK  7 active torsions:
REMARK  status: ('A' for Active; 'I' for Inactive)
REMARK    1  A    between atoms: C_1  and  C_2
REMARK    2  A    between atoms: C_7  and  C_8
REMARK    3  A    between atoms: N_10  and  C_11
REMARK    4  A    between atoms: C_11  and  C_12
REMARK    5  A    between atoms: C_15  and  C_16
REMARK    6  A    between atoms: C_16  and  N_17
REMARK    7  A    between atoms: C_18  and  C_20
REMARK                            x       y       z     vdW  Elec       q    Type
REMARK                         _______ _______ _______ _____ _____    ______ ____
ROOT
ATOM      1  C   UNL     1      48.451   5.613  20.256  0.00  0.00    +0.000 A 
ATOM      2  C   UNL     1      49.320   4.646  19.731  0.00  0.00    +0.000 A 
ATOM      3  C   UNL     1      49.040   4.019  18.510  0.00  0.00    +0.000 A 
ATOM      4  C   UNL     1      47.893   4.356  17.779  0.00  0.00    +0.000 A 
ATOM      5  C   UNL     1      47.015   5.308  18.314  0.00  0.00    +0.000 A 
ATOM      6  C   UNL     1      47.296   5.937  19.533  0.00  0.00    +0.000 A 
ENDROOT
BRANCH   1   7
ATOM      7  C   UNL     1      48.775   6.318  21.551  0.00  0.00    +0.000 C 
BRANCH   7  10
ATOM      8  C   UNL     1      48.609   8.726  21.066  0.00  0.00    +0.000 C 
ATOM      9  O   UNL     1      49.678   8.729  20.465  0.00  0.00    +0.000 OA
ATOM     10  N   UNL     1      48.084   7.587  21.640  0.00  0.00    +0.000 N 
ATOM     11  H   UNL     1      47.103   7.557  21.875  0.00  0.00    +0.000 HD
BRANCH   8  18
ATOM     12  C   UNL     1      49.581  11.409  22.284  0.00  0.00    +0.000 C 
ATOM     13  C   UNL     1      48.221  11.189  21.692  0.00  0.00    +0.000 A 
ATOM     14  N   UNL     1      47.430  12.302  21.697  0.00  0.00    +0.000 NA
ATOM     15  C   UNL     1      46.214  12.227  21.118  0.00  0.00    +0.000 A 
ATOM     16  C   UNL     1      45.723  11.079  20.528  0.00  0.00    +0.000 A 
ATOM     17  C   UNL     1      46.527   9.943  20.538  0.00  0.00    +0.000 A 
ATOM     18  C   UNL     1      47.797   9.975  21.138  0.00  0.00    +0.000 A 
ENDBRANCH   8  18
ENDBRANCH   7  10
ENDBRANCH   1   7
BRANCH   4  19
ATOM     19  C   UNL     1      47.594   3.693  16.456  0.00  0.00    +0.000 C 
BRANCH  19  20
ATOM     20  N   UNL     1      46.906   4.585  15.556  0.00  0.00    +0.000 N 
ATOM     21  C   UNL     1      46.844   4.326  14.209  0.00  0.00    +0.000 C 
ATOM     22  O   UNL     1      47.319   3.302  13.724  0.00  0.00    +0.000 OA
ATOM     23  H   UNL     1      46.720   5.525  15.892  0.00  0.00    +0.000 HD
BRANCH  21  24
ATOM     24  C   UNL     1      46.130   5.305  13.378  0.00  0.00    +0.000 A 
ATOM     25  C   UNL     1      46.720   6.530  13.098  0.00  0.00    +0.000 A 
ATOM     26  S   UNL     1      45.780   7.528  12.083  0.00  0.00    +0.000 S 
ATOM     27  C   UNL     1      44.525   6.381  12.025  0.00  0.00    +0.000 A 
ATOM     28  N   UNL     1      43.384   6.627  11.327  0.00  0.00    +0.000 NA
ATOM     29  C   UNL     1      42.505   5.684  11.392  0.00  0.00    +0.000 A 
ATOM     30  N   UNL     1      42.666   4.513  12.089  0.00  0.00    +0.000 N 
ATOM     31  C   UNL     1      43.812   4.209  12.784  0.00  0.00    +0.000 A 
ATOM     32  O   UNL     1      43.940   3.135  13.364  0.00  0.00    +0.000 OA
ATOM     33  C   UNL     1      44.829   5.242  12.753  0.00  0.00    +0.000 A 
ATOM     34  H   UNL     1      41.941   3.811  12.094  0.00  0.00    +0.000 HD
ENDBRANCH  21  24
ENDBRANCH  19  20
ENDBRANCH   4  19
TORSDOF 6
ENDMDL
MODEL 9
REMARK VINA RESULT:    -6.561      6.716      9.801
REMARK INTER + INTRA:          -9.644
REMARK INTER:                  -8.845
REMARK INTRA:                  -0.799
REMARK UNBOUND:                -0.782
REMARK  Name = 
REMARK  7 active torsions:
REMARK  status: ('A' for Active; 'I' for Inactive)
REMARK    1  A    between atoms: C_1  and  C_2
REMARK    2  A    between atoms: C_7  and  C_8
REMARK    3  A    between atoms: N_10  and  C_11
REMARK    4  A    between atoms: C_11  and  C_12
REMARK    5  A    between atoms: C_15  and  C_16
REMARK    6  A    between atoms: C_16  and  N_17
REMARK    7  A    between atoms: C_18  and  C_20
REMARK                            x       y       z     vdW  Elec       q    Type
REMARK                         _______ _______ _______ _____ _____    ______ ____
ROOT
ATOM      1  C   UNL     1      41.902  11.690  10.376  0.00  0.00    +0.000 A 
ATOM      2  C   UNL     1      41.676  10.307  10.330  0.00  0.00    +0.000 A 
ATOM      3  C   UNL     1      42.696   9.403  10.654  0.00  0.00    +0.000 A 
ATOM      4  C   UNL     1      43.960   9.863  11.046  0.00  0.00    +0.000 A 
ATOM      5  C   UNL     1      44.191  11.245  11.073  0.00  0.00    +0.000 A 
ATOM      6  C   UNL     1      43.171  12.148  10.752  0.00  0.00    +0.000 A 
ENDROOT
BRANCH   1   7
ATOM      7  C   UNL     1      40.790  12.663  10.067  0.00  0.00    +0.000 C 
BRANCH   7  10
ATOM      8  C   UNL     1      38.687  11.887  11.087  0.00  0.00    +0.000 C 
ATOM      9  O   UNL     1      38.988  12.353  12.181  0.00  0.00    +0.000 OA
ATOM     10  N   UNL     1      39.512  11.985   9.986  0.00  0.00    +0.000 N 
ATOM     11  H   UNL     1      39.128  11.845   9.064  0.00  0.00    +0.000 HD
BRANCH   8  18
ATOM     12  C   UNL     1      36.473  12.904   9.167  0.00  0.00    +0.000 C 
ATOM     13  C   UNL     1      36.347  11.693  10.042  0.00  0.00    +0.000 A 
ATOM     14  N   UNL     1      35.161  11.031   9.901  0.00  0.00    +0.000 NA
ATOM     15  C   UNL     1      34.980   9.886  10.591  0.00  0.00    +0.000 A 
ATOM     16  C   UNL     1      35.929   9.353  11.441  0.00  0.00    +0.000 A 
ATOM     17  C   UNL     1      37.131  10.039  11.593  0.00  0.00    +0.000 A 
ATOM     18  C   UNL     1      37.357  11.240  10.899  0.00  0.00    +0.000 A 
ENDBRANCH   8  18
ENDBRANCH   7  10
ENDBRANCH   1   7
BRANCH   4  19
ATOM     19  C   UNL     1      45.059   8.894  11.410  0.00  0.00    +0.000 C 
BRANCH  19  20
ATOM     20  N   UNL     1      44.645   7.525  11.229  0.00  0.00    +0.000 N 
ATOM     21  C   UNL     1      45.289   6.497  11.873  0.00  0.00    +0.000 C 
ATOM     22  O   UNL     1      46.202   6.702  12.669  0.00  0.00    +0.000 OA
ATOM     23  H   UNL     1      44.069   7.321  10.419  0.00  0.00    +0.000 HD
BRANCH  21  24
ATOM     24  C   UNL     1      44.796   5.138  11.611  0.00  0.00    +0.000 A 
ATOM     25  C   UNL     1      44.141   4.439  12.616  0.00  0.00    +0.000 A 
ATOM     26  S   UNL     1      43.591   2.898  12.133  0.00  0.00    +0.000 S 
ATOM     27  C   UNL     1      44.256   3.087  10.579  0.00  0.00    +0.000 A 
ATOM     28  N   UNL     1      44.159   2.097   9.651  0.00  0.00    +0.000 NA
ATOM     29  C   UNL     1      44.733   2.363   8.525  0.00  0.00    +0.000 A 
ATOM     30  N   UNL     1      45.390   3.532   8.242  0.00  0.00    +0.000 N 
ATOM     31  C   UNL     1      45.489   4.570   9.137  0.00  0.00    +0.000 A 
ATOM     32  O   UNL     1      46.050   5.619   8.837  0.00  0.00    +0.000 OA
ATOM     33  C   UNL     1      44.871   4.319  10.424  0.00  0.00    +0.000 A 
ATOM     34  H   UNL     1      45.813   3.681   7.337  0.00  0.00    +0.000 HD
ENDBRANCH  21  24
ENDBRANCH  19  20
ENDBRANCH   4  19
TORSDOF 6
ENDMDL
