MODEL 1
REMARK VINA RESULT:    -8.222      0.000      0.000
REMARK INTER + INTRA:         -13.400
REMARK INTER:                 -12.067
REMARK INTRA:                  -1.333
REMARK UNBOUND:                -1.333
REMARK  Name = 
REMARK  8 active torsions:
REMARK  status: ('A' for Active; 'I' for Inactive)
REMARK    1  A    between atoms: C_2  and  C_4
REMARK    2  A    between atoms: C_8  and  C_9
REMARK    3  A    between atoms: C_9  and  C_10
REMARK    4  A    between atoms: C_10  and  N_11
REMARK    5  A    between atoms: N_11  and  C_12
REMARK    6  A    between atoms: C_15  and  C_16
REMARK    7  A    between atoms: C_16  and  N_17
REMARK    8  A    between atoms: C_18  and  C_20
REMARK                            x       y       z     vdW  Elec       q    Type
REMARK                         _______ _______ _______ _____ _____    ______ ____
ROOT
ATOM      1  C   UNL     1      44.687   4.856  12.927  0.00  0.00    +0.000 A 
ATOM      2  C   UNL     1      45.853   4.253  13.411  0.00  0.00    +0.000 A 
ATOM      3  C   UNL     1      47.009   5.007  13.644  0.00  0.00    +0.000 A 
ATOM      4  C   UNL     1      47.025   6.380  13.384  0.00  0.00    +0.000 A 
ATOM      5  C   UNL     1      45.895   6.965  12.802  0.00  0.00    +0.000 A 
ATOM      6  C   UNL     1      44.746   6.205  12.568  0.00  0.00    +0.000 A 
ENDROOT
BRANCH   1   7
ATOM      7  N   UNL     1      43.471   4.187  12.740  0.00  0.00    +0.000 N 
ATOM      8  H   UNL     1      42.726   4.685  13.228  0.00  0.00    +0.000 HD
BRANCH   7   9
ATOM      9  C   UNL     1      43.074   3.796  11.383  0.00  0.00    +0.000 C 
BRANCH   9  10
ATOM     10  C   UNL     1      43.865   2.569  10.904  0.00  0.00    +0.000 C 
BRANCH  10  15
ATOM     11  C   UNL     1      46.245   2.133   8.109  0.00  0.00    +0.000 A 
ATOM     12  C   UNL     1      46.353   3.394   7.543  0.00  0.00    +0.000 A 
ATOM     13  C   UNL     1      45.608   4.425   8.102  0.00  0.00    +0.000 A 
ATOM     14  C   UNL     1      44.798   4.162   9.204  0.00  0.00    +0.000 A 
ATOM     15  C   UNL     1      44.763   2.871   9.731  0.00  0.00    +0.000 A 
ATOM     16  N   UNL     1      45.459   1.846   9.184  0.00  0.00    +0.000 NA
BRANCH  11  18
ATOM     17  N   UNL     1      48.056   1.338   6.708  0.00  0.00    +0.000 N 
ATOM     18  C   UNL     1      47.020   0.989   7.532  0.00  0.00    +0.000 C 
ATOM     19  O   UNL     1      46.756  -0.180   7.775  0.00  0.00    +0.000 OA
ATOM     20  H   UNL     1      48.635   0.617   6.306  0.00  0.00    +0.000 HD
ATOM     21  H   UNL     1      48.272   2.318   6.563  0.00  0.00    +0.000 HD
ENDBRANCH  11  18
ENDBRANCH  10  15
ENDBRANCH   9  10
ENDBRANCH   7   9
ENDBRANCH   1   7
BRANCH   4  22
ATOM     22  C   UNL     1      48.233   7.216  13.704  0.00  0.00    +0.000 C 
BRANCH  22  23
ATOM     23  N   UNL     1      48.211   7.676  15.066  0.00  0.00    +0.000 N 
ATOM     24  C   UNL     1      48.898   7.006  16.043  0.00  0.00    +0.000 C 
ATOM     25  O   UNL     1      49.599   6.028  15.791  0.00  0.00    +0.000 OA
ATOM     26  H   UNL     1      47.474   8.327  15.324  0.00  0.00    +0.000 HD
BRANCH  24  27
ATOM     27  C   UNL     1      48.807   7.549  17.403  0.00  0.00    +0.000 A 
ATOM     28  C   UNL     1      49.389   8.775  17.692  0.00  0.00    +0.000 A 
ATOM     29  S   UNL     1      49.157   9.281  19.303  0.00  0.00    +0.000 S 
ATOM     30  C   UNL     1      48.314   7.854  19.687  0.00  0.00    +0.000 A 
ATOM     31  N   UNL     1      47.854   7.632  20.947  0.00  0.00    +0.000 NA
ATOM     32  C   UNL     1      47.263   6.495  21.106  0.00  0.00    +0.000 A 
ATOM     33  N   UNL     1      47.083   5.563  20.118  0.00  0.00    +0.000 N 
ATOM     34  C   UNL     1      47.500   5.758  18.822  0.00  0.00    +0.000 A 
ATOM     35  O   UNL     1      47.277   4.926  17.949  0.00  0.00    +0.000 OA
ATOM     36  C   UNL     1      48.190   7.014  18.594  0.00  0.00    +0.000 A 
ATOM     37  H   UNL     1      46.601   4.696  20.305  0.00  0.00    +0.000 HD
ENDBRANCH  24  27
ENDBRANCH  22  23
ENDBRANCH   4  22
TORSDOF 8
ENDMDL
MODEL 2
REMARK VINA RESULT:    -7.865      2.162      2.524
REMARK INTER + INTRA:         -12.876
REMARK INTER:                 -11.419
REMARK INTRA:                  -1.457
REMARK UNBOUND:                -1.333
REMARK  Name = 
REMARK  8 active torsions:
REMARK  status: ('A' for Active; 'I' for Inactive)
REMARK    1  A    between atoms: C_2  and  C_4
REMARK    2  A    between atoms: C_8  and  C_9
REMARK    3  A    between atoms: C_9  and  C_10
REMARK    4  A    between atoms: C_10  and  N_11
REMARK    5  A    between atoms: N_11  and  C_12
REMARK    6  A    between atoms: C_15  and  C_16
REMARK    7  A    between atoms: C_16  and  N_17
REMARK    8  A    between atoms: C_18  and  C_20
REMARK                            x       y       z     vdW  Elec       q    Type
REMARK                         _______ _______ _______ _____ _____    ______ ____
ROOT
ATOM      1  C   UNL     1      44.908   5.401  12.627  0.00  0.00    +0.000 A 
ATOM      2  C   UNL     1      44.950   6.724  12.172  0.00  0.00    +0.000 A 
ATOM      3  C   UNL     1      46.156   7.434  12.138  0.00  0.00    +0.000 A 
ATOM      4  C   UNL     1      47.343   6.838  12.573  0.00  0.00    +0.000 A 
ATOM      5  C   UNL     1      47.285   5.553  13.125  0.00  0.00    +0.000 A 
ATOM      6  C   UNL     1      46.077   4.852  13.159  0.00  0.00    +0.000 A 
ENDROOT
BRANCH   1   7
ATOM      7  N   UNL     1      43.758   4.601  12.621  0.00  0.00    +0.000 N 
ATOM      8  H   UNL     1      43.040   5.028  13.207  0.00  0.00    +0.000 HD
BRANCH   7   9
ATOM      9  C   UNL     1      43.219   4.136  11.340  0.00  0.00    +0.000 C 
BRANCH   9  10
ATOM     10  C   UNL     1      43.914   2.846  10.878  0.00  0.00    +0.000 C 
BRANCH  10  15
ATOM     11  C   UNL     1      46.248   2.191   8.087  0.00  0.00    +0.000 A 
ATOM     12  C   UNL     1      46.474   3.437   7.522  0.00  0.00    +0.000 A 
ATOM     13  C   UNL     1      45.826   4.532   8.080  0.00  0.00    +0.000 A 
ATOM     14  C   UNL     1      44.993   4.346   9.180  0.00  0.00    +0.000 A 
ATOM     15  C   UNL     1      44.838   3.064   9.707  0.00  0.00    +0.000 A 
ATOM     16  N   UNL     1      45.437   1.979   9.161  0.00  0.00    +0.000 NA
BRANCH  11  18
ATOM     17  N   UNL     1      47.872   1.232   6.564  0.00  0.00    +0.000 N 
ATOM     18  C   UNL     1      46.916   0.981   7.511  0.00  0.00    +0.000 C 
ATOM     19  O   UNL     1      46.634  -0.158   7.857  0.00  0.00    +0.000 OA
ATOM     20  H   UNL     1      48.378   0.462   6.154  0.00  0.00    +0.000 HD
ATOM     21  H   UNL     1      48.108   2.191   6.333  0.00  0.00    +0.000 HD
ENDBRANCH  11  18
ENDBRANCH  10  15
ENDBRANCH   9  10
ENDBRANCH   7   9
ENDBRANCH   1   7
BRANCH   4  22
ATOM     22  C   UNL     1      48.657   7.560  12.468  0.00  0.00    +0.000 C 
BRANCH  22  23
ATOM     23  N   UNL     1      49.603   7.081  13.439  0.00  0.00    +0.000 N 
ATOM     24  C   UNL     1      49.691   7.661  14.677  0.00  0.00    +0.000 C 
ATOM     25  O   UNL     1      48.936   8.568  15.025  0.00  0.00    +0.000 OA
ATOM     26  H   UNL     1      50.365   6.503  13.098  0.00  0.00    +0.000 HD
BRANCH  24  27
ATOM     27  C   UNL     1      50.692   7.106  15.595  0.00  0.00    +0.000 A 
ATOM     28  C   UNL     1      52.000   7.565  15.540  0.00  0.00    +0.000 A 
ATOM     29  S   UNL     1      53.026   6.851  16.699  0.00  0.00    +0.000 S 
ATOM     30  C   UNL     1      51.769   5.863  17.282  0.00  0.00    +0.000 A 
ATOM     31  N   UNL     1      51.990   4.968  18.281  0.00  0.00    +0.000 NA
ATOM     32  C   UNL     1      50.958   4.260  18.601  0.00  0.00    +0.000 A 
ATOM     33  N   UNL     1      49.724   4.372  18.018  0.00  0.00    +0.000 N 
ATOM     34  C   UNL     1      49.444   5.286  17.029  0.00  0.00    +0.000 A 
ATOM     35  O   UNL     1      48.314   5.396  16.565  0.00  0.00    +0.000 OA
ATOM     36  C   UNL     1      50.577   6.093  16.617  0.00  0.00    +0.000 A 
ATOM     37  H   UNL     1      48.953   3.796  18.323  0.00  0.00    +0.000 HD
ENDBRANCH  24  27
ENDBRANCH  22  23
ENDBRANCH   4  22
TORSDOF 8
ENDMDL
MODEL 3
REMARK VINA RESULT:    -7.810      3.170      8.760
REMARK INTER + INTRA:         -12.795
REMARK INTER:                 -10.776
REMARK INTRA:                  -2.019
REMARK UNBOUND:                -1.333
REMARK  Name = 
REMARK  8 active torsions:
REMARK  status: ('A' for Active; 'I' for Inactive)
REMARK    1  A    between atoms: C_2  and  C_4
REMARK    2  A    between atoms: C_8  and  C_9
REMARK    3  A    between atoms: C_9  and  C_10
REMARK    4  A    between atoms: C_10  and  N_11
REMARK    5  A    between atoms: N_11  and  C_12
REMARK    6  A    between atoms: C_15  and  C_16
REMARK    7  A    between atoms: C_16  and  N_17
REMARK    8  A    between atoms: C_18  and  C_20
REMARK                            x       y       z     vdW  Elec       q    Type
REMARK                         _______ _______ _______ _____ _____    ______ ____
ROOT
ATOM      1  C   UNL     1      49.259   8.159  15.532  0.00  0.00    +0.000 A 
ATOM      2  C   UNL     1      48.102   8.860  15.177  0.00  0.00    +0.000 A 
ATOM      3  C   UNL     1      47.585   8.785  13.878  0.00  0.00    +0.000 A 
ATOM      4  C   UNL     1      48.225   8.014  12.904  0.00  0.00    +0.000 A 
ATOM      5  C   UNL     1      49.439   7.398  13.227  0.00  0.00    +0.000 A 
ATOM      6  C   UNL     1      49.951   7.481  14.524  0.00  0.00    +0.000 A 
ENDROOT
BRANCH   1   7
ATOM      7  N   UNL     1      49.796   8.123  16.825  0.00  0.00    +0.000 N 
ATOM      8  H   UNL     1      50.403   8.930  16.967  0.00  0.00    +0.000 HD
BRANCH   7   9
ATOM      9  C   UNL     1      48.899   7.901  17.964  0.00  0.00    +0.000 C 
BRANCH   9  10
ATOM     10  C   UNL     1      49.351   6.697  18.803  0.00  0.00    +0.000 C 
BRANCH  10  15
ATOM     11  C   UNL     1      47.852   4.155  16.575  0.00  0.00    +0.000 A 
ATOM     12  C   UNL     1      47.866   2.986  17.321  0.00  0.00    +0.000 A 
ATOM     13  C   UNL     1      48.395   3.038  18.604  0.00  0.00    +0.000 A 
ATOM     14  C   UNL     1      48.877   4.250  19.096  0.00  0.00    +0.000 A 
ATOM     15  C   UNL     1      48.803   5.388  18.293  0.00  0.00    +0.000 A 
ATOM     16  N   UNL     1      48.318   5.352  17.029  0.00  0.00    +0.000 NA
BRANCH  11  18
ATOM     17  N   UNL     1      46.761   5.327  14.755  0.00  0.00    +0.000 N 
ATOM     18  C   UNL     1      47.301   4.144  15.183  0.00  0.00    +0.000 C 
ATOM     19  O   UNL     1      47.328   3.152  14.468  0.00  0.00    +0.000 OA
ATOM     20  H   UNL     1      46.395   5.395  13.818  0.00  0.00    +0.000 HD
ATOM     21  H   UNL     1      46.794   6.139  15.361  0.00  0.00    +0.000 HD
ENDBRANCH  11  18
ENDBRANCH  10  15
ENDBRANCH   9  10
ENDBRANCH   7   9
ENDBRANCH   1   7
BRANCH   4  22
ATOM     22  C   UNL     1      47.638   7.861  11.528  0.00  0.00    +0.000 C 
BRANCH  22  23
ATOM     23  N   UNL     1      46.941   6.611  11.388  0.00  0.00    +0.000 N 
ATOM     24  C   UNL     1      45.579   6.549  11.530  0.00  0.00    +0.000 C 
ATOM     25  O   UNL     1      44.900   7.555  11.725  0.00  0.00    +0.000 OA
ATOM     26  H   UNL     1      47.493   5.762  11.454  0.00  0.00    +0.000 HD
BRANCH  24  27
ATOM     27  C   UNL     1      44.961   5.228  11.378  0.00  0.00    +0.000 A 
ATOM     28  C   UNL     1      44.253   4.677  12.437  0.00  0.00    +0.000 A 
ATOM     29  S   UNL     1      43.563   3.159  12.084  0.00  0.00    +0.000 S 
ATOM     30  C   UNL     1      44.230   3.160  10.519  0.00  0.00    +0.000 A 
ATOM     31  N   UNL     1      44.042   2.106   9.679  0.00  0.00    +0.000 NA
ATOM     32  C   UNL     1      44.632   2.224   8.537  0.00  0.00    +0.000 A 
ATOM     33  N   UNL     1      45.386   3.302   8.154  0.00  0.00    +0.000 N 
ATOM     34  C   UNL     1      45.575   4.404   8.956  0.00  0.00    +0.000 A 
ATOM     35  O   UNL     1      46.212   5.375   8.562  0.00  0.00    +0.000 OA
ATOM     36  C   UNL     1      44.949   4.313  10.261  0.00  0.00    +0.000 A 
ATOM     37  H   UNL     1      45.813   3.338   7.240  0.00  0.00    +0.000 HD
ENDBRANCH  24  27
ENDBRANCH  22  23
ENDBRANCH   4  22
TORSDOF 8
ENDMDL
MODEL 4
REMARK VINA RESULT:    -7.671      3.343      8.837
REMARK INTER + INTRA:         -12.592
REMARK INTER:                 -10.754
REMARK INTRA:                  -1.838
REMARK UNBOUND:                -1.333
REMARK  Name = 
REMARK  8 active torsions:
REMARK  status: ('A' for Active; 'I' for Inactive)
REMARK    1  A    between atoms: C_2  and  C_4
REMARK    2  A    between atoms: C_8  and  C_9
REMARK    3  A    between atoms: C_9  and  C_10
REMARK    4  A    between atoms: C_10  and  N_11
REMARK    5  A    between atoms: N_11  and  C_12
REMARK    6  A    between atoms: C_15  and  C_16
REMARK    7  A    between atoms: C_16  and  N_17
REMARK    8  A    between atoms: C_18  and  C_20
REMARK                            x       y       z     vdW  Elec       q    Type
REMARK                         _______ _______ _______ _____ _____    ______ ____
ROOT
ATOM      1  C   UNL     1      49.185   7.906  16.157  0.00  0.00    +0.000 A 
ATOM      2  C   UNL     1      48.296   8.890  15.709  0.00  0.00    +0.000 A 
ATOM      3  C   UNL     1      47.838   8.896  14.386  0.00  0.00    +0.000 A 
ATOM      4  C   UNL     1      48.271   7.924  13.480  0.00  0.00    +0.000 A 
ATOM      5  C   UNL     1      49.239   7.004  13.897  0.00  0.00    +0.000 A 
ATOM      6  C   UNL     1      49.695   7.006  15.218  0.00  0.00    +0.000 A 
ENDROOT
BRANCH   1   7
ATOM      7  N   UNL     1      49.630   7.787  17.479  0.00  0.00    +0.000 N 
ATOM      8  H   UNL     1      50.399   8.437  17.643  0.00  0.00    +0.000 HD
BRANCH   7   9
ATOM      9  C   UNL     1      48.648   7.812  18.568  0.00  0.00    +0.000 C 
BRANCH   9  10
ATOM     10  C   UNL     1      48.639   6.485  19.341  0.00  0.00    +0.000 C 
BRANCH  10  15
ATOM     11  C   UNL     1      49.346   3.364  17.490  0.00  0.00    +0.000 A 
ATOM     12  C   UNL     1      48.146   3.048  16.869  0.00  0.00    +0.000 A 
ATOM     13  C   UNL     1      47.064   3.893  17.075  0.00  0.00    +0.000 A 
ATOM     14  C   UNL     1      47.220   5.021  17.878  0.00  0.00    +0.000 A 
ATOM     15  C   UNL     1      48.467   5.285  18.445  0.00  0.00    +0.000 A 
ATOM     16  N   UNL     1      49.527   4.458  18.281  0.00  0.00    +0.000 NA
BRANCH  11  18
ATOM     17  N   UNL     1      51.596   2.735  18.133  0.00  0.00    +0.000 N 
ATOM     18  C   UNL     1      50.537   2.475  17.306  0.00  0.00    +0.000 C 
ATOM     19  O   UNL     1      50.570   1.575  16.478  0.00  0.00    +0.000 OA
ATOM     20  H   UNL     1      52.421   2.157  18.078  0.00  0.00    +0.000 HD
ATOM     21  H   UNL     1      51.517   3.462  18.835  0.00  0.00    +0.000 HD
ENDBRANCH  11  18
ENDBRANCH  10  15
ENDBRANCH   9  10
ENDBRANCH   7   9
ENDBRANCH   1   7
BRANCH   4  22
ATOM     22  C   UNL     1      47.726   7.872  12.080  0.00  0.00    +0.000 C 
BRANCH  22  23
ATOM     23  N   UNL     1      47.015   6.647  11.836  0.00  0.00    +0.000 N 
ATOM     24  C   UNL     1      45.670   6.558  12.076  0.00  0.00    +0.000 C 
ATOM     25  O   UNL     1      45.011   7.526  12.452  0.00  0.00    +0.000 OA
ATOM     26  H   UNL     1      47.568   5.799  11.747  0.00  0.00    +0.000 HD
BRANCH  24  27
ATOM     27  C   UNL     1      45.036   5.263  11.803  0.00  0.00    +0.000 A 
ATOM     28  C   UNL     1      44.365   4.601  12.822  0.00  0.00    +0.000 A 
ATOM     29  S   UNL     1      43.651   3.133  12.331  0.00  0.00    +0.000 S 
ATOM     30  C   UNL     1      44.258   3.304  10.751  0.00  0.00    +0.000 A 
ATOM     31  N   UNL     1      44.030   2.350   9.808  0.00  0.00    +0.000 NA
ATOM     32  C   UNL     1      44.578   2.591   8.664  0.00  0.00    +0.000 A 
ATOM     33  N   UNL     1      45.324   3.702   8.373  0.00  0.00    +0.000 N 
ATOM     34  C   UNL     1      45.551   4.709   9.283  0.00  0.00    +0.000 A 
ATOM     35  O   UNL     1      46.180   5.716   8.975  0.00  0.00    +0.000 OA
ATOM     36  C   UNL     1      44.975   4.477  10.594  0.00  0.00    +0.000 A 
ATOM     37  H   UNL     1      45.716   3.837   7.453  0.00  0.00    +0.000 HD
ENDBRANCH  24  27
ENDBRANCH  22  23
ENDBRANCH   4  22
TORSDOF 8
ENDMDL
MODEL 5
REMARK VINA RESULT:    -7.247      2.219      2.952
REMARK INTER + INTRA:         -11.970
REMARK INTER:                 -11.034
REMARK INTRA:                  -0.936
REMARK UNBOUND:                -1.333
REMARK  Name = 
REMARK  8 active torsions:
REMARK  status: ('A' for Active; 'I' for Inactive)
REMARK    1  A    between atoms: C_2  and  C_4
REMARK    2  A    between atoms: C_8  and  C_9
REMARK    3  A    between atoms: C_9  and  C_10
REMARK    4  A    between atoms: C_10  and  N_11
REMARK    5  A    between atoms: N_11  and  C_12
REMARK    6  A    between atoms: C_15  and  C_16
REMARK    7  A    between atoms: C_16  and  N_17
REMARK    8  A    between atoms: C_18  and  C_20
REMARK                            x       y       z     vdW  Elec       q    Type
REMARK                         _______ _______ _______ _____ _____    ______ ____
ROOT
ATOM      1  C   UNL     1      44.715   3.391  10.916  0.00  0.00    +0.000 A 
ATOM      2  C   UNL     1      45.220   3.352  12.221  0.00  0.00    +0.000 A 
ATOM      3  C   UNL     1      45.809   4.483  12.798  0.00  0.00    +0.000 A 
ATOM      4  C   UNL     1      45.918   5.674  12.074  0.00  0.00    +0.000 A 
ATOM      5  C   UNL     1      45.510   5.684  10.736  0.00  0.00    +0.000 A 
ATOM      6  C   UNL     1      44.926   4.550  10.165  0.00  0.00    +0.000 A 
ENDROOT
BRANCH   1   7
ATOM      7  N   UNL     1      44.046   2.328  10.297  0.00  0.00    +0.000 N 
ATOM      8  H   UNL     1      43.040   2.432  10.430  0.00  0.00    +0.000 HD
BRANCH   7   9
ATOM      9  C   UNL     1      44.385   1.982   8.913  0.00  0.00    +0.000 C 
BRANCH   9  10
ATOM     10  C   UNL     1      45.877   1.644   8.773  0.00  0.00    +0.000 C 
BRANCH  10  15
ATOM     11  C   UNL     1      47.014   1.393   5.264  0.00  0.00    +0.000 A 
ATOM     12  C   UNL     1      47.393   2.684   4.927  0.00  0.00    +0.000 A 
ATOM     13  C   UNL     1      47.262   3.674   5.892  0.00  0.00    +0.000 A 
ATOM     14  C   UNL     1      46.773   3.339   7.153  0.00  0.00    +0.000 A 
ATOM     15  C   UNL     1      46.438   2.012   7.422  0.00  0.00    +0.000 A 
ATOM     16  N   UNL     1      46.530   1.037   6.486  0.00  0.00    +0.000 NA
BRANCH  11  18
ATOM     17  N   UNL     1      46.760  -0.949   4.691  0.00  0.00    +0.000 N 
ATOM     18  C   UNL     1      47.126   0.295   4.251  0.00  0.00    +0.000 C 
ATOM     19  O   UNL     1      47.515   0.487   3.107  0.00  0.00    +0.000 OA
ATOM     20  H   UNL     1      46.788  -1.729   4.052  0.00  0.00    +0.000 HD
ATOM     21  H   UNL     1      46.404  -1.062   5.633  0.00  0.00    +0.000 HD
ENDBRANCH  11  18
ENDBRANCH  10  15
ENDBRANCH   9  10
ENDBRANCH   7   9
ENDBRANCH   1   7
BRANCH   4  22
ATOM     22  C   UNL     1      46.476   6.918  12.708  0.00  0.00    +0.000 C 
BRANCH  22  23
ATOM     23  N   UNL     1      46.929   6.669  14.049  0.00  0.00    +0.000 N 
ATOM     24  C   UNL     1      48.266   6.563  14.329  0.00  0.00    +0.000 C 
ATOM     25  O   UNL     1      49.126   6.729  13.465  0.00  0.00    +0.000 OA
ATOM     26  H   UNL     1      46.246   6.312  14.711  0.00  0.00    +0.000 HD
BRANCH  24  27
ATOM     27  C   UNL     1      48.628   6.300  15.726  0.00  0.00    +0.000 A 
ATOM     28  C   UNL     1      49.288   7.277  16.458  0.00  0.00    +0.000 A 
ATOM     29  S   UNL     1      49.598   6.830  18.073  0.00  0.00    +0.000 S 
ATOM     30  C   UNL     1      48.909   5.293  17.837  0.00  0.00    +0.000 A 
ATOM     31  N   UNL     1      48.881   4.378  18.843  0.00  0.00    +0.000 NA
ATOM     32  C   UNL     1      48.360   3.242  18.516  0.00  0.00    +0.000 A 
ATOM     33  N   UNL     1      47.858   2.941  17.278  0.00  0.00    +0.000 N 
ATOM     34  C   UNL     1      47.833   3.845  16.241  0.00  0.00    +0.000 A 
ATOM     35  O   UNL     1      47.328   3.560  15.160  0.00  0.00    +0.000 OA
ATOM     36  C   UNL     1      48.426   5.132  16.550  0.00  0.00    +0.000 A 
ATOM     37  H   UNL     1      47.453   2.036  17.089  0.00  0.00    +0.000 HD
ENDBRANCH  24  27
ENDBRANCH  22  23
ENDBRANCH   4  22
TORSDOF 8
ENDMDL
MODEL 6
REMARK VINA RESULT:    -7.108      3.836      8.642
REMARK INTER + INTRA:         -11.766
REMARK INTER:                 -10.366
REMARK INTRA:                  -1.400
REMARK UNBOUND:                -1.333
REMARK  Name = 
REMARK  8 active torsions:
REMARK  status: ('A' for Active; 'I' for Inactive)
REMARK    1  A    between atoms: C_2  and  C_4
REMARK    2  A    between atoms: C_8  and  C_9
REMARK    3  A    between atoms: C_9  and  C_10
REMARK    4  A    between atoms: C_10  and  N_11
REMARK    5  A    between atoms: N_11  and  C_12
REMARK    6  A    between atoms: C_15  and  C_16
REMARK    7  A    between atoms: C_16  and  N_17
REMARK    8  A    between atoms: C_18  and  C_20
REMARK                            x       y       z     vdW  Elec       q    Type
REMARK                         _______ _______ _______ _____ _____    ______ ____
ROOT
ATOM      1  C   UNL     1      50.108   7.294  15.006  0.00  0.00    +0.000 A 
ATOM      2  C   UNL     1      48.929   6.547  15.103  0.00  0.00    +0.000 A 
ATOM      3  C   UNL     1      47.755   6.969  14.466  0.00  0.00    +0.000 A 
ATOM      4  C   UNL     1      47.735   8.156  13.730  0.00  0.00    +0.000 A 
ATOM      5  C   UNL     1      48.882   8.958  13.719  0.00  0.00    +0.000 A 
ATOM      6  C   UNL     1      50.049   8.532  14.360  0.00  0.00    +0.000 A 
ENDROOT
BRANCH   1   7
ATOM      7  N   UNL     1      51.338   6.903  15.549  0.00  0.00    +0.000 N 
ATOM      8  H   UNL     1      52.058   6.936  14.827  0.00  0.00    +0.000 HD
BRANCH   7   9
ATOM      9  C   UNL     1      51.789   7.511  16.804  0.00  0.00    +0.000 C 
BRANCH   9  10
ATOM     10  C   UNL     1      51.975   6.452  17.901  0.00  0.00    +0.000 C 
BRANCH  10  15
ATOM     11  C   UNL     1      49.929   3.393  17.552  0.00  0.00    +0.000 A 
ATOM     12  C   UNL     1      48.742   3.691  18.205  0.00  0.00    +0.000 A 
ATOM     13  C   UNL     1      48.617   4.946  18.787  0.00  0.00    +0.000 A 
ATOM     14  C   UNL     1      49.668   5.855  18.686  0.00  0.00    +0.000 A 
ATOM     15  C   UNL     1      50.819   5.489  17.989  0.00  0.00    +0.000 A 
ATOM     16  N   UNL     1      50.974   4.260  17.440  0.00  0.00    +0.000 NA
BRANCH  11  18
ATOM     17  N   UNL     1      51.081   1.262  17.487  0.00  0.00    +0.000 N 
ATOM     18  C   UNL     1      50.114   2.048  16.920  0.00  0.00    +0.000 C 
ATOM     19  O   UNL     1      49.452   1.668  15.965  0.00  0.00    +0.000 OA
ATOM     20  H   UNL     1      51.240   0.333  17.126  0.00  0.00    +0.000 HD
ATOM     21  H   UNL     1      51.581   1.594  18.303  0.00  0.00    +0.000 HD
ENDBRANCH  11  18
ENDBRANCH  10  15
ENDBRANCH   9  10
ENDBRANCH   7   9
ENDBRANCH   1   7
BRANCH   4  22
ATOM     22  C   UNL     1      46.505   8.581  12.977  0.00  0.00    +0.000 C 
BRANCH  22  23
ATOM     23  N   UNL     1      45.869   7.463  12.333  0.00  0.00    +0.000 N 
ATOM     24  C   UNL     1      46.517   6.755  11.357  0.00  0.00    +0.000 C 
ATOM     25  O   UNL     1      47.676   7.006  11.032  0.00  0.00    +0.000 OA
ATOM     26  H   UNL     1      44.860   7.389  12.425  0.00  0.00    +0.000 HD
BRANCH  24  27
ATOM     27  C   UNL     1      45.781   5.638  10.755  0.00  0.00    +0.000 A 
ATOM     28  C   UNL     1      45.802   5.466   9.377  0.00  0.00    +0.000 A 
ATOM     29  S   UNL     1      44.934   4.100   8.844  0.00  0.00    +0.000 S 
ATOM     30  C   UNL     1      44.455   3.718  10.431  0.00  0.00    +0.000 A 
ATOM     31  N   UNL     1      43.648   2.651  10.679  0.00  0.00    +0.000 NA
ATOM     32  C   UNL     1      43.335   2.498  11.923  0.00  0.00    +0.000 A 
ATOM     33  N   UNL     1      43.761   3.309  12.941  0.00  0.00    +0.000 N 
ATOM     34  C   UNL     1      44.604   4.378  12.742  0.00  0.00    +0.000 A 
ATOM     35  O   UNL     1      45.009   5.052  13.683  0.00  0.00    +0.000 OA
ATOM     36  C   UNL     1      44.970   4.606  11.358  0.00  0.00    +0.000 A 
ATOM     37  H   UNL     1      43.489   3.128  13.896  0.00  0.00    +0.000 HD
ENDBRANCH  24  27
ENDBRANCH  22  23
ENDBRANCH   4  22
TORSDOF 8
ENDMDL
MODEL 7
REMARK VINA RESULT:    -6.821      3.672      8.465
REMARK INTER + INTRA:         -11.345
REMARK INTER:                  -9.177
REMARK INTRA:                  -2.168
REMARK UNBOUND:                -1.333
REMARK  Name = 
REMARK  8 active torsions:
REMARK  status: ('A' for Active; 'I' for Inactive)
REMARK    1  A    between atoms: C_2  and  C_4
REMARK    2  A    between atoms: C_8  and  C_9
REMARK    3  A    between atoms: C_9  and  C_10
REMARK    4  A    between atoms: C_10  and  N_11
REMARK    5  A    between atoms: N_11  and  C_12
REMARK    6  A    between atoms: C_15  and  C_16
REMARK    7  A    between atoms: C_16  and  N_17
REMARK    8  A    between atoms: C_18  and  C_20
REMARK                            x       y       z     vdW  Elec       q    Type
REMARK                         _______ _______ _______ _____ _____    ______ ____
ROOT
ATOM      1  C   UNL     1      49.450   8.312  19.205  0.00  0.00    +0.000 A 
ATOM      2  C   UNL     1      50.405   8.211  18.187  0.00  0.00    +0.000 A 
ATOM      3  C   UNL     1      50.066   8.471  16.854  0.00  0.00    +0.000 A 
ATOM      4  C   UNL     1      48.758   8.825  16.511  0.00  0.00    +0.000 A 
ATOM      5  C   UNL     1      47.779   8.824  17.510  0.00  0.00    +0.000 A 
ATOM      6  C   UNL     1      48.124   8.559  18.838  0.00  0.00    +0.000 A 
ENDROOT
BRANCH   1   7
ATOM      7  N   UNL     1      49.726   8.141  20.567  0.00  0.00    +0.000 N 
ATOM      8  H   UNL     1      48.922   8.439  21.120  0.00  0.00    +0.000 HD
BRANCH   7   9
ATOM      9  C   UNL     1      50.268   6.860  21.030  0.00  0.00    +0.000 C 
BRANCH   9  10
ATOM     10  C   UNL     1      49.317   5.700  20.698  0.00  0.00    +0.000 C 
BRANCH  10  15
ATOM     11  C   UNL     1      49.346   3.586  17.665  0.00  0.00    +0.000 A 
ATOM     12  C   UNL     1      50.690   3.352  17.416  0.00  0.00    +0.000 A 
ATOM     13  C   UNL     1      51.621   3.919  18.278  0.00  0.00    +0.000 A 
ATOM     14  C   UNL     1      51.178   4.682  19.356  0.00  0.00    +0.000 A 
ATOM     15  C   UNL     1      49.807   4.849  19.554  0.00  0.00    +0.000 A 
ATOM     16  N   UNL     1      48.884   4.330  18.709  0.00  0.00    +0.000 NA
BRANCH  11  18
ATOM     17  N   UNL     1      47.010   3.208  17.141  0.00  0.00    +0.000 N 
ATOM     18  C   UNL     1      48.308   3.005  16.756  0.00  0.00    +0.000 C 
ATOM     19  O   UNL     1      48.590   2.390  15.737  0.00  0.00    +0.000 OA
ATOM     20  H   UNL     1      46.261   2.865  16.560  0.00  0.00    +0.000 HD
ATOM     21  H   UNL     1      46.814   3.758  17.970  0.00  0.00    +0.000 HD
ENDBRANCH  11  18
ENDBRANCH  10  15
ENDBRANCH   9  10
ENDBRANCH   7   9
ENDBRANCH   1   7
BRANCH   4  22
ATOM     22  C   UNL     1      48.399   9.184  15.096  0.00  0.00    +0.000 C 
BRANCH  22  23
ATOM     23  N   UNL     1      47.508   8.216  14.515  0.00  0.00    +0.000 N 
ATOM     24  C   UNL     1      47.143   8.302  13.198  0.00  0.00    +0.000 C 
ATOM     25  O   UNL     1      47.599   9.166  12.452  0.00  0.00    +0.000 OA
ATOM     26  H   UNL     1      46.960   7.649  15.155  0.00  0.00    +0.000 HD
BRANCH  24  27
ATOM     27  C   UNL     1      46.224   7.272  12.701  0.00  0.00    +0.000 A 
ATOM     28  C   UNL     1      45.125   7.644  11.940  0.00  0.00    +0.000 A 
ATOM     29  S   UNL     1      44.183   6.327  11.406  0.00  0.00    +0.000 S 
ATOM     30  C   UNL     1      45.182   5.215  12.218  0.00  0.00    +0.000 A 
ATOM     31  N   UNL     1      44.908   3.883  12.194  0.00  0.00    +0.000 NA
ATOM     32  C   UNL     1      45.727   3.157  12.880  0.00  0.00    +0.000 A 
ATOM     33  N   UNL     1      46.800   3.641  13.581  0.00  0.00    +0.000 N 
ATOM     34  C   UNL     1      47.136   4.975  13.606  0.00  0.00    +0.000 A 
ATOM     35  O   UNL     1      48.134   5.369  14.200  0.00  0.00    +0.000 OA
ATOM     36  C   UNL     1      46.234   5.837  12.867  0.00  0.00    +0.000 A 
ATOM     37  H   UNL     1      47.411   3.019  14.089  0.00  0.00    +0.000 HD
ENDBRANCH  24  27
ENDBRANCH  22  23
ENDBRANCH   4  22
TORSDOF 8
ENDMDL
MODEL 8
REMARK VINA RESULT:    -6.784      3.876      8.404
REMARK INTER + INTRA:         -11.290
REMARK INTER:                  -9.053
REMARK INTRA:                  -2.238
REMARK UNBOUND:                -1.333
REMARK  Name = 
REMARK  8 active torsions:
REMARK  status: ('A' for Active; 'I' for Inactive)
REMARK    1  A    between atoms: C_2  and  C_4
REMARK    2  A    between atoms: C_8  and  C_9
REMARK    3  A    between atoms: C_9  and  C_10
REMARK    4  A    between atoms: C_10  and  N_11
REMARK    5  A    between atoms: N_11  and  C_12
REMARK    6  A    between atoms: C_15  and  C_16
REMARK    7  A    between atoms: C_16  and  N_17
REMARK    8  A    between atoms: C_18  and  C_20
REMARK                            x       y       z     vdW  Elec       q    Type
REMARK                         _______ _______ _______ _____ _____    ______ ____
ROOT
ATOM      1  C   UNL     1      51.507   7.774  16.900  0.00  0.00    +0.000 A 
ATOM      2  C   UNL     1      51.127   6.900  15.875  0.00  0.00    +0.000 A 
ATOM      3  C   UNL     1      50.355   7.348  14.797  0.00  0.00    +0.000 A 
ATOM      4  C   UNL     1      49.934   8.679  14.731  0.00  0.00    +0.000 A 
ATOM      5  C   UNL     1      50.223   9.528  15.805  0.00  0.00    +0.000 A 
ATOM      6  C   UNL     1      50.991   9.073  16.880  0.00  0.00    +0.000 A 
ENDROOT
BRANCH   1   7
ATOM      7  N   UNL     1      52.338   7.423  17.971  0.00  0.00    +0.000 N 
ATOM      8  H   UNL     1      51.960   7.803  18.839  0.00  0.00    +0.000 HD
BRANCH   7   9
ATOM      9  C   UNL     1      52.758   6.026  18.119  0.00  0.00    +0.000 C 
BRANCH   9  10
ATOM     10  C   UNL     1      51.837   5.267  19.086  0.00  0.00    +0.000 C 
BRANCH  10  15
ATOM     11  C   UNL     1      48.873   3.649  17.581  0.00  0.00    +0.000 A 
ATOM     12  C   UNL     1      49.354   2.459  17.055  0.00  0.00    +0.000 A 
ATOM     13  C   UNL     1      50.708   2.185  17.198  0.00  0.00    +0.000 A 
ATOM     14  C   UNL     1      51.523   3.096  17.866  0.00  0.00    +0.000 A 
ATOM     15  C   UNL     1      50.958   4.259  18.390  0.00  0.00    +0.000 A 
ATOM     16  N   UNL     1      49.646   4.559  18.236  0.00  0.00    +0.000 NA
BRANCH  11  18
ATOM     17  N   UNL     1      47.092   5.285  17.749  0.00  0.00    +0.000 N 
ATOM     18  C   UNL     1      47.422   3.992  17.441  0.00  0.00    +0.000 C 
ATOM     19  O   UNL     1      46.582   3.182  17.076  0.00  0.00    +0.000 OA
ATOM     20  H   UNL     1      46.135   5.589  17.651  0.00  0.00    +0.000 HD
ATOM     21  H   UNL     1      47.821   5.939  18.008  0.00  0.00    +0.000 HD
ENDBRANCH  11  18
ENDBRANCH  10  15
ENDBRANCH   9  10
ENDBRANCH   7   9
ENDBRANCH   1   7
BRANCH   4  22
ATOM     22  C   UNL     1      49.172   9.192  13.540  0.00  0.00    +0.000 C 
BRANCH  22  23
ATOM     23  N   UNL     1      48.323   8.177  12.980  0.00  0.00    +0.000 N 
ATOM     24  C   UNL     1      46.972   8.189  13.206  0.00  0.00    +0.000 C 
ATOM     25  O   UNL     1      46.428   9.089  13.844  0.00  0.00    +0.000 OA
ATOM     26  H   UNL     1      48.771   7.326  12.653  0.00  0.00    +0.000 HD
BRANCH  24  27
ATOM     27  C   UNL     1      46.192   7.106  12.598  0.00  0.00    +0.000 A 
ATOM     28  C   UNL     1      45.252   7.404  11.621  0.00  0.00    +0.000 A 
ATOM     29  S   UNL     1      44.463   6.031  10.989  0.00  0.00    +0.000 S 
ATOM     30  C   UNL     1      45.312   4.994  12.036  0.00  0.00    +0.000 A 
ATOM     31  N   UNL     1      45.080   3.654  12.032  0.00  0.00    +0.000 NA
ATOM     32  C   UNL     1      45.768   2.991  12.900  0.00  0.00    +0.000 A 
ATOM     33  N   UNL     1      46.673   3.544  13.767  0.00  0.00    +0.000 N 
ATOM     34  C   UNL     1      46.966   4.888  13.784  0.00  0.00    +0.000 A 
ATOM     35  O   UNL     1      47.820   5.344  14.537  0.00  0.00    +0.000 OA
ATOM     36  C   UNL     1      46.203   5.683  12.840  0.00  0.00    +0.000 A 
ATOM     37  H   UNL     1      47.188   2.968  14.416  0.00  0.00    +0.000 HD
ENDBRANCH  24  27
ENDBRANCH  22  23
ENDBRANCH   4  22
TORSDOF 8
ENDMDL
MODEL 9
REMARK VINA RESULT:    -6.570      3.158      4.389
REMARK INTER + INTRA:         -10.976
REMARK INTER:                  -9.163
REMARK INTRA:                  -1.813
REMARK UNBOUND:                -1.333
REMARK  Name = 
REMARK  8 active torsions:
REMARK  status: ('A' for Active; 'I' for Inactive)
REMARK    1  A    between atoms: C_2  and  C_4
REMARK    2  A    between atoms: C_8  and  C_9
REMARK    3  A    between atoms: C_9  and  C_10
REMARK    4  A    between atoms: C_10  and  N_11
REMARK    5  A    between atoms: N_11  and  C_12
REMARK    6  A    between atoms: C_15  and  C_16
REMARK    7  A    between atoms: C_16  and  N_17
REMARK    8  A    between atoms: C_18  and  C_20
REMARK                            x       y       z     vdW  Elec       q    Type
REMARK                         _______ _______ _______ _____ _____    ______ ____
ROOT
ATOM      1  C   UNL     1      47.663   8.685  12.990  0.00  0.00    +0.000 A 
ATOM      2  C   UNL     1      48.746   7.979  12.454  0.00  0.00    +0.000 A 
ATOM      3  C   UNL     1      49.758   7.477  13.281  0.00  0.00    +0.000 A 
ATOM      4  C   UNL     1      49.713   7.684  14.663  0.00  0.00    +0.000 A 
ATOM      5  C   UNL     1      48.688   8.478  15.188  0.00  0.00    +0.000 A 
ATOM      6  C   UNL     1      47.684   8.979  14.356  0.00  0.00    +0.000 A 
ENDROOT
BRANCH   1   7
ATOM      7  N   UNL     1      46.577   9.153  12.241  0.00  0.00    +0.000 N 
ATOM      8  H   UNL     1      46.792   9.089  11.246  0.00  0.00    +0.000 HD
BRANCH   7   9
ATOM      9  C   UNL     1      45.232   8.653  12.546  0.00  0.00    +0.000 C 
BRANCH   9  10
ATOM     10  C   UNL     1      44.702   7.756  11.417  0.00  0.00    +0.000 C 
BRANCH  10  15
ATOM     11  C   UNL     1      45.824   4.596  12.973  0.00  0.00    +0.000 A 
ATOM     12  C   UNL     1      45.115   3.608  12.307  0.00  0.00    +0.000 A 
ATOM     13  C   UNL     1      44.229   4.001  11.312  0.00  0.00    +0.000 A 
ATOM     14  C   UNL     1      44.095   5.355  11.012  0.00  0.00    +0.000 A 
ATOM     15  C   UNL     1      44.864   6.286  11.710  0.00  0.00    +0.000 A 
ATOM     16  N   UNL     1      45.711   5.927  12.704  0.00  0.00    +0.000 NA
BRANCH  11  18
ATOM     17  N   UNL     1      47.019   5.192  14.997  0.00  0.00    +0.000 N 
ATOM     18  C   UNL     1      46.781   4.220  14.062  0.00  0.00    +0.000 C 
ATOM     19  O   UNL     1      47.319   3.123  14.122  0.00  0.00    +0.000 OA
ATOM     20  H   UNL     1      47.634   4.996  15.771  0.00  0.00    +0.000 HD
ATOM     21  H   UNL     1      46.524   6.075  14.937  0.00  0.00    +0.000 HD
ENDBRANCH  11  18
ENDBRANCH  10  15
ENDBRANCH   9  10
ENDBRANCH   7   9
ENDBRANCH   1   7
BRANCH   4  22
ATOM     22  C   UNL     1      50.749   7.083  15.571  0.00  0.00    +0.000 C 
BRANCH  22  23
ATOM     23  N   UNL     1      50.257   6.941  16.914  0.00  0.00    +0.000 N 
ATOM     24  C   UNL     1      49.612   5.798  17.307  0.00  0.00    +0.000 C 
ATOM     25  O   UNL     1      49.480   4.835  16.554  0.00  0.00    +0.000 OA
ATOM     26  H   UNL     1      50.158   7.790  17.463  0.00  0.00    +0.000 HD
BRANCH  24  27
ATOM     27  C   UNL     1      49.139   5.753  18.695  0.00  0.00    +0.000 A 
ATOM     28  C   UNL     1      49.312   4.595  19.440  0.00  0.00    +0.000 A 
ATOM     29  S   UNL     1      48.746   4.720  21.043  0.00  0.00    +0.000 S 
ATOM     30  C   UNL     1      48.201   6.310  20.782  0.00  0.00    +0.000 A 
ATOM     31  N   UNL     1      47.574   7.004  21.770  0.00  0.00    +0.000 NA
ATOM     32  C   UNL     1      47.182   8.186  21.425  0.00  0.00    +0.000 A 
ATOM     33  N   UNL     1      47.367   8.739  20.186  0.00  0.00    +0.000 N 
ATOM     34  C   UNL     1      48.026   8.090  19.168  0.00  0.00    +0.000 A 
ATOM     35  O   UNL     1      48.222   8.635  18.087  0.00  0.00    +0.000 OA
ATOM     36  C   UNL     1      48.469   6.748  19.497  0.00  0.00    +0.000 A 
ATOM     37  H   UNL     1      47.047   9.675  19.983  0.00  0.00    +0.000 HD
ENDBRANCH  24  27
ENDBRANCH  22  23
ENDBRANCH   4  22
TORSDOF 8
ENDMDL
