MODEL 1
REMARK VINA RESULT:    -7.858      0.000      0.000
REMARK INTER + INTRA:         -13.103
REMARK INTER:                 -11.992
REMARK INTRA:                  -1.111
REMARK UNBOUND:                -1.111
REMARK  Name = 
REMARK  9 active torsions:
REMARK  status: ('A' for Active; 'I' for Inactive)
REMARK    1  A    between atoms: C_2  and  C_3
REMARK    2  A    between atoms: C_4  and  C_5
REMARK    3  A    between atoms: C_8  and  C_9
REMARK    4  A    between atoms: C_9  and  N_10
REMARK    5  A    between atoms: N_10  and  C_11
REMARK    6  A    between atoms: C_11  and  C_12
REMARK    7  A    between atoms: C_15  and  C_16
REMARK    8  A    between atoms: C_16  and  N_17
REMARK    9  A    between atoms: C_18  and  C_20
REMARK                            x       y       z     vdW  Elec       q    Type
REMARK                         _______ _______ _______ _____ _____    ______ ____
ROOT
ATOM      1  C   UNL     1      46.983   4.687  14.291  0.00  0.00    +0.000 A 
ATOM      2  C   UNL     1      47.687   5.891  14.126  0.00  0.00    +0.000 A 
ATOM      3  C   UNL     1      48.460   6.417  15.163  0.00  0.00    +0.000 A 
ATOM      4  C   UNL     1      48.541   5.754  16.394  0.00  0.00    +0.000 A 
ATOM      5  C   UNL     1      47.803   4.577  16.578  0.00  0.00    +0.000 A 
ATOM      6  C   UNL     1      47.039   4.046  15.535  0.00  0.00    +0.000 A 
ENDROOT
BRANCH   1   7
ATOM      7  C   UNL     1      46.167   4.102  13.160  0.00  0.00    +0.000 C 
BRANCH   7   8
ATOM      8  N   UNL     1      44.745   4.376  13.340  0.00  0.00    +0.000 NA
ATOM      9  H   UNL     1      44.227   3.501  13.354  0.00  0.00    +0.000 HD
BRANCH   8  10
ATOM     10  C   UNL     1      44.216   5.213  12.266  0.00  0.00    +0.000 C 
BRANCH  10  14
ATOM     11  C   UNL     1      45.460   3.694   8.404  0.00  0.00    +0.000 A 
ATOM     12  C   UNL     1      44.646   2.929   9.249  0.00  0.00    +0.000 A 
ATOM     13  C   UNL     1      44.241   3.427  10.488  0.00  0.00    +0.000 A 
ATOM     14  C   UNL     1      44.663   4.689  10.922  0.00  0.00    +0.000 A 
ATOM     15  C   UNL     1      45.504   5.441  10.092  0.00  0.00    +0.000 A 
ATOM     16  C   UNL     1      45.901   4.946   8.846  0.00  0.00    +0.000 A 
BRANCH  11  18
ATOM     17  C   UNL     1      46.971   2.395   6.957  0.00  0.00    +0.000 C 
ATOM     18  C   UNL     1      45.903   3.191   7.099  0.00  0.00    +0.000 C 
BRANCH  17  20
ATOM     19  N   UNL     1      47.833   1.547   4.453  0.00  0.00    +0.000 NA
ATOM     20  C   UNL     1      47.442   1.932   5.588  0.00  0.00    +0.000 C 
ENDBRANCH  17  20
ENDBRANCH  11  18
ENDBRANCH  10  14
ENDBRANCH   8  10
ENDBRANCH   7   8
ENDBRANCH   1   7
BRANCH   4  21
ATOM     21  C   UNL     1      49.369   6.316  17.519  0.00  0.00    +0.000 C 
BRANCH  21  22
ATOM     22  N   UNL     1      50.360   5.367  17.954  0.00  0.00    +0.000 N 
ATOM     23  C   UNL     1      51.609   5.339  17.391  0.00  0.00    +0.000 C 
ATOM     24  O   UNL     1      51.955   6.149  16.535  0.00  0.00    +0.000 OA
ATOM     25  H   UNL     1      50.029   4.565  18.484  0.00  0.00    +0.000 HD
BRANCH  23  26
ATOM     26  C   UNL     1      52.539   4.329  17.907  0.00  0.00    +0.000 A 
ATOM     27  C   UNL     1      53.719   4.731  18.520  0.00  0.00    +0.000 A 
ATOM     28  S   UNL     1      54.666   3.439  19.099  0.00  0.00    +0.000 S 
ATOM     29  C   UNL     1      53.559   2.291  18.509  0.00  0.00    +0.000 A 
ATOM     30  N   UNL     1      53.790   0.957  18.653  0.00  0.00    +0.000 NA
ATOM     31  C   UNL     1      52.885   0.200  18.133  0.00  0.00    +0.000 A 
ATOM     32  N   UNL     1      51.763   0.653  17.488  0.00  0.00    +0.000 N 
ATOM     33  C   UNL     1      51.473   1.989  17.345  0.00  0.00    +0.000 A 
ATOM     34  O   UNL     1      50.438   2.359  16.799  0.00  0.00    +0.000 OA
ATOM     35  C   UNL     1      52.470   2.886  17.898  0.00  0.00    +0.000 A 
ATOM     36  H   UNL     1      51.086   0.006  17.111  0.00  0.00    +0.000 HD
ENDBRANCH  23  26
ENDBRANCH  21  22
ENDBRANCH   4  21
TORSDOF 9
ENDMDL
MODEL 2
REMARK VINA RESULT:    -7.533      3.170      4.125
REMARK INTER + INTRA:         -12.607
REMARK INTER:                 -12.045
REMARK INTRA:                  -0.562
REMARK UNBOUND:                -1.111
REMARK  Name = 
REMARK  9 active torsions:
REMARK  status: ('A' for Active; 'I' for Inactive)
REMARK    1  A    between atoms: C_2  and  C_3
REMARK    2  A    between atoms: C_4  and  C_5
REMARK    3  A    between atoms: C_8  and  C_9
REMARK    4  A    between atoms: C_9  and  N_10
REMARK    5  A    between atoms: N_10  and  C_11
REMARK    6  A    between atoms: C_11  and  C_12
REMARK    7  A    between atoms: C_15  and  C_16
REMARK    8  A    between atoms: C_16  and  N_17
REMARK    9  A    between atoms: C_18  and  C_20
REMARK                            x       y       z     vdW  Elec       q    Type
REMARK                         _______ _______ _______ _____ _____    ______ ____
ROOT
ATOM      1  C   UNL     1      44.845   4.355  12.452  0.00  0.00    +0.000 A 
ATOM      2  C   UNL     1      44.829   5.753  12.318  0.00  0.00    +0.000 A 
ATOM      3  C   UNL     1      45.885   6.530  12.799  0.00  0.00    +0.000 A 
ATOM      4  C   UNL     1      46.977   5.927  13.434  0.00  0.00    +0.000 A 
ATOM      5  C   UNL     1      46.975   4.537  13.612  0.00  0.00    +0.000 A 
ATOM      6  C   UNL     1      45.923   3.759  13.118  0.00  0.00    +0.000 A 
ENDROOT
BRANCH   1   7
ATOM      7  C   UNL     1      43.715   3.509  11.907  0.00  0.00    +0.000 C 
BRANCH   7   8
ATOM      8  N   UNL     1      44.013   3.037  10.558  0.00  0.00    +0.000 NA
ATOM      9  H   UNL     1      44.432   2.111  10.604  0.00  0.00    +0.000 HD
BRANCH   8  10
ATOM     10  C   UNL     1      44.935   3.931   9.864  0.00  0.00    +0.000 C 
BRANCH  10  14
ATOM     11  C   UNL     1      46.767   1.856   6.532  0.00  0.00    +0.000 A 
ATOM     12  C   UNL     1      46.396   1.165   7.693  0.00  0.00    +0.000 A 
ATOM     13  C   UNL     1      45.799   1.837   8.759  0.00  0.00    +0.000 A 
ATOM     14  C   UNL     1      45.583   3.219   8.701  0.00  0.00    +0.000 A 
ATOM     15  C   UNL     1      45.983   3.916   7.553  0.00  0.00    +0.000 A 
ATOM     16  C   UNL     1      46.573   3.240   6.480  0.00  0.00    +0.000 A 
BRANCH  11  18
ATOM     17  C   UNL     1      46.722   0.806   4.304  0.00  0.00    +0.000 C 
ATOM     18  C   UNL     1      47.402   1.172   5.398  0.00  0.00    +0.000 C 
BRANCH  17  20
ATOM     19  N   UNL     1      47.947  -0.576   2.225  0.00  0.00    +0.000 NA
ATOM     20  C   UNL     1      47.391   0.050   3.167  0.00  0.00    +0.000 C 
ENDBRANCH  17  20
ENDBRANCH  11  18
ENDBRANCH  10  14
ENDBRANCH   8  10
ENDBRANCH   7   8
ENDBRANCH   1   7
BRANCH   4  21
ATOM     21  C   UNL     1      48.118   6.757  13.959  0.00  0.00    +0.000 C 
BRANCH  21  22
ATOM     22  N   UNL     1      48.009   6.942  15.383  0.00  0.00    +0.000 N 
ATOM     23  C   UNL     1      49.031   6.585  16.223  0.00  0.00    +0.000 C 
ATOM     24  O   UNL     1      50.097   6.145  15.800  0.00  0.00    +0.000 OA
ATOM     25  H   UNL     1      47.076   7.088  15.759  0.00  0.00    +0.000 HD
BRANCH  23  26
ATOM     26  C   UNL     1      48.813   6.812  17.656  0.00  0.00    +0.000 A 
ATOM     27  C   UNL     1      48.677   8.110  18.133  0.00  0.00    +0.000 A 
ATOM     28  S   UNL     1      48.389   8.198  19.809  0.00  0.00    +0.000 S 
ATOM     29  C   UNL     1      48.482   6.507  19.970  0.00  0.00    +0.000 A 
ATOM     30  N   UNL     1      48.346   5.911  21.185  0.00  0.00    +0.000 NA
ATOM     31  C   UNL     1      48.468   4.628  21.166  0.00  0.00    +0.000 A 
ATOM     32  N   UNL     1      48.706   3.881  20.041  0.00  0.00    +0.000 N 
ATOM     33  C   UNL     1      48.821   4.436  18.789  0.00  0.00    +0.000 A 
ATOM     34  O   UNL     1      48.991   3.735  17.797  0.00  0.00    +0.000 OA
ATOM     35  C   UNL     1      48.708   5.882  18.756  0.00  0.00    +0.000 A 
ATOM     36  H   UNL     1      48.782   2.876  20.093  0.00  0.00    +0.000 HD
ENDBRANCH  23  26
ENDBRANCH  21  22
ENDBRANCH   4  21
TORSDOF 9
ENDMDL
MODEL 3
REMARK VINA RESULT:    -7.341      3.543      4.105
REMARK INTER + INTRA:         -12.315
REMARK INTER:                 -11.128
REMARK INTRA:                  -1.187
REMARK UNBOUND:                -1.111
REMARK  Name = 
REMARK  9 active torsions:
REMARK  status: ('A' for Active; 'I' for Inactive)
REMARK    1  A    between atoms: C_2  and  C_3
REMARK    2  A    between atoms: C_4  and  C_5
REMARK    3  A    between atoms: C_8  and  C_9
REMARK    4  A    between atoms: C_9  and  N_10
REMARK    5  A    between atoms: N_10  and  C_11
REMARK    6  A    between atoms: C_11  and  C_12
REMARK    7  A    between atoms: C_15  and  C_16
REMARK    8  A    between atoms: C_16  and  N_17
REMARK    9  A    between atoms: C_18  and  C_20
REMARK                            x       y       z     vdW  Elec       q    Type
REMARK                         _______ _______ _______ _____ _____    ______ ____
ROOT
ATOM      1  C   UNL     1      45.708   7.032  12.701  0.00  0.00    +0.000 A 
ATOM      2  C   UNL     1      46.513   5.889  12.842  0.00  0.00    +0.000 A 
ATOM      3  C   UNL     1      47.791   5.978  13.397  0.00  0.00    +0.000 A 
ATOM      4  C   UNL     1      48.298   7.214  13.817  0.00  0.00    +0.000 A 
ATOM      5  C   UNL     1      47.516   8.363  13.635  0.00  0.00    +0.000 A 
ATOM      6  C   UNL     1      46.232   8.271  13.090  0.00  0.00    +0.000 A 
ENDROOT
BRANCH   1   7
ATOM      7  C   UNL     1      44.313   6.933  12.125  0.00  0.00    +0.000 C 
BRANCH   7   8
ATOM      8  N   UNL     1      43.537   5.895  12.797  0.00  0.00    +0.000 NA
ATOM      9  H   UNL     1      44.167   5.233  13.245  0.00  0.00    +0.000 HD
BRANCH   8  10
ATOM     10  C   UNL     1      42.685   5.167  11.861  0.00  0.00    +0.000 C 
BRANCH  10  14
ATOM     11  C   UNL     1      45.078   2.865   9.079  0.00  0.00    +0.000 A 
ATOM     12  C   UNL     1      44.738   2.346  10.335  0.00  0.00    +0.000 A 
ATOM     13  C   UNL     1      43.960   3.088  11.223  0.00  0.00    +0.000 A 
ATOM     14  C   UNL     1      43.526   4.377  10.888  0.00  0.00    +0.000 A 
ATOM     15  C   UNL     1      43.894   4.909   9.645  0.00  0.00    +0.000 A 
ATOM     16  C   UNL     1      44.666   4.161   8.751  0.00  0.00    +0.000 A 
BRANCH  11  18
ATOM     17  C   UNL     1      46.631   2.696   7.174  0.00  0.00    +0.000 C 
ATOM     18  C   UNL     1      45.900   2.106   8.129  0.00  0.00    +0.000 C 
BRANCH  17  20
ATOM     19  N   UNL     1      48.093   1.211   5.334  0.00  0.00    +0.000 NA
ATOM     20  C   UNL     1      47.431   1.885   6.168  0.00  0.00    +0.000 C 
ENDBRANCH  17  20
ENDBRANCH  11  18
ENDBRANCH  10  14
ENDBRANCH   8  10
ENDBRANCH   7   8
ENDBRANCH   1   7
BRANCH   4  21
ATOM     21  C   UNL     1      49.676   7.320  14.412  0.00  0.00    +0.000 C 
BRANCH  21  22
ATOM     22  N   UNL     1      49.609   7.593  15.824  0.00  0.00    +0.000 N 
ATOM     23  C   UNL     1      49.749   6.591  16.747  0.00  0.00    +0.000 C 
ATOM     24  O   UNL     1      49.989   5.432  16.417  0.00  0.00    +0.000 OA
ATOM     25  H   UNL     1      49.197   8.480  16.103  0.00  0.00    +0.000 HD
BRANCH  23  26
ATOM     26  C   UNL     1      49.659   6.980  18.159  0.00  0.00    +0.000 A 
ATOM     27  C   UNL     1      50.603   7.847  18.693  0.00  0.00    +0.000 A 
ATOM     28  S   UNL     1      50.332   8.230  20.331  0.00  0.00    +0.000 S 
ATOM     29  C   UNL     1      48.971   7.214  20.401  0.00  0.00    +0.000 A 
ATOM     30  N   UNL     1      48.270   7.061  21.558  0.00  0.00    +0.000 NA
ATOM     31  C   UNL     1      47.280   6.239  21.477  0.00  0.00    +0.000 A 
ATOM     32  N   UNL     1      46.918   5.560  20.342  0.00  0.00    +0.000 N 
ATOM     33  C   UNL     1      47.578   5.705  19.145  0.00  0.00    +0.000 A 
ATOM     34  O   UNL     1      47.201   5.115  18.137  0.00  0.00    +0.000 OA
ATOM     35  C   UNL     1      48.712   6.607  19.185  0.00  0.00    +0.000 A 
ATOM     36  H   UNL     1      46.125   4.936  20.342  0.00  0.00    +0.000 HD
ENDBRANCH  23  26
ENDBRANCH  21  22
ENDBRANCH   4  21
TORSDOF 9
ENDMDL
MODEL 4
REMARK VINA RESULT:    -7.319      2.564      3.803
REMARK INTER + INTRA:         -12.282
REMARK INTER:                 -10.647
REMARK INTRA:                  -1.635
REMARK UNBOUND:                -1.111
REMARK  Name = 
REMARK  9 active torsions:
REMARK  status: ('A' for Active; 'I' for Inactive)
REMARK    1  A    between atoms: C_2  and  C_3
REMARK    2  A    between atoms: C_4  and  C_5
REMARK    3  A    between atoms: C_8  and  C_9
REMARK    4  A    between atoms: C_9  and  N_10
REMARK    5  A    between atoms: N_10  and  C_11
REMARK    6  A    between atoms: C_11  and  C_12
REMARK    7  A    between atoms: C_15  and  C_16
REMARK    8  A    between atoms: C_16  and  N_17
REMARK    9  A    between atoms: C_18  and  C_20
REMARK                            x       y       z     vdW  Elec       q    Type
REMARK                         _______ _______ _______ _____ _____    ______ ____
ROOT
ATOM      1  C   UNL     1      45.755   6.205  12.949  0.00  0.00    +0.000 A 
ATOM      2  C   UNL     1      46.956   5.524  13.202  0.00  0.00    +0.000 A 
ATOM      3  C   UNL     1      48.189   6.117  12.920  0.00  0.00    +0.000 A 
ATOM      4  C   UNL     1      48.247   7.403  12.370  0.00  0.00    +0.000 A 
ATOM      5  C   UNL     1      47.050   8.067  12.073  0.00  0.00    +0.000 A 
ATOM      6  C   UNL     1      45.817   7.477  12.368  0.00  0.00    +0.000 A 
ENDROOT
BRANCH   1   7
ATOM      7  C   UNL     1      44.420   5.574  13.279  0.00  0.00    +0.000 C 
BRANCH   7   8
ATOM      8  N   UNL     1      43.352   6.141  12.461  0.00  0.00    +0.000 NA
ATOM      9  H   UNL     1      42.726   6.689  13.046  0.00  0.00    +0.000 HD
BRANCH   8  10
ATOM     10  C   UNL     1      42.575   5.102  11.791  0.00  0.00    +0.000 C 
BRANCH  10  14
ATOM     11  C   UNL     1      45.107   2.908   9.045  0.00  0.00    +0.000 A 
ATOM     12  C   UNL     1      44.902   4.285   8.890  0.00  0.00    +0.000 A 
ATOM     13  C   UNL     1      44.093   4.988   9.782  0.00  0.00    +0.000 A 
ATOM     14  C   UNL     1      43.448   4.326  10.834  0.00  0.00    +0.000 A 
ATOM     15  C   UNL     1      43.626   2.943  10.971  0.00  0.00    +0.000 A 
ATOM     16  C   UNL     1      44.446   2.241  10.081  0.00  0.00    +0.000 A 
BRANCH  11  18
ATOM     17  C   UNL     1      46.684   2.731   7.160  0.00  0.00    +0.000 C 
ATOM     18  C   UNL     1      45.950   2.145   8.116  0.00  0.00    +0.000 C 
BRANCH  17  20
ATOM     19  N   UNL     1      48.186   1.237   5.360  0.00  0.00    +0.000 NA
ATOM     20  C   UNL     1      47.505   1.914   6.176  0.00  0.00    +0.000 C 
ENDBRANCH  17  20
ENDBRANCH  11  18
ENDBRANCH  10  14
ENDBRANCH   8  10
ENDBRANCH   7   8
ENDBRANCH   1   7
BRANCH   4  21
ATOM     21  C   UNL     1      49.571   8.049  12.059  0.00  0.00    +0.000 C 
BRANCH  21  22
ATOM     22  N   UNL     1      50.568   7.674  13.028  0.00  0.00    +0.000 N 
ATOM     23  C   UNL     1      50.955   8.539  14.017  0.00  0.00    +0.000 C 
ATOM     24  O   UNL     1      50.435   9.644  14.156  0.00  0.00    +0.000 OA
ATOM     25  H   UNL     1      51.155   6.876  12.800  0.00  0.00    +0.000 HD
BRANCH  23  26
ATOM     26  C   UNL     1      51.982   8.057  14.947  0.00  0.00    +0.000 A 
ATOM     27  C   UNL     1      53.264   8.588  14.889  0.00  0.00    +0.000 A 
ATOM     28  S   UNL     1      54.323   7.952  16.062  0.00  0.00    +0.000 S 
ATOM     29  C   UNL     1      53.122   6.907  16.660  0.00  0.00    +0.000 A 
ATOM     30  N   UNL     1      53.387   6.046  17.680  0.00  0.00    +0.000 NA
ATOM     31  C   UNL     1      52.396   5.292  18.013  0.00  0.00    +0.000 A 
ATOM     32  N   UNL     1      51.157   5.325  17.426  0.00  0.00    +0.000 N 
ATOM     33  C   UNL     1      50.834   6.197  16.414  0.00  0.00    +0.000 A 
ATOM     34  O   UNL     1      49.703   6.229  15.940  0.00  0.00    +0.000 OA
ATOM     35  C   UNL     1      51.921   7.058  15.989  0.00  0.00    +0.000 A 
ATOM     36  H   UNL     1      50.418   4.713  17.740  0.00  0.00    +0.000 HD
ENDBRANCH  23  26
ENDBRANCH  21  22
ENDBRANCH   4  21
TORSDOF 9
ENDMDL
MODEL 5
REMARK VINA RESULT:    -7.034      5.471      5.725
REMARK INTER + INTRA:         -11.847
REMARK INTER:                 -10.431
REMARK INTRA:                  -1.415
REMARK UNBOUND:                -1.111
REMARK  Name = 
REMARK  9 active torsions:
REMARK  status: ('A' for Active; 'I' for Inactive)
REMARK    1  A    between atoms: C_2  and  C_3
REMARK    2  A    between atoms: C_4  and  C_5
REMARK    3  A    between atoms: C_8  and  C_9
REMARK    4  A    between atoms: C_9  and  N_10
REMARK    5  A    between atoms: N_10  and  C_11
REMARK    6  A    between atoms: C_11  and  C_12
REMARK    7  A    between atoms: C_15  and  C_16
REMARK    8  A    between atoms: C_16  and  N_17
REMARK    9  A    between atoms: C_18  and  C_20
REMARK                            x       y       z     vdW  Elec       q    Type
REMARK                         _______ _______ _______ _____ _____    ______ ____
ROOT
ATOM      1  C   UNL     1      45.815   6.965  12.590  0.00  0.00    +0.000 A 
ATOM      2  C   UNL     1      46.997   6.545  11.958  0.00  0.00    +0.000 A 
ATOM      3  C   UNL     1      48.020   7.453  11.679  0.00  0.00    +0.000 A 
ATOM      4  C   UNL     1      47.882   8.804  12.018  0.00  0.00    +0.000 A 
ATOM      5  C   UNL     1      46.686   9.235  12.606  0.00  0.00    +0.000 A 
ATOM      6  C   UNL     1      45.667   8.323  12.897  0.00  0.00    +0.000 A 
ENDROOT
BRANCH   1   7
ATOM      7  C   UNL     1      44.716   5.978  12.918  0.00  0.00    +0.000 C 
BRANCH   7   8
ATOM      8  N   UNL     1      43.478   6.318  12.223  0.00  0.00    +0.000 NA
ATOM      9  H   UNL     1      42.868   6.842  12.847  0.00  0.00    +0.000 HD
BRANCH   8  10
ATOM     10  C   UNL     1      42.768   5.125  11.771  0.00  0.00    +0.000 C 
BRANCH  10  14
ATOM     11  C   UNL     1      45.163   2.872   8.950  0.00  0.00    +0.000 A 
ATOM     12  C   UNL     1      44.535   2.236  10.029  0.00  0.00    +0.000 A 
ATOM     13  C   UNL     1      43.758   2.965  10.929  0.00  0.00    +0.000 A 
ATOM     14  C   UNL     1      43.612   4.351  10.787  0.00  0.00    +0.000 A 
ATOM     15  C   UNL     1      44.267   4.992   9.728  0.00  0.00    +0.000 A 
ATOM     16  C   UNL     1      45.038   4.259   8.820  0.00  0.00    +0.000 A 
BRANCH  11  18
ATOM     17  C   UNL     1      46.699   2.731   7.029  0.00  0.00    +0.000 C 
ATOM     18  C   UNL     1      45.990   2.127   7.993  0.00  0.00    +0.000 C 
BRANCH  17  20
ATOM     19  N   UNL     1      48.172   1.273   5.177  0.00  0.00    +0.000 NA
ATOM     20  C   UNL     1      47.504   1.934   6.016  0.00  0.00    +0.000 C 
ENDBRANCH  17  20
ENDBRANCH  11  18
ENDBRANCH  10  14
ENDBRANCH   8  10
ENDBRANCH   7   8
ENDBRANCH   1   7
BRANCH   4  21
ATOM     21  C   UNL     1      48.979   9.790  11.717  0.00  0.00    +0.000 C 
BRANCH  21  22
ATOM     22  N   UNL     1      50.276   9.202  11.933  0.00  0.00    +0.000 N 
ATOM     23  C   UNL     1      51.423   9.884  11.622  0.00  0.00    +0.000 C 
ATOM     24  O   UNL     1      51.400  11.037  11.199  0.00  0.00    +0.000 OA
ATOM     25  H   UNL     1      50.309   8.195  12.064  0.00  0.00    +0.000 HD
BRANCH  23  26
ATOM     26  C   UNL     1      52.689   9.189  11.877  0.00  0.00    +0.000 A 
ATOM     27  C   UNL     1      53.619   9.753  12.741  0.00  0.00    +0.000 A 
ATOM     28  S   UNL     1      55.016   8.802  12.961  0.00  0.00    +0.000 S 
ATOM     29  C   UNL     1      54.452   7.624  11.872  0.00  0.00    +0.000 A 
ATOM     30  N   UNL     1      55.200   6.526  11.579  0.00  0.00    +0.000 NA
ATOM     31  C   UNL     1      54.666   5.731  10.717  0.00  0.00    +0.000 A 
ATOM     32  N   UNL     1      53.445   5.926  10.124  0.00  0.00    +0.000 N 
ATOM     33  C   UNL     1      52.641   7.004  10.411  0.00  0.00    +0.000 A 
ATOM     34  O   UNL     1      51.535   7.126   9.895  0.00  0.00    +0.000 OA
ATOM     35  C   UNL     1      53.204   7.941  11.364  0.00  0.00    +0.000 A 
ATOM     36  H   UNL     1      53.077   5.259   9.462  0.00  0.00    +0.000 HD
ENDBRANCH  23  26
ENDBRANCH  21  22
ENDBRANCH   4  21
TORSDOF 9
ENDMDL
MODEL 6
REMARK VINA RESULT:    -6.780      4.088      9.186
REMARK INTER + INTRA:         -11.458
REMARK INTER:                  -9.543
REMARK INTRA:                  -1.915
REMARK UNBOUND:                -1.111
REMARK  Name = 
REMARK  9 active torsions:
REMARK  status: ('A' for Active; 'I' for Inactive)
REMARK    1  A    between atoms: C_2  and  C_3
REMARK    2  A    between atoms: C_4  and  C_5
REMARK    3  A    between atoms: C_8  and  C_9
REMARK    4  A    between atoms: C_9  and  N_10
REMARK    5  A    between atoms: N_10  and  C_11
REMARK    6  A    between atoms: C_11  and  C_12
REMARK    7  A    between atoms: C_15  and  C_16
REMARK    8  A    between atoms: C_16  and  N_17
REMARK    9  A    between atoms: C_18  and  C_20
REMARK                            x       y       z     vdW  Elec       q    Type
REMARK                         _______ _______ _______ _____ _____    ______ ____
ROOT
ATOM      1  C   UNL     1      49.190  10.099  17.971  0.00  0.00    +0.000 A 
ATOM      2  C   UNL     1      48.247  10.004  16.935  0.00  0.00    +0.000 A 
ATOM      3  C   UNL     1      48.486   9.197  15.821  0.00  0.00    +0.000 A 
ATOM      4  C   UNL     1      49.679   8.472  15.714  0.00  0.00    +0.000 A 
ATOM      5  C   UNL     1      50.643   8.601  16.723  0.00  0.00    +0.000 A 
ATOM      6  C   UNL     1      50.396   9.400  17.844  0.00  0.00    +0.000 A 
ENDROOT
BRANCH   1   7
ATOM      7  C   UNL     1      48.920  10.952  19.191  0.00  0.00    +0.000 C 
BRANCH   7   8
ATOM      8  N   UNL     1      47.674  10.560  19.844  0.00  0.00    +0.000 NA
ATOM      9  H   UNL     1      47.216  11.383  20.228  0.00  0.00    +0.000 HD
BRANCH   8  10
ATOM     10  C   UNL     1      47.908   9.608  20.926  0.00  0.00    +0.000 C 
BRANCH  10  14
ATOM     11  C   UNL     1      48.723   5.683  19.284  0.00  0.00    +0.000 A 
ATOM     12  C   UNL     1      47.549   6.371  18.952  0.00  0.00    +0.000 A 
ATOM     13  C   UNL     1      47.295   7.638  19.477  0.00  0.00    +0.000 A 
ATOM     14  C   UNL     1      48.197   8.236  20.367  0.00  0.00    +0.000 A 
ATOM     15  C   UNL     1      49.356   7.534  20.724  0.00  0.00    +0.000 A 
ATOM     16  C   UNL     1      49.614   6.268  20.189  0.00  0.00    +0.000 A 
BRANCH  11  18
ATOM     17  C   UNL     1      49.805   4.148  17.689  0.00  0.00    +0.000 C 
ATOM     18  C   UNL     1      49.009   4.346  18.748  0.00  0.00    +0.000 C 
BRANCH  17  20
ATOM     19  N   UNL     1      50.238   1.606  16.650  0.00  0.00    +0.000 NA
ATOM     20  C   UNL     1      50.042   2.759  17.121  0.00  0.00    +0.000 C 
ENDBRANCH  17  20
ENDBRANCH  11  18
ENDBRANCH  10  14
ENDBRANCH   8  10
ENDBRANCH   7   8
ENDBRANCH   1   7
BRANCH   4  21
ATOM     21  C   UNL     1      49.948   7.603  14.515  0.00  0.00    +0.000 C 
BRANCH  21  22
ATOM     22  N   UNL     1      48.742   7.373  13.763  0.00  0.00    +0.000 N 
ATOM     23  C   UNL     1      47.919   6.316  14.049  0.00  0.00    +0.000 C 
ATOM     24  O   UNL     1      48.142   5.553  14.987  0.00  0.00    +0.000 OA
ATOM     25  H   UNL     1      48.661   7.845  12.866  0.00  0.00    +0.000 HD
BRANCH  23  26
ATOM     26  C   UNL     1      46.719   6.173  13.218  0.00  0.00    +0.000 A 
ATOM     27  C   UNL     1      46.097   7.307  12.709  0.00  0.00    +0.000 A 
ATOM     28  S   UNL     1      44.744   6.966  11.731  0.00  0.00    +0.000 S 
ATOM     29  C   UNL     1      44.909   5.293  11.990  0.00  0.00    +0.000 A 
ATOM     30  N   UNL     1      44.031   4.410  11.441  0.00  0.00    +0.000 NA
ATOM     31  C   UNL     1      44.256   3.177  11.743  0.00  0.00    +0.000 A 
ATOM     32  N   UNL     1      45.286   2.742  12.537  0.00  0.00    +0.000 N 
ATOM     33  C   UNL     1      46.213   3.594  13.088  0.00  0.00    +0.000 A 
ATOM     34  O   UNL     1      47.147   3.166  13.760  0.00  0.00    +0.000 OA
ATOM     35  C   UNL     1      45.996   4.997  12.794  0.00  0.00    +0.000 A 
ATOM     36  H   UNL     1      45.413   1.759  12.728  0.00  0.00    +0.000 HD
ENDBRANCH  23  26
ENDBRANCH  21  22
ENDBRANCH   4  21
TORSDOF 9
ENDMDL
MODEL 7
REMARK VINA RESULT:    -6.753      3.790      9.626
REMARK INTER + INTRA:         -11.418
REMARK INTER:                  -9.744
REMARK INTRA:                  -1.674
REMARK UNBOUND:                -1.111
REMARK  Name = 
REMARK  9 active torsions:
REMARK  status: ('A' for Active; 'I' for Inactive)
REMARK    1  A    between atoms: C_2  and  C_3
REMARK    2  A    between atoms: C_4  and  C_5
REMARK    3  A    between atoms: C_8  and  C_9
REMARK    4  A    between atoms: C_9  and  N_10
REMARK    5  A    between atoms: N_10  and  C_11
REMARK    6  A    between atoms: C_11  and  C_12
REMARK    7  A    between atoms: C_15  and  C_16
REMARK    8  A    between atoms: C_16  and  N_17
REMARK    9  A    between atoms: C_18  and  C_20
REMARK                            x       y       z     vdW  Elec       q    Type
REMARK                         _______ _______ _______ _____ _____    ______ ____
ROOT
ATOM      1  C   UNL     1      48.610   8.142  16.236  0.00  0.00    +0.000 A 
ATOM      2  C   UNL     1      48.088   9.205  15.481  0.00  0.00    +0.000 A 
ATOM      3  C   UNL     1      47.829   9.056  14.118  0.00  0.00    +0.000 A 
ATOM      4  C   UNL     1      48.094   7.841  13.474  0.00  0.00    +0.000 A 
ATOM      5  C   UNL     1      48.658   6.793  14.214  0.00  0.00    +0.000 A 
ATOM      6  C   UNL     1      48.905   6.940  15.581  0.00  0.00    +0.000 A 
ENDROOT
BRANCH   1   7
ATOM      7  C   UNL     1      48.866   8.294  17.719  0.00  0.00    +0.000 C 
BRANCH   7   8
ATOM      8  N   UNL     1      47.877   7.560  18.503  0.00  0.00    +0.000 NA
ATOM      9  H   UNL     1      47.213   8.212  18.913  0.00  0.00    +0.000 HD
BRANCH   8  10
ATOM     10  C   UNL     1      48.501   6.793  19.578  0.00  0.00    +0.000 C 
BRANCH  10  14
ATOM     11  C   UNL     1      50.661   3.422  17.922  0.00  0.00    +0.000 A 
ATOM     12  C   UNL     1      49.275   3.541  17.754  0.00  0.00    +0.000 A 
ATOM     13  C   UNL     1      48.586   4.633  18.282  0.00  0.00    +0.000 A 
ATOM     14  C   UNL     1      49.262   5.618  19.013  0.00  0.00    +0.000 A 
ATOM     15  C   UNL     1      50.642   5.483  19.209  0.00  0.00    +0.000 A 
ATOM     16  C   UNL     1      51.334   4.393  18.671  0.00  0.00    +0.000 A 
BRANCH  11  18
ATOM     17  C   UNL     1      52.643   1.966  17.792  0.00  0.00    +0.000 C 
ATOM     18  C   UNL     1      51.408   2.281  17.381  0.00  0.00    +0.000 C 
BRANCH  17  20
ATOM     19  N   UNL     1      54.058  -0.146  16.667  0.00  0.00    +0.000 NA
ATOM     20  C   UNL     1      53.416   0.811  17.177  0.00  0.00    +0.000 C 
ENDBRANCH  17  20
ENDBRANCH  11  18
ENDBRANCH  10  14
ENDBRANCH   8  10
ENDBRANCH   7   8
ENDBRANCH   1   7
BRANCH   4  21
ATOM     21  C   UNL     1      47.821   7.672  12.004  0.00  0.00    +0.000 C 
BRANCH  21  22
ATOM     22  N   UNL     1      47.076   6.466  11.752  0.00  0.00    +0.000 N 
ATOM     23  C   UNL     1      45.721   6.417  11.946  0.00  0.00    +0.000 C 
ATOM     24  O   UNL     1      45.077   7.406  12.290  0.00  0.00    +0.000 OA
ATOM     25  H   UNL     1      47.607   5.602  11.688  0.00  0.00    +0.000 HD
BRANCH  23  26
ATOM     26  C   UNL     1      45.063   5.137  11.663  0.00  0.00    +0.000 A 
ATOM     27  C   UNL     1      44.370   4.483  12.674  0.00  0.00    +0.000 A 
ATOM     28  S   UNL     1      43.630   3.033  12.171  0.00  0.00    +0.000 S 
ATOM     29  C   UNL     1      44.247   3.200  10.595  0.00  0.00    +0.000 A 
ATOM     30  N   UNL     1      44.002   2.259   9.644  0.00  0.00    +0.000 NA
ATOM     31  C   UNL     1      44.555   2.496   8.504  0.00  0.00    +0.000 A 
ATOM     32  N   UNL     1      45.326   3.594   8.222  0.00  0.00    +0.000 N 
ATOM     33  C   UNL     1      45.576   4.585   9.141  0.00  0.00    +0.000 A 
ATOM     34  O   UNL     1      46.235   5.576   8.843  0.00  0.00    +0.000 OA
ATOM     35  C   UNL     1      44.990   4.358  10.448  0.00  0.00    +0.000 A 
ATOM     36  H   UNL     1      45.724   3.726   7.304  0.00  0.00    +0.000 HD
ENDBRANCH  23  26
ENDBRANCH  21  22
ENDBRANCH   4  21
TORSDOF 9
ENDMDL
MODEL 8
REMARK VINA RESULT:    -6.528      3.209      4.768
REMARK INTER + INTRA:         -11.074
REMARK INTER:                  -8.906
REMARK INTRA:                  -2.168
REMARK UNBOUND:                -1.111
REMARK  Name = 
REMARK  9 active torsions:
REMARK  status: ('A' for Active; 'I' for Inactive)
REMARK    1  A    between atoms: C_2  and  C_3
REMARK    2  A    between atoms: C_4  and  C_5
REMARK    3  A    between atoms: C_8  and  C_9
REMARK    4  A    between atoms: C_9  and  N_10
REMARK    5  A    between atoms: N_10  and  C_11
REMARK    6  A    between atoms: C_11  and  C_12
REMARK    7  A    between atoms: C_15  and  C_16
REMARK    8  A    between atoms: C_16  and  N_17
REMARK    9  A    between atoms: C_18  and  C_20
REMARK                            x       y       z     vdW  Elec       q    Type
REMARK                         _______ _______ _______ _____ _____    ______ ____
ROOT
ATOM      1  C   UNL     1      50.060   9.664  14.479  0.00  0.00    +0.000 A 
ATOM      2  C   UNL     1      50.797   8.470  14.402  0.00  0.00    +0.000 A 
ATOM      3  C   UNL     1      50.387   7.330  15.096  0.00  0.00    +0.000 A 
ATOM      4  C   UNL     1      49.234   7.359  15.889  0.00  0.00    +0.000 A 
ATOM      5  C   UNL     1      48.522   8.560  16.005  0.00  0.00    +0.000 A 
ATOM      6  C   UNL     1      48.927   9.698  15.301  0.00  0.00    +0.000 A 
ENDROOT
BRANCH   1   7
ATOM      7  C   UNL     1      50.489  10.892  13.707  0.00  0.00    +0.000 C 
BRANCH   7   8
ATOM      8  N   UNL     1      49.424  11.357  12.823  0.00  0.00    +0.000 NA
ATOM      9  H   UNL     1      48.535  11.339  13.319  0.00  0.00    +0.000 HD
BRANCH   8  10
ATOM     10  C   UNL     1      49.309  10.524  11.630  0.00  0.00    +0.000 C 
BRANCH  10  14
ATOM     11  C   UNL     1      46.381   7.392  12.251  0.00  0.00    +0.000 A 
ATOM     12  C   UNL     1      47.674   7.090  11.807  0.00  0.00    +0.000 A 
ATOM     13  C   UNL     1      48.616   8.101  11.617  0.00  0.00    +0.000 A 
ATOM     14  C   UNL     1      48.278   9.441  11.841  0.00  0.00    +0.000 A 
ATOM     15  C   UNL     1      46.975   9.748  12.254  0.00  0.00    +0.000 A 
ATOM     16  C   UNL     1      46.034   8.733  12.454  0.00  0.00    +0.000 A 
BRANCH  11  18
ATOM     17  C   UNL     1      45.683   5.045  12.518  0.00  0.00    +0.000 C 
ATOM     18  C   UNL     1      45.371   6.346  12.454  0.00  0.00    +0.000 C 
BRANCH  17  20
ATOM     19  N   UNL     1      43.725   3.092  12.802  0.00  0.00    +0.000 NA
ATOM     20  C   UNL     1      44.612   3.978  12.674  0.00  0.00    +0.000 C 
ENDBRANCH  17  20
ENDBRANCH  11  18
ENDBRANCH  10  14
ENDBRANCH   8  10
ENDBRANCH   7   8
ENDBRANCH   1   7
BRANCH   4  21
ATOM     21  C   UNL     1      48.786   6.135  16.643  0.00  0.00    +0.000 C 
BRANCH  21  22
ATOM     22  N   UNL     1      49.912   5.321  17.022  0.00  0.00    +0.000 N 
ATOM     23  C   UNL     1      50.283   5.192  18.334  0.00  0.00    +0.000 C 
ATOM     24  O   UNL     1      49.646   5.717  19.245  0.00  0.00    +0.000 OA
ATOM     25  H   UNL     1      50.568   5.071  16.287  0.00  0.00    +0.000 HD
BRANCH  23  26
ATOM     26  C   UNL     1      51.447   4.342  18.607  0.00  0.00    +0.000 A 
ATOM     27  C   UNL     1      52.485   4.831  19.391  0.00  0.00    +0.000 A 
ATOM     28  S   UNL     1      53.739   3.706  19.646  0.00  0.00    +0.000 S 
ATOM     29  C   UNL     1      52.966   2.541  18.678  0.00  0.00    +0.000 A 
ATOM     30  N   UNL     1      53.537   1.326  18.454  0.00  0.00    +0.000 NA
ATOM     31  C   UNL     1      52.857   0.552  17.679  0.00  0.00    +0.000 A 
ATOM     32  N   UNL     1      51.652   0.877  17.110  0.00  0.00    +0.000 N 
ATOM     33  C   UNL     1      51.024   2.079  17.331  0.00  0.00    +0.000 A 
ATOM     34  O   UNL     1      49.926   2.321  16.841  0.00  0.00    +0.000 OA
ATOM     35  C   UNL     1      51.756   2.996  18.184  0.00  0.00    +0.000 A 
ATOM     36  H   UNL     1      51.165   0.221  16.518  0.00  0.00    +0.000 HD
ENDBRANCH  23  26
ENDBRANCH  21  22
ENDBRANCH   4  21
TORSDOF 9
ENDMDL
MODEL 9
REMARK VINA RESULT:    -6.458      5.041      8.490
REMARK INTER + INTRA:         -10.967
REMARK INTER:                  -8.829
REMARK INTRA:                  -2.138
REMARK UNBOUND:                -1.111
REMARK  Name = 
REMARK  9 active torsions:
REMARK  status: ('A' for Active; 'I' for Inactive)
REMARK    1  A    between atoms: C_2  and  C_3
REMARK    2  A    between atoms: C_4  and  C_5
REMARK    3  A    between atoms: C_8  and  C_9
REMARK    4  A    between atoms: C_9  and  N_10
REMARK    5  A    between atoms: N_10  and  C_11
REMARK    6  A    between atoms: C_11  and  C_12
REMARK    7  A    between atoms: C_15  and  C_16
REMARK    8  A    between atoms: C_16  and  N_17
REMARK    9  A    between atoms: C_18  and  C_20
REMARK                            x       y       z     vdW  Elec       q    Type
REMARK                         _______ _______ _______ _____ _____    ______ ____
ROOT
ATOM      1  C   UNL     1      50.321  10.358  15.862  0.00  0.00    +0.000 A 
ATOM      2  C   UNL     1      51.177   9.324  15.449  0.00  0.00    +0.000 A 
ATOM      3  C   UNL     1      50.731   8.001  15.402  0.00  0.00    +0.000 A 
ATOM      4  C   UNL     1      49.421   7.681  15.775  0.00  0.00    +0.000 A 
ATOM      5  C   UNL     1      48.578   8.703  16.232  0.00  0.00    +0.000 A 
ATOM      6  C   UNL     1      49.021  10.028  16.267  0.00  0.00    +0.000 A 
ENDROOT
BRANCH   1   7
ATOM      7  C   UNL     1      50.794  11.794  15.888  0.00  0.00    +0.000 C 
BRANCH   7   8
ATOM      8  N   UNL     1      49.962  12.639  15.038  0.00  0.00    +0.000 NA
ATOM      9  H   UNL     1      48.980  12.480  15.253  0.00  0.00    +0.000 HD
BRANCH   8  10
ATOM     10  C   UNL     1      50.179  12.361  13.621  0.00  0.00    +0.000 C 
BRANCH  10  14
ATOM     11  C   UNL     1      46.486  11.112  11.731  0.00  0.00    +0.000 A 
ATOM     12  C   UNL     1      46.659  12.430  12.171  0.00  0.00    +0.000 A 
ATOM     13  C   UNL     1      47.853  12.829  12.771  0.00  0.00    +0.000 A 
ATOM     14  C   UNL     1      48.893  11.912  12.969  0.00  0.00    +0.000 A 
ATOM     15  C   UNL     1      48.709  10.586  12.559  0.00  0.00    +0.000 A 
ATOM     16  C   UNL     1      47.515  10.189  11.949  0.00  0.00    +0.000 A 
BRANCH  11  18
ATOM     17  C   UNL     1      44.035  11.116  11.485  0.00  0.00    +0.000 C 
ATOM     18  C   UNL     1      45.237  10.666  11.101  0.00  0.00    +0.000 C 
BRANCH  17  20
ATOM     19  N   UNL     1      41.690  10.169  10.330  0.00  0.00    +0.000 NA
ATOM     20  C   UNL     1      42.754  10.598  10.854  0.00  0.00    +0.000 C 
ENDBRANCH  17  20
ENDBRANCH  11  18
ENDBRANCH  10  14
ENDBRANCH   8  10
ENDBRANCH   7   8
ENDBRANCH   1   7
BRANCH   4  21
ATOM     21  C   UNL     1      48.933   6.258  15.730  0.00  0.00    +0.000 C 
BRANCH  21  22
ATOM     22  N   UNL     1      47.749   6.142  14.918  0.00  0.00    +0.000 N 
ATOM     23  C   UNL     1      47.823   6.175  13.551  0.00  0.00    +0.000 C 
ATOM     24  O   UNL     1      48.898   6.250  12.959  0.00  0.00    +0.000 OA
ATOM     25  H   UNL     1      46.858   6.303  15.378  0.00  0.00    +0.000 HD
BRANCH  23  26
ATOM     26  C   UNL     1      46.556   6.054  12.821  0.00  0.00    +0.000 A 
ATOM     27  C   UNL     1      45.971   7.186  12.269  0.00  0.00    +0.000 A 
ATOM     28  S   UNL     1      44.528   6.867  11.421  0.00  0.00    +0.000 S 
ATOM     29  C   UNL     1      44.605   5.212  11.801  0.00  0.00    +0.000 A 
ATOM     30  N   UNL     1      43.633   4.353  11.390  0.00  0.00    +0.000 NA
ATOM     31  C   UNL     1      43.801   3.134  11.774  0.00  0.00    +0.000 A 
ATOM     32  N   UNL     1      44.859   2.689  12.525  0.00  0.00    +0.000 N 
ATOM     33  C   UNL     1      45.879   3.513  12.937  0.00  0.00    +0.000 A 
ATOM     34  O   UNL     1      46.832   3.074  13.572  0.00  0.00    +0.000 OA
ATOM     35  C   UNL     1      45.729   4.901  12.547  0.00  0.00    +0.000 A 
ATOM     36  H   UNL     1      44.937   1.717  12.785  0.00  0.00    +0.000 HD
ENDBRANCH  23  26
ENDBRANCH  21  22
ENDBRANCH   4  21
TORSDOF 9
ENDMDL
