MODEL 1
REMARK VINA RESULT:    -8.459      0.000      0.000
REMARK INTER + INTRA:         -12.898
REMARK INTER:                 -11.920
REMARK INTRA:                  -0.978
REMARK UNBOUND:                -0.978
REMARK  Name = 
REMARK  8 active torsions:
REMARK  status: ('A' for Active; 'I' for Inactive)
REMARK    1  A    between atoms: C_1  and  C_2
REMARK    2  A    between atoms: C_7  and  C_8
REMARK    3  A    between atoms: C_8  and  N_9
REMARK    4  A    between atoms: N_9  and  C_10
REMARK    5  A    between atoms: C_10  and  C_11
REMARK    6  A    between atoms: C_14  and  C_15
REMARK    7  A    between atoms: C_15  and  N_16
REMARK    8  A    between atoms: C_17  and  C_19
REMARK                            x       y       z     vdW  Elec       q    Type
REMARK                         _______ _______ _______ _____ _____    ______ ____
ROOT
ATOM      1  C   UNL     1      44.998   3.900  11.778  0.00  0.00    +0.000 A 
ATOM      2  C   UNL     1      45.260   5.103  11.127  0.00  0.00    +0.000 A 
ATOM      3  C   UNL     1      46.218   5.964  11.656  0.00  0.00    +0.000 A 
ATOM      4  C   UNL     1      46.900   5.615  12.825  0.00  0.00    +0.000 A 
ATOM      5  C   UNL     1      46.561   4.402  13.411  0.00  0.00    +0.000 A 
ATOM      6  F   UNL     1      47.184   4.027  14.539  0.00  0.00    +0.000 F 
ATOM      7  N   UNL     1      45.639   3.540  12.918  0.00  0.00    +0.000 NA
ENDROOT
BRANCH   1   8
ATOM      8  C   UNL     1      43.982   2.929  11.204  0.00  0.00    +0.000 C 
BRANCH   8   9
ATOM      9  N   UNL     1      43.934   2.899   9.729  0.00  0.00    +0.000 NA
ATOM     10  H   UNL     1      42.962   2.881   9.432  0.00  0.00    +0.000 HD
BRANCH   9  11
ATOM     11  C   UNL     1      44.610   1.731   9.159  0.00  0.00    +0.000 C 
BRANCH  11  18
ATOM     12  C   UNL     1      46.635  -0.218   7.803  0.00  0.00    +0.000 C 
ATOM     13  C   UNL     1      46.662   1.276   7.626  0.00  0.00    +0.000 A 
ATOM     14  C   UNL     1      47.678   1.806   6.805  0.00  0.00    +0.000 A 
ATOM     15  C   UNL     1      47.780   3.175   6.567  0.00  0.00    +0.000 A 
ATOM     16  C   UNL     1      46.868   4.043   7.148  0.00  0.00    +0.000 A 
ATOM     17  C   UNL     1      45.862   3.541   7.973  0.00  0.00    +0.000 A 
ATOM     18  C   UNL     1      45.745   2.159   8.240  0.00  0.00    +0.000 A 
ENDBRANCH  11  18
ENDBRANCH   9  11
ENDBRANCH   8   9
ENDBRANCH   1   8
BRANCH   4  19
ATOM     19  C   UNL     1      47.949   6.521  13.400  0.00  0.00    +0.000 C 
BRANCH  19  20
ATOM     20  N   UNL     1      47.867   6.605  14.839  0.00  0.00    +0.000 N 
ATOM     21  C   UNL     1      48.991   6.671  15.630  0.00  0.00    +0.000 C 
ATOM     22  O   UNL     1      50.123   6.751  15.166  0.00  0.00    +0.000 OA
ATOM     23  H   UNL     1      47.018   6.243  15.261  0.00  0.00    +0.000 HD
BRANCH  21  24
ATOM     24  C   UNL     1      48.752   6.730  17.076  0.00  0.00    +0.000 A 
ATOM     25  C   UNL     1      48.468   7.938  17.695  0.00  0.00    +0.000 A 
ATOM     26  S   UNL     1      48.178   7.793  19.373  0.00  0.00    +0.000 S 
ATOM     27  C   UNL     1      48.456   6.116  19.333  0.00  0.00    +0.000 A 
ATOM     28  N   UNL     1      48.381   5.358  20.460  0.00  0.00    +0.000 NA
ATOM     29  C   UNL     1      48.637   4.108  20.283  0.00  0.00    +0.000 A 
ATOM     30  N   UNL     1      48.962   3.537  19.079  0.00  0.00    +0.000 N 
ATOM     31  C   UNL     1      49.036   4.253  17.911  0.00  0.00    +0.000 A 
ATOM     32  O   UNL     1      49.286   3.718  16.844  0.00  0.00    +0.000 OA
ATOM     33  C   UNL     1      48.759   5.672  18.059  0.00  0.00    +0.000 A 
ATOM     34  H   UNL     1      49.135   2.547  19.000  0.00  0.00    +0.000 HD
ENDBRANCH  21  24
ENDBRANCH  19  20
ENDBRANCH   4  19
TORSDOF 7
ENDMDL
MODEL 2
REMARK VINA RESULT:    -8.146      1.692      2.749
REMARK INTER + INTRA:         -12.457
REMARK INTER:                 -11.189
REMARK INTRA:                  -1.268
REMARK UNBOUND:                -0.978
REMARK  Name = 
REMARK  8 active torsions:
REMARK  status: ('A' for Active; 'I' for Inactive)
REMARK    1  A    between atoms: C_1  and  C_2
REMARK    2  A    between atoms: C_7  and  C_8
REMARK    3  A    between atoms: C_8  and  N_9
REMARK    4  A    between atoms: N_9  and  C_10
REMARK    5  A    between atoms: C_10  and  C_11
REMARK    6  A    between atoms: C_14  and  C_15
REMARK    7  A    between atoms: C_15  and  N_16
REMARK    8  A    between atoms: C_17  and  C_19
REMARK                            x       y       z     vdW  Elec       q    Type
REMARK                         _______ _______ _______ _____ _____    ______ ____
ROOT
ATOM      1  C   UNL     1      45.317   4.402  12.111  0.00  0.00    +0.000 A 
ATOM      2  C   UNL     1      45.625   5.705  11.728  0.00  0.00    +0.000 A 
ATOM      3  C   UNL     1      46.617   6.397  12.418  0.00  0.00    +0.000 A 
ATOM      4  C   UNL     1      47.287   5.780  13.479  0.00  0.00    +0.000 A 
ATOM      5  C   UNL     1      46.902   4.485  13.796  0.00  0.00    +0.000 A 
ATOM      6  F   UNL     1      47.513   3.853  14.812  0.00  0.00    +0.000 F 
ATOM      7  N   UNL     1      45.946   3.783  13.141  0.00  0.00    +0.000 NA
ENDROOT
BRANCH   1   8
ATOM      8  C   UNL     1      44.262   3.615  11.354  0.00  0.00    +0.000 C 
BRANCH   8   9
ATOM      9  N   UNL     1      44.768   2.395  10.695  0.00  0.00    +0.000 NA
ATOM     10  H   UNL     1      45.784   2.390  10.748  0.00  0.00    +0.000 HD
BRANCH   9  11
ATOM     11  C   UNL     1      44.382   2.304   9.285  0.00  0.00    +0.000 C 
BRANCH  11  18
ATOM     12  C   UNL     1      45.919   4.784   8.176  0.00  0.00    +0.000 C 
ATOM     13  C   UNL     1      46.308   3.358   7.889  0.00  0.00    +0.000 A 
ATOM     14  C   UNL     1      47.429   3.154   7.059  0.00  0.00    +0.000 A 
ATOM     15  C   UNL     1      47.877   1.873   6.745  0.00  0.00    +0.000 A 
ATOM     16  C   UNL     1      47.212   0.768   7.255  0.00  0.00    +0.000 A 
ATOM     17  C   UNL     1      46.094   0.948   8.069  0.00  0.00    +0.000 A 
ATOM     18  C   UNL     1      45.612   2.235   8.392  0.00  0.00    +0.000 A 
ENDBRANCH  11  18
ENDBRANCH   9  11
ENDBRANCH   8   9
ENDBRANCH   1   8
BRANCH   4  19
ATOM     19  C   UNL     1      48.372   6.502  14.223  0.00  0.00    +0.000 C 
BRANCH  19  20
ATOM     20  N   UNL     1      48.039   6.703  15.613  0.00  0.00    +0.000 N 
ATOM     21  C   UNL     1      48.862   6.273  16.629  0.00  0.00    +0.000 C 
ATOM     22  O   UNL     1      49.963   5.774  16.423  0.00  0.00    +0.000 OA
ATOM     23  H   UNL     1      47.053   6.817  15.825  0.00  0.00    +0.000 HD
BRANCH  21  24
ATOM     24  C   UNL     1      48.382   6.528  17.991  0.00  0.00    +0.000 A 
ATOM     25  C   UNL     1      48.243   5.487  18.897  0.00  0.00    +0.000 A 
ATOM     26  S   UNL     1      47.714   5.993  20.441  0.00  0.00    +0.000 S 
ATOM     27  C   UNL     1      47.620   7.615  19.939  0.00  0.00    +0.000 A 
ATOM     28  N   UNL     1      47.212   8.597  20.788  0.00  0.00    +0.000 NA
ATOM     29  C   UNL     1      47.169   9.774  20.265  0.00  0.00    +0.000 A 
ATOM     30  N   UNL     1      47.499  10.066  18.966  0.00  0.00    +0.000 N 
ATOM     31  C   UNL     1      47.931   9.117  18.075  0.00  0.00    +0.000 A 
ATOM     32  O   UNL     1      48.259   9.407  16.937  0.00  0.00    +0.000 OA
ATOM     33  C   UNL     1      47.993   7.770  18.617  0.00  0.00    +0.000 A 
ATOM     34  H   UNL     1      47.461  11.012  18.618  0.00  0.00    +0.000 HD
ENDBRANCH  21  24
ENDBRANCH  19  20
ENDBRANCH   4  19
TORSDOF 7
ENDMDL
MODEL 3
REMARK VINA RESULT:    -7.966      2.029      2.672
REMARK INTER + INTRA:         -12.203
REMARK INTER:                 -11.046
REMARK INTRA:                  -1.158
REMARK UNBOUND:                -0.978
REMARK  Name = 
REMARK  8 active torsions:
REMARK  status: ('A' for Active; 'I' for Inactive)
REMARK    1  A    between atoms: C_1  and  C_2
REMARK    2  A    between atoms: C_7  and  C_8
REMARK    3  A    between atoms: C_8  and  N_9
REMARK    4  A    between atoms: N_9  and  C_10
REMARK    5  A    between atoms: C_10  and  C_11
REMARK    6  A    between atoms: C_14  and  C_15
REMARK    7  A    between atoms: C_15  and  N_16
REMARK    8  A    between atoms: C_17  and  C_19
REMARK                            x       y       z     vdW  Elec       q    Type
REMARK                         _______ _______ _______ _____ _____    ______ ____
ROOT
ATOM      1  C   UNL     1      44.789   4.884  11.814  0.00  0.00    +0.000 A 
ATOM      2  C   UNL     1      45.852   4.876  12.715  0.00  0.00    +0.000 A 
ATOM      3  C   UNL     1      46.434   6.084  13.086  0.00  0.00    +0.000 A 
ATOM      4  C   UNL     1      45.950   7.283  12.554  0.00  0.00    +0.000 A 
ATOM      5  C   UNL     1      44.896   7.191  11.654  0.00  0.00    +0.000 A 
ATOM      6  F   UNL     1      44.401   8.315  11.112  0.00  0.00    +0.000 F 
ATOM      7  N   UNL     1      44.305   6.031  11.278  0.00  0.00    +0.000 NA
ENDROOT
BRANCH   1   8
ATOM      8  C   UNL     1      44.116   3.581  11.420  0.00  0.00    +0.000 C 
BRANCH   8   9
ATOM      9  N   UNL     1      45.011   2.605  10.768  0.00  0.00    +0.000 NA
ATOM     10  H   UNL     1      45.935   3.018  10.674  0.00  0.00    +0.000 HD
BRANCH   9  11
ATOM     11  C   UNL     1      44.548   2.205   9.438  0.00  0.00    +0.000 C 
BRANCH  11  18
ATOM     12  C   UNL     1      45.863   4.789   8.283  0.00  0.00    +0.000 C 
ATOM     13  C   UNL     1      46.292   3.393   7.916  0.00  0.00    +0.000 A 
ATOM     14  C   UNL     1      47.344   3.270   6.985  0.00  0.00    +0.000 A 
ATOM     15  C   UNL     1      47.822   2.022   6.591  0.00  0.00    +0.000 A 
ATOM     16  C   UNL     1      47.257   0.871   7.120  0.00  0.00    +0.000 A 
ATOM     17  C   UNL     1      46.208   0.971   8.034  0.00  0.00    +0.000 A 
ATOM     18  C   UNL     1      45.697   2.223   8.439  0.00  0.00    +0.000 A 
ENDBRANCH  11  18
ENDBRANCH   9  11
ENDBRANCH   8   9
ENDBRANCH   1   8
BRANCH   4  19
ATOM     19  C   UNL     1      46.551   8.598  12.956  0.00  0.00    +0.000 C 
BRANCH  19  20
ATOM     20  N   UNL     1      46.976   8.603  14.336  0.00  0.00    +0.000 N 
ATOM     21  C   UNL     1      48.182   9.142  14.725  0.00  0.00    +0.000 C 
ATOM     22  O   UNL     1      48.928   9.726  13.947  0.00  0.00    +0.000 OA
ATOM     23  H   UNL     1      46.566   7.893  14.933  0.00  0.00    +0.000 HD
BRANCH  21  24
ATOM     24  C   UNL     1      48.488   9.056  16.157  0.00  0.00    +0.000 A 
ATOM     25  C   UNL     1      48.454  10.189  16.955  0.00  0.00    +0.000 A 
ATOM     26  S   UNL     1      48.796   9.876  18.600  0.00  0.00    +0.000 S 
ATOM     27  C   UNL     1      49.034   8.220  18.292  0.00  0.00    +0.000 A 
ATOM     28  N   UNL     1      49.374   7.356  19.287  0.00  0.00    +0.000 NA
ATOM     29  C   UNL     1      49.543   6.138  18.904  0.00  0.00    +0.000 A 
ATOM     30  N   UNL     1      49.403   5.696  17.613  0.00  0.00    +0.000 N 
ATOM     31  C   UNL     1      49.048   6.521  16.577  0.00  0.00    +0.000 A 
ATOM     32  O   UNL     1      48.890   6.099  15.444  0.00  0.00    +0.000 OA
ATOM     33  C   UNL     1      48.849   7.910  16.957  0.00  0.00    +0.000 A 
ATOM     34  H   UNL     1      49.532   4.724  17.377  0.00  0.00    +0.000 HD
ENDBRANCH  21  24
ENDBRANCH  19  20
ENDBRANCH   4  19
TORSDOF 7
ENDMDL
MODEL 4
REMARK VINA RESULT:    -7.399      3.646      8.540
REMARK INTER + INTRA:         -11.405
REMARK INTER:                  -9.749
REMARK INTRA:                  -1.656
REMARK UNBOUND:                -0.978
REMARK  Name = 
REMARK  8 active torsions:
REMARK  status: ('A' for Active; 'I' for Inactive)
REMARK    1  A    between atoms: C_1  and  C_2
REMARK    2  A    between atoms: C_7  and  C_8
REMARK    3  A    between atoms: C_8  and  N_9
REMARK    4  A    between atoms: N_9  and  C_10
REMARK    5  A    between atoms: C_10  and  C_11
REMARK    6  A    between atoms: C_14  and  C_15
REMARK    7  A    between atoms: C_15  and  N_16
REMARK    8  A    between atoms: C_17  and  C_19
REMARK                            x       y       z     vdW  Elec       q    Type
REMARK                         _______ _______ _______ _____ _____    ______ ____
ROOT
ATOM      1  C   UNL     1      48.758   7.655  16.288  0.00  0.00    +0.000 A 
ATOM      2  C   UNL     1      48.729   6.503  15.505  0.00  0.00    +0.000 A 
ATOM      3  C   UNL     1      48.595   6.625  14.125  0.00  0.00    +0.000 A 
ATOM      4  C   UNL     1      48.491   7.893  13.545  0.00  0.00    +0.000 A 
ATOM      5  C   UNL     1      48.516   8.982  14.406  0.00  0.00    +0.000 A 
ATOM      6  F   UNL     1      48.413  10.220  13.895  0.00  0.00    +0.000 F 
ATOM      7  N   UNL     1      48.652   8.896  15.751  0.00  0.00    +0.000 NA
ENDROOT
BRANCH   1   8
ATOM      8  C   UNL     1      48.938   7.550  17.792  0.00  0.00    +0.000 C 
BRANCH   8   9
ATOM      9  N   UNL     1      47.824   6.884  18.494  0.00  0.00    +0.000 NA
ATOM     10  H   UNL     1      47.363   7.561  19.096  0.00  0.00    +0.000 HD
BRANCH   9  11
ATOM     11  C   UNL     1      48.261   5.756  19.319  0.00  0.00    +0.000 C 
BRANCH  11  18
ATOM     12  C   UNL     1      51.159   4.656  18.951  0.00  0.00    +0.000 C 
ATOM     13  C   UNL     1      49.946   4.066  18.283  0.00  0.00    +0.000 A 
ATOM     14  C   UNL     1      50.156   2.958  17.437  0.00  0.00    +0.000 A 
ATOM     15  C   UNL     1      49.097   2.332  16.783  0.00  0.00    +0.000 A 
ATOM     16  C   UNL     1      47.804   2.802  16.963  0.00  0.00    +0.000 A 
ATOM     17  C   UNL     1      47.576   3.903  17.787  0.00  0.00    +0.000 A 
ATOM     18  C   UNL     1      48.633   4.563  18.450  0.00  0.00    +0.000 A 
ENDBRANCH  11  18
ENDBRANCH   9  11
ENDBRANCH   8   9
ENDBRANCH   1   8
BRANCH   4  19
ATOM     19  C   UNL     1      48.364   8.046  12.057  0.00  0.00    +0.000 C 
BRANCH  19  20
ATOM     20  N   UNL     1      47.625   6.960  11.458  0.00  0.00    +0.000 N 
ATOM     21  C   UNL     1      46.250   6.959  11.403  0.00  0.00    +0.000 C 
ATOM     22  O   UNL     1      45.571   7.910  11.774  0.00  0.00    +0.000 OA
ATOM     23  H   UNL     1      48.096   6.062  11.427  0.00  0.00    +0.000 HD
BRANCH  21  24
ATOM     24  C   UNL     1      45.637   5.778  10.785  0.00  0.00    +0.000 A 
ATOM     25  C   UNL     1      45.783   5.536   9.427  0.00  0.00    +0.000 A 
ATOM     26  S   UNL     1      45.033   4.091   8.907  0.00  0.00    +0.000 S 
ATOM     27  C   UNL     1      44.460   3.759  10.474  0.00  0.00    +0.000 A 
ATOM     28  N   UNL     1      43.714   2.651  10.736  0.00  0.00    +0.000 NA
ATOM     29  C   UNL     1      43.331   2.541  11.961  0.00  0.00    +0.000 A 
ATOM     30  N   UNL     1      43.625   3.436  12.957  0.00  0.00    +0.000 N 
ATOM     31  C   UNL     1      44.386   4.559  12.751  0.00  0.00    +0.000 A 
ATOM     32  O   UNL     1      44.669   5.319  13.660  0.00  0.00    +0.000 OA
ATOM     33  C   UNL     1      44.840   4.732  11.381  0.00  0.00    +0.000 A 
ATOM     34  H   UNL     1      43.311   3.286  13.904  0.00  0.00    +0.000 HD
ENDBRANCH  21  24
ENDBRANCH  19  20
ENDBRANCH   4  19
TORSDOF 7
ENDMDL
MODEL 5
REMARK VINA RESULT:    -7.368      3.901      8.719
REMARK INTER + INTRA:         -11.361
REMARK INTER:                  -9.293
REMARK INTRA:                  -2.068
REMARK UNBOUND:                -0.978
REMARK  Name = 
REMARK  8 active torsions:
REMARK  status: ('A' for Active; 'I' for Inactive)
REMARK    1  A    between atoms: C_1  and  C_2
REMARK    2  A    between atoms: C_7  and  C_8
REMARK    3  A    between atoms: C_8  and  N_9
REMARK    4  A    between atoms: N_9  and  C_10
REMARK    5  A    between atoms: C_10  and  C_11
REMARK    6  A    between atoms: C_14  and  C_15
REMARK    7  A    between atoms: C_15  and  N_16
REMARK    8  A    between atoms: C_17  and  C_19
REMARK                            x       y       z     vdW  Elec       q    Type
REMARK                         _______ _______ _______ _____ _____    ______ ____
ROOT
ATOM      1  C   UNL     1      50.360   7.270  18.107  0.00  0.00    +0.000 A 
ATOM      2  C   UNL     1      50.819   6.736  16.906  0.00  0.00    +0.000 A 
ATOM      3  C   UNL     1      50.187   7.096  15.719  0.00  0.00    +0.000 A 
ATOM      4  C   UNL     1      49.107   7.983  15.746  0.00  0.00    +0.000 A 
ATOM      5  C   UNL     1      48.712   8.453  16.992  0.00  0.00    +0.000 A 
ATOM      6  F   UNL     1      47.675   9.303  17.069  0.00  0.00    +0.000 F 
ATOM      7  N   UNL     1      49.310   8.127  18.163  0.00  0.00    +0.000 NA
ENDROOT
BRANCH   1   8
ATOM      8  C   UNL     1      51.053   6.919  19.412  0.00  0.00    +0.000 C 
BRANCH   8   9
ATOM      9  N   UNL     1      51.032   5.481  19.746  0.00  0.00    +0.000 NA
ATOM     10  H   UNL     1      51.377   4.953  18.949  0.00  0.00    +0.000 HD
BRANCH   9  11
ATOM     11  C   UNL     1      49.692   4.991  20.075  0.00  0.00    +0.000 C 
BRANCH  11  18
ATOM     12  C   UNL     1      46.883   5.763  18.955  0.00  0.00    +0.000 C 
ATOM     13  C   UNL     1      47.764   4.702  18.352  0.00  0.00    +0.000 A 
ATOM     14  C   UNL     1      47.266   4.021  17.222  0.00  0.00    +0.000 A 
ATOM     15  C   UNL     1      48.011   3.032  16.583  0.00  0.00    +0.000 A 
ATOM     16  C   UNL     1      49.271   2.703  17.063  0.00  0.00    +0.000 A 
ATOM     17  C   UNL     1      49.777   3.356  18.186  0.00  0.00    +0.000 A 
ATOM     18  C   UNL     1      49.037   4.352  18.859  0.00  0.00    +0.000 A 
ENDBRANCH  11  18
ENDBRANCH   9  11
ENDBRANCH   8   9
ENDBRANCH   1   8
BRANCH   4  19
ATOM     19  C   UNL     1      48.424   8.399  14.476  0.00  0.00    +0.000 C 
BRANCH  19  20
ATOM     20  N   UNL     1      47.396   7.466  14.080  0.00  0.00    +0.000 N 
ATOM     21  C   UNL     1      47.657   6.409  13.238  0.00  0.00    +0.000 C 
ATOM     22  O   UNL     1      48.786   6.139  12.844  0.00  0.00    +0.000 OA
ATOM     23  H   UNL     1      46.442   7.809  14.120  0.00  0.00    +0.000 HD
BRANCH  21  24
ATOM     24  C   UNL     1      46.509   5.558  12.907  0.00  0.00    +0.000 A 
ATOM     25  C   UNL     1      46.542   4.196  13.165  0.00  0.00    +0.000 A 
ATOM     26  S   UNL     1      45.095   3.388  12.749  0.00  0.00    +0.000 S 
ATOM     27  C   UNL     1      44.389   4.826  12.179  0.00  0.00    +0.000 A 
ATOM     28  N   UNL     1      43.131   4.841  11.660  0.00  0.00    +0.000 NA
ATOM     29  C   UNL     1      42.736   5.996  11.248  0.00  0.00    +0.000 A 
ATOM     30  N   UNL     1      43.481   7.146  11.306  0.00  0.00    +0.000 N 
ATOM     31  C   UNL     1      44.747   7.189  11.834  0.00  0.00    +0.000 A 
ATOM     32  O   UNL     1      45.375   8.231  11.914  0.00  0.00    +0.000 OA
ATOM     33  C   UNL     1      45.241   5.908  12.310  0.00  0.00    +0.000 A 
ATOM     34  H   UNL     1      43.109   8.027  10.983  0.00  0.00    +0.000 HD
ENDBRANCH  21  24
ENDBRANCH  19  20
ENDBRANCH   4  19
TORSDOF 7
ENDMDL
MODEL 6
REMARK VINA RESULT:    -7.358      3.568      8.759
REMARK INTER + INTRA:         -11.346
REMARK INTER:                  -9.880
REMARK INTRA:                  -1.466
REMARK UNBOUND:                -0.978
REMARK  Name = 
REMARK  8 active torsions:
REMARK  status: ('A' for Active; 'I' for Inactive)
REMARK    1  A    between atoms: C_1  and  C_2
REMARK    2  A    between atoms: C_7  and  C_8
REMARK    3  A    between atoms: C_8  and  N_9
REMARK    4  A    between atoms: N_9  and  C_10
REMARK    5  A    between atoms: C_10  and  C_11
REMARK    6  A    between atoms: C_14  and  C_15
REMARK    7  A    between atoms: C_15  and  N_16
REMARK    8  A    between atoms: C_17  and  C_19
REMARK                            x       y       z     vdW  Elec       q    Type
REMARK                         _______ _______ _______ _____ _____    ______ ____
ROOT
ATOM      1  C   UNL     1      49.858   8.157  15.277  0.00  0.00    +0.000 A 
ATOM      2  C   UNL     1      48.561   8.652  15.396  0.00  0.00    +0.000 A 
ATOM      3  C   UNL     1      47.724   8.630  14.284  0.00  0.00    +0.000 A 
ATOM      4  C   UNL     1      48.191   8.117  13.070  0.00  0.00    +0.000 A 
ATOM      5  C   UNL     1      49.501   7.659  13.045  0.00  0.00    +0.000 A 
ATOM      6  F   UNL     1      49.996   7.162  11.899  0.00  0.00    +0.000 F 
ATOM      7  N   UNL     1      50.338   7.660  14.110  0.00  0.00    +0.000 NA
ENDROOT
BRANCH   1   8
ATOM      8  C   UNL     1      50.779   8.139  16.484  0.00  0.00    +0.000 C 
BRANCH   8   9
ATOM      9  N   UNL     1      51.110   6.788  16.978  0.00  0.00    +0.000 NA
ATOM     10  H   UNL     1      51.108   6.141  16.194  0.00  0.00    +0.000 HD
BRANCH   9  11
ATOM     11  C   UNL     1      50.160   6.298  17.980  0.00  0.00    +0.000 C 
BRANCH  11  18
ATOM     12  C   UNL     1      51.477   3.469  18.045  0.00  0.00    +0.000 C 
ATOM     13  C   UNL     1      50.086   3.735  17.535  0.00  0.00    +0.000 A 
ATOM     14  C   UNL     1      49.357   2.629  17.052  0.00  0.00    +0.000 A 
ATOM     15  C   UNL     1      48.057   2.769  16.572  0.00  0.00    +0.000 A 
ATOM     16  C   UNL     1      47.459   4.021  16.563  0.00  0.00    +0.000 A 
ATOM     17  C   UNL     1      48.166   5.130  17.026  0.00  0.00    +0.000 A 
ATOM     18  C   UNL     1      49.489   5.017  17.505  0.00  0.00    +0.000 A 
ENDBRANCH  11  18
ENDBRANCH   9  11
ENDBRANCH   8   9
ENDBRANCH   1   8
BRANCH   4  19
ATOM     19  C   UNL     1      47.297   8.067  11.865  0.00  0.00    +0.000 C 
BRANCH  19  20
ATOM     20  N   UNL     1      46.646   6.786  11.722  0.00  0.00    +0.000 N 
ATOM     21  C   UNL     1      45.286   6.677  11.541  0.00  0.00    +0.000 C 
ATOM     22  O   UNL     1      44.556   7.653  11.402  0.00  0.00    +0.000 OA
ATOM     23  H   UNL     1      47.131   5.991  12.124  0.00  0.00    +0.000 HD
BRANCH  21  24
ATOM     24  C   UNL     1      44.764   5.311  11.433  0.00  0.00    +0.000 A 
ATOM     25  C   UNL     1      44.046   4.746  12.475  0.00  0.00    +0.000 A 
ATOM     26  S   UNL     1      43.487   3.166  12.140  0.00  0.00    +0.000 S 
ATOM     27  C   UNL     1      44.216   3.174  10.604  0.00  0.00    +0.000 A 
ATOM     28  N   UNL     1      44.133   2.097   9.775  0.00  0.00    +0.000 NA
ATOM     29  C   UNL     1      44.751   2.237   8.653  0.00  0.00    +0.000 A 
ATOM     30  N   UNL     1      45.447   3.357   8.276  0.00  0.00    +0.000 N 
ATOM     31  C   UNL     1      45.548   4.474   9.067  0.00  0.00    +0.000 A 
ATOM     32  O   UNL     1      46.137   5.474   8.694  0.00  0.00    +0.000 OA
ATOM     33  C   UNL     1      44.870   4.364  10.347  0.00  0.00    +0.000 A 
ATOM     34  H   UNL     1      45.897   3.413   7.375  0.00  0.00    +0.000 HD
ENDBRANCH  21  24
ENDBRANCH  19  20
ENDBRANCH   4  19
TORSDOF 7
ENDMDL
MODEL 7
REMARK VINA RESULT:    -7.276      3.414      9.003
REMARK INTER + INTRA:         -11.232
REMARK INTER:                  -9.586
REMARK INTRA:                  -1.645
REMARK UNBOUND:                -0.978
REMARK  Name = 
REMARK  8 active torsions:
REMARK  status: ('A' for Active; 'I' for Inactive)
REMARK    1  A    between atoms: C_1  and  C_2
REMARK    2  A    between atoms: C_7  and  C_8
REMARK    3  A    between atoms: C_8  and  N_9
REMARK    4  A    between atoms: N_9  and  C_10
REMARK    5  A    between atoms: C_10  and  C_11
REMARK    6  A    between atoms: C_14  and  C_15
REMARK    7  A    between atoms: C_15  and  N_16
REMARK    8  A    between atoms: C_17  and  C_19
REMARK                            x       y       z     vdW  Elec       q    Type
REMARK                         _______ _______ _______ _____ _____    ______ ____
ROOT
ATOM      1  C   UNL     1      48.955   7.948  16.089  0.00  0.00    +0.000 A 
ATOM      2  C   UNL     1      48.749   6.691  15.526  0.00  0.00    +0.000 A 
ATOM      3  C   UNL     1      48.299   6.603  14.212  0.00  0.00    +0.000 A 
ATOM      4  C   UNL     1      48.060   7.768  13.478  0.00  0.00    +0.000 A 
ATOM      5  C   UNL     1      48.280   8.975  14.127  0.00  0.00    +0.000 A 
ATOM      6  F   UNL     1      48.058  10.122  13.464  0.00  0.00    +0.000 F 
ATOM      7  N   UNL     1      48.724   9.094  15.402  0.00  0.00    +0.000 NA
ENDROOT
BRANCH   1   8
ATOM      8  C   UNL     1      49.478   8.071  17.509  0.00  0.00    +0.000 C 
BRANCH   8   9
ATOM      9  N   UNL     1      50.507   7.075  17.868  0.00  0.00    +0.000 NA
ATOM     10  H   UNL     1      50.740   6.531  17.042  0.00  0.00    +0.000 HD
BRANCH   9  11
ATOM     11  C   UNL     1      50.068   6.153  18.917  0.00  0.00    +0.000 C 
BRANCH  11  18
ATOM     12  C   UNL     1      46.981   5.697  18.837  0.00  0.00    +0.000 C 
ATOM     13  C   UNL     1      47.987   4.728  18.276  0.00  0.00    +0.000 A 
ATOM     14  C   UNL     1      47.483   3.545  17.696  0.00  0.00    +0.000 A 
ATOM     15  C   UNL     1      48.332   2.592  17.138  0.00  0.00    +0.000 A 
ATOM     16  C   UNL     1      49.703   2.801  17.149  0.00  0.00    +0.000 A 
ATOM     17  C   UNL     1      50.223   3.959  17.728  0.00  0.00    +0.000 A 
ATOM     18  C   UNL     1      49.385   4.934  18.312  0.00  0.00    +0.000 A 
ENDBRANCH  11  18
ENDBRANCH   9  11
ENDBRANCH   8   9
ENDBRANCH   1   8
BRANCH   4  19
ATOM     19  C   UNL     1      47.592   7.694  12.054  0.00  0.00    +0.000 C 
BRANCH  19  20
ATOM     20  N   UNL     1      46.871   6.473  11.780  0.00  0.00    +0.000 N 
ATOM     21  C   UNL     1      45.501   6.396  11.890  0.00  0.00    +0.000 C 
ATOM     22  O   UNL     1      44.801   7.372  12.138  0.00  0.00    +0.000 OA
ATOM     23  H   UNL     1      47.397   5.611  11.876  0.00  0.00    +0.000 HD
BRANCH  21  24
ATOM     24  C   UNL     1      44.910   5.085  11.601  0.00  0.00    +0.000 A 
ATOM     25  C   UNL     1      44.197   4.403  12.576  0.00  0.00    +0.000 A 
ATOM     26  S   UNL     1      43.552   2.916  12.033  0.00  0.00    +0.000 S 
ATOM     27  C   UNL     1      44.232   3.121  10.488  0.00  0.00    +0.000 A 
ATOM     28  N   UNL     1      44.071   2.185   9.513  0.00  0.00    +0.000 NA
ATOM     29  C   UNL     1      44.660   2.463   8.402  0.00  0.00    +0.000 A 
ATOM     30  N   UNL     1      45.398   3.595   8.167  0.00  0.00    +0.000 N 
ATOM     31  C   UNL     1      45.577   4.576   9.109  0.00  0.00    +0.000 A 
ATOM     32  O   UNL     1      46.203   5.594   8.866  0.00  0.00    +0.000 OA
ATOM     33  C   UNL     1      44.935   4.307  10.385  0.00  0.00    +0.000 A 
ATOM     34  H   UNL     1      45.822   3.766   7.268  0.00  0.00    +0.000 HD
ENDBRANCH  21  24
ENDBRANCH  19  20
ENDBRANCH   4  19
TORSDOF 7
ENDMDL
MODEL 8
REMARK VINA RESULT:    -7.228      1.849      2.414
REMARK INTER + INTRA:         -11.163
REMARK INTER:                 -10.249
REMARK INTRA:                  -0.914
REMARK UNBOUND:                -0.978
REMARK  Name = 
REMARK  8 active torsions:
REMARK  status: ('A' for Active; 'I' for Inactive)
REMARK    1  A    between atoms: C_1  and  C_2
REMARK    2  A    between atoms: C_7  and  C_8
REMARK    3  A    between atoms: C_8  and  N_9
REMARK    4  A    between atoms: N_9  and  C_10
REMARK    5  A    between atoms: C_10  and  C_11
REMARK    6  A    between atoms: C_14  and  C_15
REMARK    7  A    between atoms: C_15  and  N_16
REMARK    8  A    between atoms: C_17  and  C_19
REMARK                            x       y       z     vdW  Elec       q    Type
REMARK                         _______ _______ _______ _____ _____    ______ ____
ROOT
ATOM      1  C   UNL     1      45.225   4.496  11.925  0.00  0.00    +0.000 A 
ATOM      2  C   UNL     1      45.731   4.043  13.141  0.00  0.00    +0.000 A 
ATOM      3  C   UNL     1      46.621   4.848  13.846  0.00  0.00    +0.000 A 
ATOM      4  C   UNL     1      46.995   6.092  13.329  0.00  0.00    +0.000 A 
ATOM      5  C   UNL     1      46.449   6.453  12.105  0.00  0.00    +0.000 A 
ATOM      6  F   UNL     1      46.783   7.637  11.565  0.00  0.00    +0.000 F 
ATOM      7  N   UNL     1      45.576   5.695  11.397  0.00  0.00    +0.000 NA
ENDROOT
BRANCH   1   8
ATOM      8  C   UNL     1      44.228   3.651  11.153  0.00  0.00    +0.000 C 
BRANCH   8   9
ATOM      9  N   UNL     1      44.787   2.405  10.593  0.00  0.00    +0.000 NA
ATOM     10  H   UNL     1      45.801   2.444  10.654  0.00  0.00    +0.000 HD
BRANCH   9  11
ATOM     11  C   UNL     1      44.418   2.191   9.192  0.00  0.00    +0.000 C 
BRANCH  11  18
ATOM     12  C   UNL     1      45.888   4.707   8.073  0.00  0.00    +0.000 C 
ATOM     13  C   UNL     1      46.322   3.291   7.801  0.00  0.00    +0.000 A 
ATOM     14  C   UNL     1      47.454   3.115   6.980  0.00  0.00    +0.000 A 
ATOM     15  C   UNL     1      47.944   1.845   6.680  0.00  0.00    +0.000 A 
ATOM     16  C   UNL     1      47.309   0.725   7.196  0.00  0.00    +0.000 A 
ATOM     17  C   UNL     1      46.180   0.877   8.001  0.00  0.00    +0.000 A 
ATOM     18  C   UNL     1      45.657   2.152   8.308  0.00  0.00    +0.000 A 
ENDBRANCH  11  18
ENDBRANCH   9  11
ENDBRANCH   8   9
ENDBRANCH   1   8
BRANCH   4  19
ATOM     19  C   UNL     1      47.938   6.983  14.084  0.00  0.00    +0.000 C 
BRANCH  19  20
ATOM     20  N   UNL     1      48.209   6.488  15.413  0.00  0.00    +0.000 N 
ATOM     21  C   UNL     1      48.929   7.221  16.329  0.00  0.00    +0.000 C 
ATOM     22  O   UNL     1      49.307   8.366  16.112  0.00  0.00    +0.000 OA
ATOM     23  H   UNL     1      48.194   5.480  15.526  0.00  0.00    +0.000 HD
BRANCH  21  24
ATOM     24  C   UNL     1      49.143   6.580  17.631  0.00  0.00    +0.000 A 
ATOM     25  C   UNL     1      48.122   6.524  18.568  0.00  0.00    +0.000 A 
ATOM     26  S   UNL     1      48.554   5.701  20.001  0.00  0.00    +0.000 S 
ATOM     27  C   UNL     1      50.132   5.421  19.430  0.00  0.00    +0.000 A 
ATOM     28  N   UNL     1      51.052   4.761  20.185  0.00  0.00    +0.000 NA
ATOM     29  C   UNL     1      52.210   4.641  19.635  0.00  0.00    +0.000 A 
ATOM     30  N   UNL     1      52.540   5.120  18.392  0.00  0.00    +0.000 N 
ATOM     31  C   UNL     1      51.647   5.777  17.585  0.00  0.00    +0.000 A 
ATOM     32  O   UNL     1      51.951   6.157  16.467  0.00  0.00    +0.000 OA
ATOM     33  C   UNL     1      50.324   5.941  18.164  0.00  0.00    +0.000 A 
ATOM     34  H   UNL     1      53.462   4.980  18.006  0.00  0.00    +0.000 HD
ENDBRANCH  21  24
ENDBRANCH  19  20
ENDBRANCH   4  19
TORSDOF 7
ENDMDL
MODEL 9
REMARK VINA RESULT:    -7.073      3.734      8.245
REMARK INTER + INTRA:         -10.945
REMARK INTER:                  -9.023
REMARK INTRA:                  -1.922
REMARK UNBOUND:                -0.978
REMARK  Name = 
REMARK  8 active torsions:
REMARK  status: ('A' for Active; 'I' for Inactive)
REMARK    1  A    between atoms: C_1  and  C_2
REMARK    2  A    between atoms: C_7  and  C_8
REMARK    3  A    between atoms: C_8  and  N_9
REMARK    4  A    between atoms: N_9  and  C_10
REMARK    5  A    between atoms: C_10  and  C_11
REMARK    6  A    between atoms: C_14  and  C_15
REMARK    7  A    between atoms: C_15  and  N_16
REMARK    8  A    between atoms: C_17  and  C_19
REMARK                            x       y       z     vdW  Elec       q    Type
REMARK                         _______ _______ _______ _____ _____    ______ ____
ROOT
ATOM      1  C   UNL     1      49.523   7.762  17.780  0.00  0.00    +0.000 A 
ATOM      2  C   UNL     1      48.591   8.796  17.741  0.00  0.00    +0.000 A 
ATOM      3  C   UNL     1      48.100   9.219  16.509  0.00  0.00    +0.000 A 
ATOM      4  C   UNL     1      48.544   8.606  15.334  0.00  0.00    +0.000 A 
ATOM      5  C   UNL     1      49.484   7.593  15.471  0.00  0.00    +0.000 A 
ATOM      6  F   UNL     1      49.946   6.978  14.370  0.00  0.00    +0.000 F 
ATOM      7  N   UNL     1      49.977   7.155  16.655  0.00  0.00    +0.000 NA
ENDROOT
BRANCH   1   8
ATOM      8  C   UNL     1      50.049   7.260  19.113  0.00  0.00    +0.000 C 
BRANCH   8   9
ATOM      9  N   UNL     1      50.687   5.931  19.056  0.00  0.00    +0.000 NA
ATOM     10  H   UNL     1      50.907   5.713  18.087  0.00  0.00    +0.000 HD
BRANCH   9  11
ATOM     11  C   UNL     1      49.835   4.864  19.585  0.00  0.00    +0.000 C 
BRANCH  11  18
ATOM     12  C   UNL     1      46.924   5.397  18.595  0.00  0.00    +0.000 C 
ATOM     13  C   UNL     1      47.832   4.351  18.006  0.00  0.00    +0.000 A 
ATOM     14  C   UNL     1      47.311   3.569  16.954  0.00  0.00    +0.000 A 
ATOM     15  C   UNL     1      48.077   2.585  16.334  0.00  0.00    +0.000 A 
ATOM     16  C   UNL     1      49.380   2.361  16.754  0.00  0.00    +0.000 A 
ATOM     17  C   UNL     1      49.910   3.115  17.800  0.00  0.00    +0.000 A 
ATOM     18  C   UNL     1      49.150   4.109  18.454  0.00  0.00    +0.000 A 
ENDBRANCH  11  18
ENDBRANCH   9  11
ENDBRANCH   8   9
ENDBRANCH   1   8
BRANCH   4  19
ATOM     19  C   UNL     1      48.013   9.034  13.998  0.00  0.00    +0.000 C 
BRANCH  19  20
ATOM     20  N   UNL     1      46.875   8.246  13.586  0.00  0.00    +0.000 N 
ATOM     21  C   UNL     1      46.937   7.377  12.521  0.00  0.00    +0.000 C 
ATOM     22  O   UNL     1      47.977   7.150  11.912  0.00  0.00    +0.000 OA
ATOM     23  H   UNL     1      45.963   8.612  13.840  0.00  0.00    +0.000 HD
BRANCH  21  24
ATOM     24  C   UNL     1      45.696   6.661  12.207  0.00  0.00    +0.000 A 
ATOM     25  C   UNL     1      44.610   7.334  11.668  0.00  0.00    +0.000 A 
ATOM     26  S   UNL     1      43.277   6.320  11.333  0.00  0.00    +0.000 S 
ATOM     27  C   UNL     1      44.095   4.953  11.929  0.00  0.00    +0.000 A 
ATOM     28  N   UNL     1      43.507   3.726  11.947  0.00  0.00    +0.000 NA
ATOM     29  C   UNL     1      44.237   2.790  12.446  0.00  0.00    +0.000 A 
ATOM     30  N   UNL     1      45.508   2.961  12.931  0.00  0.00    +0.000 N 
ATOM     31  C   UNL     1      46.153   4.172  12.921  0.00  0.00    +0.000 A 
ATOM     32  O   UNL     1      47.299   4.293  13.319  0.00  0.00    +0.000 OA
ATOM     33  C   UNL     1      45.368   5.264  12.371  0.00  0.00    +0.000 A 
ATOM     34  H   UNL     1      46.038   2.183  13.294  0.00  0.00    +0.000 HD
ENDBRANCH  21  24
ENDBRANCH  19  20
ENDBRANCH   4  19
TORSDOF 7
ENDMDL
