MODEL 1
REMARK VINA RESULT:    -8.024      0.000      0.000
REMARK INTER + INTRA:         -11.594
REMARK INTER:                 -10.838
REMARK INTRA:                  -0.756
REMARK UNBOUND:                -0.756
REMARK  Name = 
REMARK  6 active torsions:
REMARK  status: ('A' for Active; 'I' for Inactive)
REMARK    1  A    between atoms: C_2  and  C_4
REMARK    2  A    between atoms: C_7  and  C_8
REMARK    3  A    between atoms: C_8  and  C_9
REMARK    4  A    between atoms: C_9  and  O_10
REMARK    5  A    between atoms: O_10  and  C_11
REMARK    6  A    between atoms: C_15  and  N_16
REMARK                            x       y       z     vdW  Elec       q    Type
REMARK                         _______ _______ _______ _____ _____    ______ ____
ROOT
ATOM      1  O   UNL     1      44.194   4.735  12.659  0.00  0.00    +0.000 OA
ENDROOT
BRANCH   1   2
ATOM      2  C   UNL     1      45.450   5.230  12.926  0.00  0.00    +0.000 A 
ATOM      3  C   UNL     1      46.062   6.271  12.230  0.00  0.00    +0.000 A 
ATOM      4  C   UNL     1      47.305   6.751  12.629  0.00  0.00    +0.000 A 
ATOM      5  C   UNL     1      47.916   6.223  13.760  0.00  0.00    +0.000 A 
ATOM      6  C   UNL     1      47.319   5.198  14.502  0.00  0.00    +0.000 A 
ATOM      7  C   UNL     1      46.105   4.673  14.028  0.00  0.00    +0.000 A 
BRANCH   6   8
ATOM      8  N   UNL     1      47.888   4.755  15.674  0.00  0.00    +0.000 N 
ATOM      9  C   UNL     1      47.822   3.347  16.064  0.00  0.00    +0.000 C 
ATOM     10  C   UNL     1      47.153   3.186  17.442  0.00  0.00    +0.000 C 
ATOM     11  N   UNL     1      47.762   4.032  18.493  0.00  0.00    +0.000 NA
ATOM     12  C   UNL     1      47.733   5.444  18.045  0.00  0.00    +0.000 C 
ATOM     13  C   UNL     1      48.422   5.682  16.677  0.00  0.00    +0.000 C 
ATOM     14  H   UNL     1      48.740   3.755  18.584  0.00  0.00    +0.000 HD
ENDBRANCH   6   8
ENDBRANCH   1   2
BRANCH   1  15
ATOM     15  C   UNL     1      44.184   3.592  11.796  0.00  0.00    +0.000 C 
BRANCH  15  16
ATOM     16  C   UNL     1      43.811   3.998  10.372  0.00  0.00    +0.000 C 
BRANCH  16  20
ATOM     17  C   UNL     1      46.607   2.421   7.470  0.00  0.00    +0.000 A 
ATOM     18  C   UNL     1      46.275   3.773   7.440  0.00  0.00    +0.000 A 
ATOM     19  C   UNL     1      45.345   4.287   8.354  0.00  0.00    +0.000 A 
ATOM     20  C   UNL     1      44.751   3.449   9.316  0.00  0.00    +0.000 A 
ATOM     21  C   UNL     1      45.060   2.086   9.303  0.00  0.00    +0.000 A 
ATOM     22  C   UNL     1      45.984   1.568   8.385  0.00  0.00    +0.000 A 
BRANCH  17  24
ATOM     23  N   UNL     1      48.799   2.528   6.428  0.00  0.00    +0.000 N 
ATOM     24  C   UNL     1      47.606   1.858   6.522  0.00  0.00    +0.000 C 
ATOM     25  O   UNL     1      47.391   0.844   5.893  0.00  0.00    +0.000 OA
ATOM     26  H   UNL     1      49.514   2.087   5.867  0.00  0.00    +0.000 HD
ATOM     27  H   UNL     1      49.089   3.208   7.112  0.00  0.00    +0.000 HD
ENDBRANCH  17  24
ENDBRANCH  16  20
ENDBRANCH  15  16
ENDBRANCH   1  15
TORSDOF 6
ENDMDL
MODEL 2
REMARK VINA RESULT:    -7.941      2.247      3.705
REMARK INTER + INTRA:         -11.483
REMARK INTER:                 -10.451
REMARK INTRA:                  -1.031
REMARK UNBOUND:                -0.756
REMARK  Name = 
REMARK  6 active torsions:
REMARK  status: ('A' for Active; 'I' for Inactive)
REMARK    1  A    between atoms: C_2  and  C_4
REMARK    2  A    between atoms: C_7  and  C_8
REMARK    3  A    between atoms: C_8  and  C_9
REMARK    4  A    between atoms: C_9  and  O_10
REMARK    5  A    between atoms: O_10  and  C_11
REMARK    6  A    between atoms: C_15  and  N_16
REMARK                            x       y       z     vdW  Elec       q    Type
REMARK                         _______ _______ _______ _____ _____    ______ ____
ROOT
ATOM      1  O   UNL     1      43.421   4.483  12.428  0.00  0.00    +0.000 OA
ENDROOT
BRANCH   1   2
ATOM      2  C   UNL     1      44.713   4.660  12.868  0.00  0.00    +0.000 A 
ATOM      3  C   UNL     1      45.615   3.631  13.128  0.00  0.00    +0.000 A 
ATOM      4  C   UNL     1      46.926   3.917  13.494  0.00  0.00    +0.000 A 
ATOM      5  C   UNL     1      47.351   5.239  13.552  0.00  0.00    +0.000 A 
ATOM      6  C   UNL     1      46.483   6.299  13.268  0.00  0.00    +0.000 A 
ATOM      7  C   UNL     1      45.143   5.985  12.986  0.00  0.00    +0.000 A 
BRANCH   6   8
ATOM      8  N   UNL     1      46.944   7.595  13.233  0.00  0.00    +0.000 N 
ATOM      9  C   UNL     1      46.019   8.728  13.211  0.00  0.00    +0.000 C 
ATOM     10  C   UNL     1      46.261   9.615  11.975  0.00  0.00    +0.000 C 
ATOM     11  N   UNL     1      47.671  10.038  11.822  0.00  0.00    +0.000 NA
ATOM     12  C   UNL     1      48.530   8.831  11.792  0.00  0.00    +0.000 C 
ATOM     13  C   UNL     1      48.362   7.910  13.027  0.00  0.00    +0.000 C 
ATOM     14  H   UNL     1      47.923  10.578  12.650  0.00  0.00    +0.000 HD
ENDBRANCH   6   8
ENDBRANCH   1   2
BRANCH   1  15
ATOM     15  C   UNL     1      43.310   3.719  11.222  0.00  0.00    +0.000 C 
BRANCH  15  16
ATOM     16  C   UNL     1      43.828   4.520  10.030  0.00  0.00    +0.000 C 
BRANCH  16  20
ATOM     17  C   UNL     1      46.638   2.408   7.508  0.00  0.00    +0.000 A 
ATOM     18  C   UNL     1      45.872   1.697   8.427  0.00  0.00    +0.000 A 
ATOM     19  C   UNL     1      44.983   2.375   9.272  0.00  0.00    +0.000 A 
ATOM     20  C   UNL     1      44.846   3.773   9.190  0.00  0.00    +0.000 A 
ATOM     21  C   UNL     1      45.656   4.476   8.294  0.00  0.00    +0.000 A 
ATOM     22  C   UNL     1      46.551   3.801   7.454  0.00  0.00    +0.000 A 
BRANCH  17  24
ATOM     23  N   UNL     1      48.736   2.370   6.282  0.00  0.00    +0.000 N 
ATOM     24  C   UNL     1      47.575   1.707   6.588  0.00  0.00    +0.000 C 
ATOM     25  O   UNL     1      47.341   0.597   6.160  0.00  0.00    +0.000 OA
ATOM     26  H   UNL     1      49.416   1.852   5.746  0.00  0.00    +0.000 HD
ATOM     27  H   UNL     1      49.058   3.162   6.814  0.00  0.00    +0.000 HD
ENDBRANCH  17  24
ENDBRANCH  16  20
ENDBRANCH  15  16
ENDBRANCH   1  15
TORSDOF 6
ENDMDL
MODEL 3
REMARK VINA RESULT:    -7.349      3.697      5.506
REMARK INTER + INTRA:         -10.683
REMARK INTER:                 -10.090
REMARK INTRA:                  -0.593
REMARK UNBOUND:                -0.756
REMARK  Name = 
REMARK  6 active torsions:
REMARK  status: ('A' for Active; 'I' for Inactive)
REMARK    1  A    between atoms: C_2  and  C_4
REMARK    2  A    between atoms: C_7  and  C_8
REMARK    3  A    between atoms: C_8  and  C_9
REMARK    4  A    between atoms: C_9  and  O_10
REMARK    5  A    between atoms: O_10  and  C_11
REMARK    6  A    between atoms: C_15  and  N_16
REMARK                            x       y       z     vdW  Elec       q    Type
REMARK                         _______ _______ _______ _____ _____    ______ ____
ROOT
ATOM      1  O   UNL     1      45.497   5.202  11.578  0.00  0.00    +0.000 OA
ENDROOT
BRANCH   1   2
ATOM      2  C   UNL     1      45.612   6.498  12.026  0.00  0.00    +0.000 A 
ATOM      3  C   UNL     1      46.537   6.936  12.972  0.00  0.00    +0.000 A 
ATOM      4  C   UNL     1      46.624   8.284  13.301  0.00  0.00    +0.000 A 
ATOM      5  C   UNL     1      45.818   9.206  12.646  0.00  0.00    +0.000 A 
ATOM      6  C   UNL     1      44.899   8.809  11.668  0.00  0.00    +0.000 A 
ATOM      7  C   UNL     1      44.770   7.433  11.418  0.00  0.00    +0.000 A 
BRANCH   6   8
ATOM      8  N   UNL     1      44.180   9.743  10.958  0.00  0.00    +0.000 N 
ATOM      9  C   UNL     1      44.736  11.062  10.660  0.00  0.00    +0.000 C 
ATOM     10  C   UNL     1      43.833  12.181  11.209  0.00  0.00    +0.000 C 
ATOM     11  N   UNL     1      42.421  12.059  10.785  0.00  0.00    +0.000 NA
ATOM     12  C   UNL     1      41.918  10.721  11.179  0.00  0.00    +0.000 C 
ATOM     13  C   UNL     1      42.764   9.545  10.628  0.00  0.00    +0.000 C 
ATOM     14  H   UNL     1      42.399  12.110   9.766  0.00  0.00    +0.000 HD
ENDBRANCH   6   8
ENDBRANCH   1   2
BRANCH   1  15
ATOM     15  C   UNL     1      44.156   4.699  11.572  0.00  0.00    +0.000 C 
BRANCH  15  16
ATOM     16  C   UNL     1      43.695   4.418  10.144  0.00  0.00    +0.000 C 
BRANCH  16  20
ATOM     17  C   UNL     1      46.566   2.421   7.597  0.00  0.00    +0.000 A 
ATOM     18  C   UNL     1      45.792   1.672   8.479  0.00  0.00    +0.000 A 
ATOM     19  C   UNL     1      44.883   2.312   9.331  0.00  0.00    +0.000 A 
ATOM     20  C   UNL     1      44.734   3.711   9.296  0.00  0.00    +0.000 A 
ATOM     21  C   UNL     1      45.551   4.452   8.438  0.00  0.00    +0.000 A 
ATOM     22  C   UNL     1      46.466   3.815   7.589  0.00  0.00    +0.000 A 
BRANCH  17  24
ATOM     23  N   UNL     1      48.638   2.487   6.329  0.00  0.00    +0.000 N 
ATOM     24  C   UNL     1      47.524   1.761   6.669  0.00  0.00    +0.000 C 
ATOM     25  O   UNL     1      47.348   0.632   6.263  0.00  0.00    +0.000 OA
ATOM     26  H   UNL     1      49.337   2.000   5.787  0.00  0.00    +0.000 HD
ATOM     27  H   UNL     1      48.923   3.305   6.842  0.00  0.00    +0.000 HD
ENDBRANCH  17  24
ENDBRANCH  16  20
ENDBRANCH  15  16
ENDBRANCH   1  15
TORSDOF 6
ENDMDL
MODEL 4
REMARK VINA RESULT:    -7.336      1.949      2.591
REMARK INTER + INTRA:         -10.665
REMARK INTER:                  -9.836
REMARK INTRA:                  -0.830
REMARK UNBOUND:                -0.756
REMARK  Name = 
REMARK  6 active torsions:
REMARK  status: ('A' for Active; 'I' for Inactive)
REMARK    1  A    between atoms: C_2  and  C_4
REMARK    2  A    between atoms: C_7  and  C_8
REMARK    3  A    between atoms: C_8  and  C_9
REMARK    4  A    between atoms: C_9  and  O_10
REMARK    5  A    between atoms: O_10  and  C_11
REMARK    6  A    between atoms: C_15  and  N_16
REMARK                            x       y       z     vdW  Elec       q    Type
REMARK                         _______ _______ _______ _____ _____    ______ ____
ROOT
ATOM      1  O   UNL     1      43.649   5.264  11.875  0.00  0.00    +0.000 OA
ENDROOT
BRANCH   1   2
ATOM      2  C   UNL     1      44.576   6.280  11.908  0.00  0.00    +0.000 A 
ATOM      3  C   UNL     1      44.309   7.615  11.608  0.00  0.00    +0.000 A 
ATOM      4  C   UNL     1      45.299   8.581  11.748  0.00  0.00    +0.000 A 
ATOM      5  C   UNL     1      46.548   8.221  12.239  0.00  0.00    +0.000 A 
ATOM      6  C   UNL     1      46.845   6.897  12.580  0.00  0.00    +0.000 A 
ATOM      7  C   UNL     1      45.855   5.927  12.348  0.00  0.00    +0.000 A 
BRANCH   6   8
ATOM      8  N   UNL     1      48.051   6.573  13.157  0.00  0.00    +0.000 N 
ATOM      9  C   UNL     1      48.117   5.955  14.481  0.00  0.00    +0.000 C 
ATOM     10  C   UNL     1      48.965   6.803  15.447  0.00  0.00    +0.000 C 
ATOM     11  N   UNL     1      50.305   7.137  14.916  0.00  0.00    +0.000 NA
ATOM     12  C   UNL     1      50.145   7.813  13.607  0.00  0.00    +0.000 C 
ATOM     13  C   UNL     1      49.329   6.995  12.573  0.00  0.00    +0.000 C 
ATOM     14  H   UNL     1      50.799   6.259  14.753  0.00  0.00    +0.000 HD
ENDBRANCH   6   8
ENDBRANCH   1   2
BRANCH   1  15
ATOM     15  C   UNL     1      43.436   4.706  10.573  0.00  0.00    +0.000 C 
BRANCH  15  16
ATOM     16  C   UNL     1      43.916   3.257  10.525  0.00  0.00    +0.000 C 
BRANCH  16  20
ATOM     17  C   UNL     1      46.657   2.379   7.294  0.00  0.00    +0.000 A 
ATOM     18  C   UNL     1      46.261   3.694   7.521  0.00  0.00    +0.000 A 
ATOM     19  C   UNL     1      45.348   3.985   8.544  0.00  0.00    +0.000 A 
ATOM     20  C   UNL     1      44.835   2.958   9.357  0.00  0.00    +0.000 A 
ATOM     21  C   UNL     1      45.206   1.638   9.086  0.00  0.00    +0.000 A 
ATOM     22  C   UNL     1      46.114   1.343   8.060  0.00  0.00    +0.000 A 
BRANCH  17  24
ATOM     23  N   UNL     1      48.824   2.741   6.257  0.00  0.00    +0.000 N 
ATOM     24  C   UNL     1      47.640   2.049   6.227  0.00  0.00    +0.000 C 
ATOM     25  O   UNL     1      47.421   1.192   5.398  0.00  0.00    +0.000 OA
ATOM     26  H   UNL     1      49.530   2.443   5.600  0.00  0.00    +0.000 HD
ATOM     27  H   UNL     1      49.122   3.262   7.066  0.00  0.00    +0.000 HD
ENDBRANCH  17  24
ENDBRANCH  16  20
ENDBRANCH  15  16
ENDBRANCH   1  15
TORSDOF 6
ENDMDL
MODEL 5
REMARK VINA RESULT:    -7.186      3.893      8.021
REMARK INTER + INTRA:         -10.462
REMARK INTER:                  -9.721
REMARK INTRA:                  -0.741
REMARK UNBOUND:                -0.756
REMARK  Name = 
REMARK  6 active torsions:
REMARK  status: ('A' for Active; 'I' for Inactive)
REMARK    1  A    between atoms: C_2  and  C_4
REMARK    2  A    between atoms: C_7  and  C_8
REMARK    3  A    between atoms: C_8  and  C_9
REMARK    4  A    between atoms: C_9  and  O_10
REMARK    5  A    between atoms: O_10  and  C_11
REMARK    6  A    between atoms: C_15  and  N_16
REMARK                            x       y       z     vdW  Elec       q    Type
REMARK                         _______ _______ _______ _____ _____    ______ ____
ROOT
ATOM      1  O   UNL     1      49.132   6.135  14.917  0.00  0.00    +0.000 OA
ENDROOT
BRANCH   1   2
ATOM      2  C   UNL     1      48.255   6.343  13.877  0.00  0.00    +0.000 A 
ATOM      3  C   UNL     1      48.486   7.193  12.796  0.00  0.00    +0.000 A 
ATOM      4  C   UNL     1      47.569   7.275  11.754  0.00  0.00    +0.000 A 
ATOM      5  C   UNL     1      46.439   6.466  11.767  0.00  0.00    +0.000 A 
ATOM      6  C   UNL     1      46.188   5.578  12.818  0.00  0.00    +0.000 A 
ATOM      7  C   UNL     1      47.086   5.578  13.898  0.00  0.00    +0.000 A 
BRANCH   6   8
ATOM      8  N   UNL     1      45.119   4.713  12.768  0.00  0.00    +0.000 N 
ATOM      9  C   UNL     1      45.254   3.371  12.201  0.00  0.00    +0.000 C 
ATOM     10  C   UNL     1      44.262   3.156  11.043  0.00  0.00    +0.000 C 
ATOM     11  N   UNL     1      42.862   3.476  11.402  0.00  0.00    +0.000 NA
ATOM     12  C   UNL     1      42.805   4.868  11.907  0.00  0.00    +0.000 C 
ATOM     13  C   UNL     1      43.756   5.143  13.099  0.00  0.00    +0.000 C 
ATOM     14  H   UNL     1      42.591   2.857  12.167  0.00  0.00    +0.000 HD
ENDBRANCH   6   8
ENDBRANCH   1   2
BRANCH   1  15
ATOM     15  C   UNL     1      48.784   6.821  16.124  0.00  0.00    +0.000 C 
BRANCH  15  16
ATOM     16  C   UNL     1      48.522   5.826  17.252  0.00  0.00    +0.000 C 
BRANCH  16  20
ATOM     17  C   UNL     1      51.308   2.527  17.531  0.00  0.00    +0.000 A 
ATOM     18  C   UNL     1      51.773   3.833  17.666  0.00  0.00    +0.000 A 
ATOM     19  C   UNL     1      50.885   4.909  17.544  0.00  0.00    +0.000 A 
ATOM     20  C   UNL     1      49.518   4.683  17.299  0.00  0.00    +0.000 A 
ATOM     21  C   UNL     1      49.076   3.369  17.120  0.00  0.00    +0.000 A 
ATOM     22  C   UNL     1      49.963   2.291  17.234  0.00  0.00    +0.000 A 
BRANCH  17  24
ATOM     23  N   UNL     1      51.665   0.192  18.099  0.00  0.00    +0.000 N 
ATOM     24  C   UNL     1      52.230   1.368  17.675  0.00  0.00    +0.000 C 
ATOM     25  O   UNL     1      53.408   1.448  17.402  0.00  0.00    +0.000 OA
ATOM     26  H   UNL     1      52.267  -0.618  18.094  0.00  0.00    +0.000 HD
ATOM     27  H   UNL     1      50.669   0.040  18.087  0.00  0.00    +0.000 HD
ENDBRANCH  17  24
ENDBRANCH  16  20
ENDBRANCH  15  16
ENDBRANCH   1  15
TORSDOF 6
ENDMDL
MODEL 6
REMARK VINA RESULT:    -6.990      3.520      7.565
REMARK INTER + INTRA:         -10.198
REMARK INTER:                  -9.079
REMARK INTRA:                  -1.119
REMARK UNBOUND:                -0.756
REMARK  Name = 
REMARK  6 active torsions:
REMARK  status: ('A' for Active; 'I' for Inactive)
REMARK    1  A    between atoms: C_2  and  C_4
REMARK    2  A    between atoms: C_7  and  C_8
REMARK    3  A    between atoms: C_8  and  C_9
REMARK    4  A    between atoms: C_9  and  O_10
REMARK    5  A    between atoms: O_10  and  C_11
REMARK    6  A    between atoms: C_15  and  N_16
REMARK                            x       y       z     vdW  Elec       q    Type
REMARK                         _______ _______ _______ _____ _____    ______ ____
ROOT
ATOM      1  O   UNL     1      46.225   3.835  13.798  0.00  0.00    +0.000 OA
ENDROOT
BRANCH   1   2
ATOM      2  C   UNL     1      45.142   3.925  12.954  0.00  0.00    +0.000 A 
ATOM      3  C   UNL     1      43.937   4.552  13.266  0.00  0.00    +0.000 A 
ATOM      4  C   UNL     1      42.929   4.659  12.314  0.00  0.00    +0.000 A 
ATOM      5  C   UNL     1      43.146   4.181  11.027  0.00  0.00    +0.000 A 
ATOM      6  C   UNL     1      44.353   3.574  10.666  0.00  0.00    +0.000 A 
ATOM      7  C   UNL     1      45.320   3.401  11.670  0.00  0.00    +0.000 A 
BRANCH   6   8
ATOM      8  N   UNL     1      44.589   3.196   9.364  0.00  0.00    +0.000 N 
ATOM      9  C   UNL     1      44.725   1.787   8.996  0.00  0.00    +0.000 C 
ATOM     10  C   UNL     1      46.082   1.522   8.316  0.00  0.00    +0.000 C 
ATOM     11  N   UNL     1      46.356   2.429   7.179  0.00  0.00    +0.000 NA
ATOM     12  C   UNL     1      46.258   3.830   7.652  0.00  0.00    +0.000 C 
ATOM     13  C   UNL     1      44.901   4.174   8.316  0.00  0.00    +0.000 C 
ATOM     14  H   UNL     1      45.623   2.284   6.484  0.00  0.00    +0.000 HD
ENDBRANCH   6   8
ENDBRANCH   1   2
BRANCH   1  15
ATOM     15  C   UNL     1      46.783   5.099  14.175  0.00  0.00    +0.000 C 
BRANCH  15  16
ATOM     16  C   UNL     1      47.396   5.798  12.965  0.00  0.00    +0.000 C 
BRANCH  16  20
ATOM     17  C   UNL     1      45.309   9.468  12.016  0.00  0.00    +0.000 A 
ATOM     18  C   UNL     1      44.947   8.286  11.375  0.00  0.00    +0.000 A 
ATOM     19  C   UNL     1      45.639   7.099  11.651  0.00  0.00    +0.000 A 
ATOM     20  C   UNL     1      46.692   7.086  12.584  0.00  0.00    +0.000 A 
ATOM     21  C   UNL     1      47.073   8.289  13.184  0.00  0.00    +0.000 A 
ATOM     22  C   UNL     1      46.388   9.479  12.905  0.00  0.00    +0.000 A 
BRANCH  17  24
ATOM     23  N   UNL     1      43.229  10.724  12.011  0.00  0.00    +0.000 N 
ATOM     24  C   UNL     1      44.577  10.736  11.754  0.00  0.00    +0.000 C 
ATOM     25  O   UNL     1      45.144  11.735  11.367  0.00  0.00    +0.000 OA
ATOM     26  H   UNL     1      42.754  11.611  11.935  0.00  0.00    +0.000 HD
ATOM     27  H   UNL     1      42.794  10.000  12.560  0.00  0.00    +0.000 HD
ENDBRANCH  17  24
ENDBRANCH  16  20
ENDBRANCH  15  16
ENDBRANCH   1  15
TORSDOF 6
ENDMDL
MODEL 7
REMARK VINA RESULT:    -6.845      3.855      8.165
REMARK INTER + INTRA:         -10.002
REMARK INTER:                  -9.368
REMARK INTRA:                  -0.635
REMARK UNBOUND:                -0.756
REMARK  Name = 
REMARK  6 active torsions:
REMARK  status: ('A' for Active; 'I' for Inactive)
REMARK    1  A    between atoms: C_2  and  C_4
REMARK    2  A    between atoms: C_7  and  C_8
REMARK    3  A    between atoms: C_8  and  C_9
REMARK    4  A    between atoms: C_9  and  O_10
REMARK    5  A    between atoms: O_10  and  C_11
REMARK    6  A    between atoms: C_15  and  N_16
REMARK                            x       y       z     vdW  Elec       q    Type
REMARK                         _______ _______ _______ _____ _____    ______ ____
ROOT
ATOM      1  O   UNL     1      48.140   5.192  14.752  0.00  0.00    +0.000 OA
ENDROOT
BRANCH   1   2
ATOM      2  C   UNL     1      47.423   5.835  13.768  0.00  0.00    +0.000 A 
ATOM      3  C   UNL     1      47.733   7.089  13.245  0.00  0.00    +0.000 A 
ATOM      4  C   UNL     1      46.990   7.619  12.196  0.00  0.00    +0.000 A 
ATOM      5  C   UNL     1      45.964   6.871  11.633  0.00  0.00    +0.000 A 
ATOM      6  C   UNL     1      45.643   5.596  12.109  0.00  0.00    +0.000 A 
ATOM      7  C   UNL     1      46.352   5.120  13.225  0.00  0.00    +0.000 A 
BRANCH   6   8
ATOM      8  N   UNL     1      44.691   4.828  11.478  0.00  0.00    +0.000 N 
ATOM      9  C   UNL     1      43.534   4.305  12.204  0.00  0.00    +0.000 C 
ATOM     10  C   UNL     1      43.467   2.770  12.106  0.00  0.00    +0.000 C 
ATOM     11  N   UNL     1      43.532   2.266  10.716  0.00  0.00    +0.000 NA
ATOM     12  C   UNL     1      44.760   2.791  10.075  0.00  0.00    +0.000 C 
ATOM     13  C   UNL     1      44.874   4.336  10.108  0.00  0.00    +0.000 C 
ATOM     14  H   UNL     1      42.731   2.648  10.212  0.00  0.00    +0.000 HD
ENDBRANCH   6   8
ENDBRANCH   1   2
BRANCH   1  15
ATOM     15  C   UNL     1      47.332   4.581  15.764  0.00  0.00    +0.000 C 
BRANCH  15  16
ATOM     16  C   UNL     1      47.978   4.743  17.137  0.00  0.00    +0.000 C 
BRANCH  16  20
ATOM     17  C   UNL     1      51.528   2.312  17.595  0.00  0.00    +0.000 A 
ATOM     18  C   UNL     1      50.347   1.727  17.146  0.00  0.00    +0.000 A 
ATOM     19  C   UNL     1      49.184   2.498  17.026  0.00  0.00    +0.000 A 
ATOM     20  C   UNL     1      49.199   3.868  17.343  0.00  0.00    +0.000 A 
ATOM     21  C   UNL     1      50.380   4.431  17.837  0.00  0.00    +0.000 A 
ATOM     22  C   UNL     1      51.543   3.660  17.964  0.00  0.00    +0.000 A 
BRANCH  17  24
ATOM     23  N   UNL     1      52.634   0.205  18.085  0.00  0.00    +0.000 N 
ATOM     24  C   UNL     1      52.780   1.517  17.712  0.00  0.00    +0.000 C 
ATOM     25  O   UNL     1      53.867   1.992  17.459  0.00  0.00    +0.000 OA
ATOM     26  H   UNL     1      53.469  -0.360  18.060  0.00  0.00    +0.000 HD
ATOM     27  H   UNL     1      51.744  -0.266  18.053  0.00  0.00    +0.000 HD
ENDBRANCH  17  24
ENDBRANCH  16  20
ENDBRANCH  15  16
ENDBRANCH   1  15
TORSDOF 6
ENDMDL
MODEL 8
REMARK VINA RESULT:    -6.831      2.311      7.960
REMARK INTER + INTRA:          -9.984
REMARK INTER:                  -9.028
REMARK INTRA:                  -0.956
REMARK UNBOUND:                -0.756
REMARK  Name = 
REMARK  6 active torsions:
REMARK  status: ('A' for Active; 'I' for Inactive)
REMARK    1  A    between atoms: C_2  and  C_4
REMARK    2  A    between atoms: C_7  and  C_8
REMARK    3  A    between atoms: C_8  and  C_9
REMARK    4  A    between atoms: C_9  and  O_10
REMARK    5  A    between atoms: O_10  and  C_11
REMARK    6  A    between atoms: C_15  and  N_16
REMARK                            x       y       z     vdW  Elec       q    Type
REMARK                         _______ _______ _______ _____ _____    ______ ____
ROOT
ATOM      1  O   UNL     1      46.393   7.399  11.570  0.00  0.00    +0.000 OA
ENDROOT
BRANCH   1   2
ATOM      2  C   UNL     1      45.448   6.421  11.362  0.00  0.00    +0.000 A 
ATOM      3  C   UNL     1      44.226   6.338  12.028  0.00  0.00    +0.000 A 
ATOM      4  C   UNL     1      43.303   5.354  11.689  0.00  0.00    +0.000 A 
ATOM      5  C   UNL     1      43.582   4.480  10.646  0.00  0.00    +0.000 A 
ATOM      6  C   UNL     1      44.784   4.551   9.934  0.00  0.00    +0.000 A 
ATOM      7  C   UNL     1      45.733   5.497  10.353  0.00  0.00    +0.000 A 
BRANCH   6   8
ATOM      8  N   UNL     1      45.002   3.744   8.841  0.00  0.00    +0.000 N 
ATOM      9  C   UNL     1      44.615   2.334   8.850  0.00  0.00    +0.000 C 
ATOM     10  C   UNL     1      45.826   1.425   8.569  0.00  0.00    +0.000 C 
ATOM     11  N   UNL     1      46.567   1.795   7.343  0.00  0.00    +0.000 NA
ATOM     12  C   UNL     1      46.975   3.217   7.444  0.00  0.00    +0.000 C 
ATOM     13  C   UNL     1      45.796   4.192   7.691  0.00  0.00    +0.000 C 
ATOM     14  H   UNL     1      45.923   1.712   6.556  0.00  0.00    +0.000 HD
ENDBRANCH   6   8
ENDBRANCH   1   2
BRANCH   1  15
ATOM     15  C   UNL     1      47.697   6.898  11.887  0.00  0.00    +0.000 C 
BRANCH  15  16
ATOM     16  C   UNL     1      48.156   7.418  13.247  0.00  0.00    +0.000 C 
BRANCH  16  20
ATOM     17  C   UNL     1      47.658   4.567  16.464  0.00  0.00    +0.000 A 
ATOM     18  C   UNL     1      48.528   5.642  16.627  0.00  0.00    +0.000 A 
ATOM     19  C   UNL     1      48.721   6.552  15.579  0.00  0.00    +0.000 A 
ATOM     20  C   UNL     1      48.032   6.399  14.363  0.00  0.00    +0.000 A 
ATOM     21  C   UNL     1      47.198   5.289  14.198  0.00  0.00    +0.000 A 
ATOM     22  C   UNL     1      47.008   4.373  15.242  0.00  0.00    +0.000 A 
BRANCH  17  24
ATOM     23  N   UNL     1      48.145   3.802  18.717  0.00  0.00    +0.000 N 
ATOM     24  C   UNL     1      47.422   3.599  17.569  0.00  0.00    +0.000 C 
ATOM     25  O   UNL     1      46.613   2.702  17.473  0.00  0.00    +0.000 OA
ATOM     26  H   UNL     1      47.908   3.212  19.502  0.00  0.00    +0.000 HD
ATOM     27  H   UNL     1      48.622   4.668  18.906  0.00  0.00    +0.000 HD
ENDBRANCH  17  24
ENDBRANCH  16  20
ENDBRANCH  15  16
ENDBRANCH   1  15
TORSDOF 6
ENDMDL
MODEL 9
REMARK VINA RESULT:    -6.273      3.274      5.022
REMARK INTER + INTRA:          -9.229
REMARK INTER:                  -8.155
REMARK INTRA:                  -1.074
REMARK UNBOUND:                -0.756
REMARK  Name = 
REMARK  6 active torsions:
REMARK  status: ('A' for Active; 'I' for Inactive)
REMARK    1  A    between atoms: C_2  and  C_4
REMARK    2  A    between atoms: C_7  and  C_8
REMARK    3  A    between atoms: C_8  and  C_9
REMARK    4  A    between atoms: C_9  and  O_10
REMARK    5  A    between atoms: O_10  and  C_11
REMARK    6  A    between atoms: C_15  and  N_16
REMARK                            x       y       z     vdW  Elec       q    Type
REMARK                         _______ _______ _______ _____ _____    ______ ____
ROOT
ATOM      1  O   UNL     1      49.121   8.436  14.271  0.00  0.00    +0.000 OA
ENDROOT
BRANCH   1   2
ATOM      2  C   UNL     1      48.893   8.136  15.595  0.00  0.00    +0.000 A 
ATOM      3  C   UNL     1      48.590   9.071  16.584  0.00  0.00    +0.000 A 
ATOM      4  C   UNL     1      48.299   8.658  17.879  0.00  0.00    +0.000 A 
ATOM      5  C   UNL     1      48.260   7.302  18.177  0.00  0.00    +0.000 A 
ATOM      6  C   UNL     1      48.527   6.332  17.204  0.00  0.00    +0.000 A 
ATOM      7  C   UNL     1      48.904   6.779  15.927  0.00  0.00    +0.000 A 
BRANCH   6   8
ATOM      8  N   UNL     1      48.388   4.993  17.489  0.00  0.00    +0.000 N 
ATOM      9  C   UNL     1      49.404   4.270  18.254  0.00  0.00    +0.000 C 
ATOM     10  C   UNL     1      49.947   3.070  17.456  0.00  0.00    +0.000 C 
ATOM     11  N   UNL     1      48.885   2.174  16.947  0.00  0.00    +0.000 NA
ATOM     12  C   UNL     1      47.936   2.972  16.136  0.00  0.00    +0.000 C 
ATOM     13  C   UNL     1      47.324   4.179  16.891  0.00  0.00    +0.000 C 
ATOM     14  H   UNL     1      48.374   1.811  17.753  0.00  0.00    +0.000 HD
ENDBRANCH   6   8
ENDBRANCH   1   2
BRANCH   1  15
ATOM     15  C   UNL     1      49.033   7.310  13.391  0.00  0.00    +0.000 C 
BRANCH  15  16
ATOM     16  C   UNL     1      47.992   7.560  12.302  0.00  0.00    +0.000 C 
BRANCH  16  20
ATOM     17  C   UNL     1      44.972   4.484  11.931  0.00  0.00    +0.000 A 
ATOM     18  C   UNL     1      45.737   4.559  13.092  0.00  0.00    +0.000 A 
ATOM     19  C   UNL     1      46.740   5.530  13.209  0.00  0.00    +0.000 A 
ATOM     20  C   UNL     1      46.974   6.444  12.165  0.00  0.00    +0.000 A 
ATOM     21  C   UNL     1      46.229   6.326  10.989  0.00  0.00    +0.000 A 
ATOM     22  C   UNL     1      45.230   5.351  10.866  0.00  0.00    +0.000 A 
BRANCH  17  24
ATOM     23  N   UNL     1      43.977   2.374  12.609  0.00  0.00    +0.000 N 
ATOM     24  C   UNL     1      43.889   3.473  11.793  0.00  0.00    +0.000 C 
ATOM     25  O   UNL     1      42.962   3.628  11.027  0.00  0.00    +0.000 OA
ATOM     26  H   UNL     1      43.189   1.743  12.591  0.00  0.00    +0.000 HD
ATOM     27  H   UNL     1      44.584   2.347  13.411  0.00  0.00    +0.000 HD
ENDBRANCH  17  24
ENDBRANCH  16  20
ENDBRANCH  15  16
ENDBRANCH   1  15
TORSDOF 6
ENDMDL
