MODEL 1
REMARK VINA RESULT:    -7.204      0.000      0.000
REMARK INTER + INTRA:         -11.418
REMARK INTER:                 -10.152
REMARK INTRA:                  -1.266
REMARK UNBOUND:                -1.266
REMARK  Name = 
REMARK  8 active torsions:
REMARK  status: ('A' for Active; 'I' for Inactive)
REMARK    1  A    between atoms: C_1  and  O_2
REMARK    2  A    between atoms: O_2  and  C_3
REMARK    3  A    between atoms: C_8  and  C_9
REMARK    4  A    between atoms: N_11  and  C_12
REMARK    5  A    between atoms: C_12  and  C_13
REMARK    6  A    between atoms: C_16  and  C_17
REMARK    7  A    between atoms: C_17  and  N_18
REMARK    8  A    between atoms: C_19  and  C_21
REMARK                            x       y       z     vdW  Elec       q    Type
REMARK                         _______ _______ _______ _____ _____    ______ ____
ROOT
ATOM      1  C   UNL     1      50.358   7.464  15.334  0.00  0.00    +0.000 A 
ATOM      2  C   UNL     1      49.035   7.010  15.423  0.00  0.00    +0.000 A 
ATOM      3  C   UNL     1      48.166   7.121  14.331  0.00  0.00    +0.000 A 
ATOM      4  C   UNL     1      48.610   7.669  13.120  0.00  0.00    +0.000 A 
ATOM      5  C   UNL     1      49.929   8.136  13.036  0.00  0.00    +0.000 A 
ATOM      6  C   UNL     1      50.796   8.025  14.127  0.00  0.00    +0.000 A 
ENDROOT
BRANCH   1   7
ATOM      7  C   UNL     1      51.304   7.318  16.498  0.00  0.00    +0.000 C 
BRANCH   7  10
ATOM      8  C   UNL     1      51.227   5.148  17.662  0.00  0.00    +0.000 C 
ATOM      9  O   UNL     1      50.432   5.573  18.497  0.00  0.00    +0.000 OA
ATOM     10  N   UNL     1      51.726   5.949  16.663  0.00  0.00    +0.000 N 
ATOM     11  H   UNL     1      52.380   5.548  15.999  0.00  0.00    +0.000 HD
BRANCH   8  17
ATOM     12  C   UNL     1      50.868   2.622  17.242  0.00  0.00    +0.000 A 
ATOM     13  C   UNL     1      51.350   1.314  17.414  0.00  0.00    +0.000 A 
ATOM     14  C   UNL     1      52.605   1.078  17.982  0.00  0.00    +0.000 A 
ATOM     15  C   UNL     1      53.401   2.144  18.375  0.00  0.00    +0.000 A 
ATOM     16  C   UNL     1      52.928   3.449  18.233  0.00  0.00    +0.000 A 
ATOM     17  C   UNL     1      51.655   3.706  17.686  0.00  0.00    +0.000 A 
BRANCH  12  19
ATOM     18  C   UNL     1      48.487   2.784  17.461  0.00  0.00    +0.000 C 
ATOM     19  O   UNL     1      49.657   2.902  16.659  0.00  0.00    +0.000 OA
ENDBRANCH  12  19
ENDBRANCH   8  17
ENDBRANCH   7  10
ENDBRANCH   1   7
BRANCH   4  20
ATOM     20  C   UNL     1      47.688   7.783  11.932  0.00  0.00    +0.000 C 
BRANCH  20  21
ATOM     21  N   UNL     1      46.972   6.554  11.699  0.00  0.00    +0.000 N 
ATOM     22  C   UNL     1      45.608   6.489  11.833  0.00  0.00    +0.000 C 
ATOM     23  O   UNL     1      44.933   7.477  12.111  0.00  0.00    +0.000 OA
ATOM     24  H   UNL     1      47.514   5.697  11.709  0.00  0.00    +0.000 HD
BRANCH  22  25
ATOM     25  C   UNL     1      44.983   5.186  11.567  0.00  0.00    +0.000 A 
ATOM     26  C   UNL     1      44.276   4.541  12.574  0.00  0.00    +0.000 A 
ATOM     27  S   UNL     1      43.573   3.068  12.079  0.00  0.00    +0.000 S 
ATOM     28  C   UNL     1      44.235   3.211  10.518  0.00  0.00    +0.000 A 
ATOM     29  N   UNL     1      44.036   2.247   9.580  0.00  0.00    +0.000 NA
ATOM     30  C   UNL     1      44.620   2.469   8.451  0.00  0.00    +0.000 A 
ATOM     31  N   UNL     1      45.382   3.575   8.174  0.00  0.00    +0.000 N 
ATOM     32  C   UNL     1      45.587   4.588   9.080  0.00  0.00    +0.000 A 
ATOM     33  O   UNL     1      46.240   5.585   8.782  0.00  0.00    +0.000 OA
ATOM     34  C   UNL     1      44.963   4.379  10.370  0.00  0.00    +0.000 A 
ATOM     35  H   UNL     1      45.809   3.697   7.267  0.00  0.00    +0.000 HD
ENDBRANCH  22  25
ENDBRANCH  20  21
ENDBRANCH   4  20
TORSDOF 7
ENDMDL
MODEL 2
REMARK VINA RESULT:    -6.884      3.455      5.492
REMARK INTER + INTRA:         -10.967
REMARK INTER:                  -9.984
REMARK INTRA:                  -0.983
REMARK UNBOUND:                -1.266
REMARK  Name = 
REMARK  8 active torsions:
REMARK  status: ('A' for Active; 'I' for Inactive)
REMARK    1  A    between atoms: C_1  and  O_2
REMARK    2  A    between atoms: O_2  and  C_3
REMARK    3  A    between atoms: C_8  and  C_9
REMARK    4  A    between atoms: N_11  and  C_12
REMARK    5  A    between atoms: C_12  and  C_13
REMARK    6  A    between atoms: C_16  and  C_17
REMARK    7  A    between atoms: C_17  and  N_18
REMARK    8  A    between atoms: C_19  and  C_21
REMARK                            x       y       z     vdW  Elec       q    Type
REMARK                         _______ _______ _______ _____ _____    ______ ____
ROOT
ATOM      1  C   UNL     1      51.370   2.831  17.721  0.00  0.00    +0.000 A 
ATOM      2  C   UNL     1      50.762   4.030  18.114  0.00  0.00    +0.000 A 
ATOM      3  C   UNL     1      49.415   4.278  17.823  0.00  0.00    +0.000 A 
ATOM      4  C   UNL     1      48.643   3.320  17.151  0.00  0.00    +0.000 A 
ATOM      5  C   UNL     1      49.256   2.127  16.746  0.00  0.00    +0.000 A 
ATOM      6  C   UNL     1      50.601   1.880  17.037  0.00  0.00    +0.000 A 
ENDROOT
BRANCH   1   7
ATOM      7  C   UNL     1      52.810   2.549  18.061  0.00  0.00    +0.000 C 
BRANCH   7  10
ATOM      8  C   UNL     1      54.333   0.616  18.197  0.00  0.00    +0.000 C 
ATOM      9  O   UNL     1      55.146   1.247  18.868  0.00  0.00    +0.000 OA
ATOM     10  N   UNL     1      53.172   1.191  17.736  0.00  0.00    +0.000 N 
ATOM     11  H   UNL     1      52.534   0.627  17.186  0.00  0.00    +0.000 HD
BRANCH   8  17
ATOM     12  C   UNL     1      54.505  -1.885  18.830  0.00  0.00    +0.000 A 
ATOM     13  C   UNL     1      54.845  -3.186  18.427  0.00  0.00    +0.000 A 
ATOM     14  C   UNL     1      55.207  -3.459  17.104  0.00  0.00    +0.000 A 
ATOM     15  C   UNL     1      55.223  -2.438  16.164  0.00  0.00    +0.000 A 
ATOM     16  C   UNL     1      54.910  -1.136  16.553  0.00  0.00    +0.000 A 
ATOM     17  C   UNL     1      54.567  -0.836  17.887  0.00  0.00    +0.000 A 
BRANCH  12  19
ATOM     18  C   UNL     1      55.091  -1.633  21.140  0.00  0.00    +0.000 C 
ATOM     19  O   UNL     1      54.111  -1.577  20.108  0.00  0.00    +0.000 OA
ENDBRANCH  12  19
ENDBRANCH   8  17
ENDBRANCH   7  10
ENDBRANCH   1   7
BRANCH   4  20
ATOM     20  C   UNL     1      47.188   3.569  16.842  0.00  0.00    +0.000 C 
BRANCH  20  21
ATOM     21  N   UNL     1      47.029   4.580  15.828  0.00  0.00    +0.000 N 
ATOM     22  C   UNL     1      47.043   4.256  14.494  0.00  0.00    +0.000 C 
ATOM     23  O   UNL     1      47.145   3.096  14.106  0.00  0.00    +0.000 OA
ATOM     24  H   UNL     1      47.185   5.542  16.108  0.00  0.00    +0.000 HD
BRANCH  22  25
ATOM     25  C   UNL     1      46.868   5.367  13.548  0.00  0.00    +0.000 A 
ATOM     26  C   UNL     1      47.956   6.157  13.202  0.00  0.00    +0.000 A 
ATOM     27  S   UNL     1      47.587   7.364  12.054  0.00  0.00    +0.000 S 
ATOM     28  C   UNL     1      45.948   6.911  12.020  0.00  0.00    +0.000 A 
ATOM     29  N   UNL     1      45.052   7.575  11.243  0.00  0.00    +0.000 NA
ATOM     30  C   UNL     1      43.839   7.145  11.338  0.00  0.00    +0.000 A 
ATOM     31  N   UNL     1      43.442   6.104  12.136  0.00  0.00    +0.000 N 
ATOM     32  C   UNL     1      44.316   5.384  12.915  0.00  0.00    +0.000 A 
ATOM     33  O   UNL     1      43.932   4.428  13.584  0.00  0.00    +0.000 OA
ATOM     34  C   UNL     1      45.691   5.837  12.855  0.00  0.00    +0.000 A 
ATOM     35  H   UNL     1      42.477   5.807  12.161  0.00  0.00    +0.000 HD
ENDBRANCH  22  25
ENDBRANCH  20  21
ENDBRANCH   4  20
TORSDOF 7
ENDMDL
MODEL 3
REMARK VINA RESULT:    -6.851      1.274      2.090
REMARK INTER + INTRA:         -10.920
REMARK INTER:                  -9.731
REMARK INTRA:                  -1.189
REMARK UNBOUND:                -1.266
REMARK  Name = 
REMARK  8 active torsions:
REMARK  status: ('A' for Active; 'I' for Inactive)
REMARK    1  A    between atoms: C_1  and  O_2
REMARK    2  A    between atoms: O_2  and  C_3
REMARK    3  A    between atoms: C_8  and  C_9
REMARK    4  A    between atoms: N_11  and  C_12
REMARK    5  A    between atoms: C_12  and  C_13
REMARK    6  A    between atoms: C_16  and  C_17
REMARK    7  A    between atoms: C_17  and  N_18
REMARK    8  A    between atoms: C_19  and  C_21
REMARK                            x       y       z     vdW  Elec       q    Type
REMARK                         _______ _______ _______ _____ _____    ______ ____
ROOT
ATOM      1  C   UNL     1      50.492   7.519  15.380  0.00  0.00    +0.000 A 
ATOM      2  C   UNL     1      50.981   8.303  14.328  0.00  0.00    +0.000 A 
ATOM      3  C   UNL     1      50.183   8.579  13.211  0.00  0.00    +0.000 A 
ATOM      4  C   UNL     1      48.871   8.092  13.135  0.00  0.00    +0.000 A 
ATOM      5  C   UNL     1      48.388   7.295  14.181  0.00  0.00    +0.000 A 
ATOM      6  C   UNL     1      49.185   7.020  15.297  0.00  0.00    +0.000 A 
ENDROOT
BRANCH   1   7
ATOM      7  C   UNL     1      51.338   7.247  16.597  0.00  0.00    +0.000 C 
BRANCH   7  10
ATOM      8  C   UNL     1      51.201   5.058  17.720  0.00  0.00    +0.000 C 
ATOM      9  O   UNL     1      50.505   5.514  18.623  0.00  0.00    +0.000 OA
ATOM     10  N   UNL     1      51.677   5.849  16.701  0.00  0.00    +0.000 N 
ATOM     11  H   UNL     1      52.248   5.422  15.980  0.00  0.00    +0.000 HD
BRANCH   8  17
ATOM     12  C   UNL     1      50.666   2.582  17.202  0.00  0.00    +0.000 A 
ATOM     13  C   UNL     1      51.058   1.238  17.315  0.00  0.00    +0.000 A 
ATOM     14  C   UNL     1      52.299   0.894  17.860  0.00  0.00    +0.000 A 
ATOM     15  C   UNL     1      53.170   1.886  18.288  0.00  0.00    +0.000 A 
ATOM     16  C   UNL     1      52.786   3.224  18.203  0.00  0.00    +0.000 A 
ATOM     17  C   UNL     1      51.530   3.591  17.681  0.00  0.00    +0.000 A 
BRANCH  12  19
ATOM     18  C   UNL     1      48.286   2.767  17.402  0.00  0.00    +0.000 C 
ATOM     19  O   UNL     1      49.473   2.968  16.644  0.00  0.00    +0.000 OA
ENDBRANCH  12  19
ENDBRANCH   8  17
ENDBRANCH   7  10
ENDBRANCH   1   7
BRANCH   4  20
ATOM     20  C   UNL     1      47.997   8.392  11.943  0.00  0.00    +0.000 C 
BRANCH  20  21
ATOM     21  N   UNL     1      47.394   7.195  11.416  0.00  0.00    +0.000 N 
ATOM     22  C   UNL     1      46.030   7.059  11.340  0.00  0.00    +0.000 C 
ATOM     23  O   UNL     1      45.267   7.961  11.673  0.00  0.00    +0.000 OA
ATOM     24  H   UNL     1      47.980   6.368  11.366  0.00  0.00    +0.000 HD
BRANCH  22  25
ATOM     25  C   UNL     1      45.526   5.797  10.781  0.00  0.00    +0.000 A 
ATOM     26  C   UNL     1      45.760   5.491   9.447  0.00  0.00    +0.000 A 
ATOM     27  S   UNL     1      45.154   3.966   8.979  0.00  0.00    +0.000 S 
ATOM     28  C   UNL     1      44.509   3.684  10.527  0.00  0.00    +0.000 A 
ATOM     29  N   UNL     1      43.819   2.545  10.804  0.00  0.00    +0.000 NA
ATOM     30  C   UNL     1      43.360   2.477  12.008  0.00  0.00    +0.000 A 
ATOM     31  N   UNL     1      43.534   3.444  12.964  0.00  0.00    +0.000 N 
ATOM     32  C   UNL     1      44.247   4.597  12.740  0.00  0.00    +0.000 A 
ATOM     33  O   UNL     1      44.420   5.422  13.633  0.00  0.00    +0.000 OA
ATOM     34  C   UNL     1      44.773   4.729  11.396  0.00  0.00    +0.000 A 
ATOM     35  H   UNL     1      43.156   3.329  13.894  0.00  0.00    +0.000 HD
ENDBRANCH  22  25
ENDBRANCH  20  21
ENDBRANCH   4  20
TORSDOF 7
ENDMDL
MODEL 4
REMARK VINA RESULT:    -6.781      2.917      8.940
REMARK INTER + INTRA:         -10.823
REMARK INTER:                  -9.601
REMARK INTRA:                  -1.222
REMARK UNBOUND:                -1.266
REMARK  Name = 
REMARK  8 active torsions:
REMARK  status: ('A' for Active; 'I' for Inactive)
REMARK    1  A    between atoms: C_1  and  O_2
REMARK    2  A    between atoms: O_2  and  C_3
REMARK    3  A    between atoms: C_8  and  C_9
REMARK    4  A    between atoms: N_11  and  C_12
REMARK    5  A    between atoms: C_12  and  C_13
REMARK    6  A    between atoms: C_16  and  C_17
REMARK    7  A    between atoms: C_17  and  N_18
REMARK    8  A    between atoms: C_19  and  C_21
REMARK                            x       y       z     vdW  Elec       q    Type
REMARK                         _______ _______ _______ _____ _____    ______ ____
ROOT
ATOM      1  C   UNL     1      47.900   7.792  13.456  0.00  0.00    +0.000 A 
ATOM      2  C   UNL     1      48.246   6.539  13.979  0.00  0.00    +0.000 A 
ATOM      3  C   UNL     1      48.697   6.415  15.299  0.00  0.00    +0.000 A 
ATOM      4  C   UNL     1      48.791   7.540  16.129  0.00  0.00    +0.000 A 
ATOM      5  C   UNL     1      48.459   8.795  15.600  0.00  0.00    +0.000 A 
ATOM      6  C   UNL     1      48.009   8.919  14.283  0.00  0.00    +0.000 A 
ENDROOT
BRANCH   1   7
ATOM      7  C   UNL     1      47.386   7.924  12.047  0.00  0.00    +0.000 C 
BRANCH   7  10
ATOM      8  C   UNL     1      45.609   6.451  11.183  0.00  0.00    +0.000 C 
ATOM      9  O   UNL     1      44.754   7.319  11.335  0.00  0.00    +0.000 OA
ATOM     10  N   UNL     1      46.922   6.658  11.535  0.00  0.00    +0.000 N 
ATOM     11  H   UNL     1      47.589   5.908  11.389  0.00  0.00    +0.000 HD
BRANCH   8  17
ATOM     12  C   UNL     1      44.732   4.020  11.269  0.00  0.00    +0.000 A 
ATOM     13  C   UNL     1      44.533   2.809  10.586  0.00  0.00    +0.000 A 
ATOM     14  C   UNL     1      44.805   2.701   9.219  0.00  0.00    +0.000 A 
ATOM     15  C   UNL     1      45.268   3.803   8.513  0.00  0.00    +0.000 A 
ATOM     16  C   UNL     1      45.493   5.006   9.181  0.00  0.00    +0.000 A 
ATOM     17  C   UNL     1      45.249   5.128  10.564  0.00  0.00    +0.000 A 
BRANCH  12  19
ATOM     18  C   UNL     1      43.123   4.561  12.960  0.00  0.00    +0.000 C 
ATOM     19  O   UNL     1      44.447   4.182  12.602  0.00  0.00    +0.000 OA
ENDBRANCH  12  19
ENDBRANCH   8  17
ENDBRANCH   7  10
ENDBRANCH   1   7
BRANCH   4  20
ATOM     20  C   UNL     1      49.263   7.418  17.556  0.00  0.00    +0.000 C 
BRANCH  20  21
ATOM     21  N   UNL     1      50.239   6.369  17.701  0.00  0.00    +0.000 N 
ATOM     22  C   UNL     1      50.523   5.827  18.930  0.00  0.00    +0.000 C 
ATOM     23  O   UNL     1      49.930   6.175  19.948  0.00  0.00    +0.000 OA
ATOM     24  H   UNL     1      50.895   6.242  16.938  0.00  0.00    +0.000 HD
BRANCH  22  25
ATOM     25  C   UNL     1      51.533   4.760  18.959  0.00  0.00    +0.000 A 
ATOM     26  C   UNL     1      52.715   4.948  19.665  0.00  0.00    +0.000 A 
ATOM     27  S   UNL     1      53.749   3.591  19.638  0.00  0.00    +0.000 S 
ATOM     28  C   UNL     1      52.681   2.725  18.636  0.00  0.00    +0.000 A 
ATOM     29  N   UNL     1      52.984   1.472  18.204  0.00  0.00    +0.000 NA
ATOM     30  C   UNL     1      52.099   0.945  17.427  0.00  0.00    +0.000 A 
ATOM     31  N   UNL     1      50.933   1.558  17.047  0.00  0.00    +0.000 N 
ATOM     32  C   UNL     1      50.571   2.811  17.480  0.00  0.00    +0.000 A 
ATOM     33  O   UNL     1      49.498   3.312  17.154  0.00  0.00    +0.000 OA
ATOM     34  C   UNL     1      51.539   3.452  18.346  0.00  0.00    +0.000 A 
ATOM     35  H   UNL     1      50.274   1.090  16.440  0.00  0.00    +0.000 HD
ENDBRANCH  22  25
ENDBRANCH  20  21
ENDBRANCH   4  20
TORSDOF 7
ENDMDL
MODEL 5
REMARK VINA RESULT:    -6.761      3.370      5.934
REMARK INTER + INTRA:         -10.794
REMARK INTER:                  -9.684
REMARK INTRA:                  -1.109
REMARK UNBOUND:                -1.266
REMARK  Name = 
REMARK  8 active torsions:
REMARK  status: ('A' for Active; 'I' for Inactive)
REMARK    1  A    between atoms: C_1  and  O_2
REMARK    2  A    between atoms: O_2  and  C_3
REMARK    3  A    between atoms: C_8  and  C_9
REMARK    4  A    between atoms: N_11  and  C_12
REMARK    5  A    between atoms: C_12  and  C_13
REMARK    6  A    between atoms: C_16  and  C_17
REMARK    7  A    between atoms: C_17  and  N_18
REMARK    8  A    between atoms: C_19  and  C_21
REMARK                            x       y       z     vdW  Elec       q    Type
REMARK                         _______ _______ _______ _____ _____    ______ ____
ROOT
ATOM      1  C   UNL     1      51.516   2.902  17.784  0.00  0.00    +0.000 A 
ATOM      2  C   UNL     1      50.891   4.086  18.196  0.00  0.00    +0.000 A 
ATOM      3  C   UNL     1      49.538   4.315  17.916  0.00  0.00    +0.000 A 
ATOM      4  C   UNL     1      48.779   3.355  17.234  0.00  0.00    +0.000 A 
ATOM      5  C   UNL     1      49.410   2.178  16.809  0.00  0.00    +0.000 A 
ATOM      6  C   UNL     1      50.760   1.948  17.090  0.00  0.00    +0.000 A 
ENDROOT
BRANCH   1   7
ATOM      7  C   UNL     1      52.963   2.640  18.112  0.00  0.00    +0.000 C 
BRANCH   7  10
ATOM      8  C   UNL     1      54.140   0.508  18.489  0.00  0.00    +0.000 C 
ATOM      9  O   UNL     1      54.569   0.886  19.576  0.00  0.00    +0.000 OA
ATOM     10  N   UNL     1      53.367   1.320  17.693  0.00  0.00    +0.000 N 
ATOM     11  H   UNL     1      53.038   0.960  16.804  0.00  0.00    +0.000 HD
BRANCH   8  17
ATOM     12  C   UNL     1      54.312  -2.054  18.792  0.00  0.00    +0.000 A 
ATOM     13  C   UNL     1      54.701  -3.287  18.243  0.00  0.00    +0.000 A 
ATOM     14  C   UNL     1      55.157  -3.376  16.925  0.00  0.00    +0.000 A 
ATOM     15  C   UNL     1      55.220  -2.238  16.132  0.00  0.00    +0.000 A 
ATOM     16  C   UNL     1      54.859  -1.002  16.670  0.00  0.00    +0.000 A 
ATOM     17  C   UNL     1      54.421  -0.888  18.004  0.00  0.00    +0.000 A 
BRANCH  12  19
ATOM     18  C   UNL     1      54.427  -2.708  21.094  0.00  0.00    +0.000 C 
ATOM     19  O   UNL     1      53.827  -1.924  20.069  0.00  0.00    +0.000 OA
ENDBRANCH  12  19
ENDBRANCH   8  17
ENDBRANCH   7  10
ENDBRANCH   1   7
BRANCH   4  20
ATOM     20  C   UNL     1      47.319   3.584  16.936  0.00  0.00    +0.000 C 
BRANCH  20  21
ATOM     21  N   UNL     1      47.138   4.600  15.930  0.00  0.00    +0.000 N 
ATOM     22  C   UNL     1      47.148   4.287  14.594  0.00  0.00    +0.000 C 
ATOM     23  O   UNL     1      47.264   3.131  14.196  0.00  0.00    +0.000 OA
ATOM     24  H   UNL     1      47.282   5.562  16.217  0.00  0.00    +0.000 HD
BRANCH  22  25
ATOM     25  C   UNL     1      46.950   5.403  13.657  0.00  0.00    +0.000 A 
ATOM     26  C   UNL     1      45.902   5.362  12.748  0.00  0.00    +0.000 A 
ATOM     27  S   UNL     1      45.786   6.759  11.776  0.00  0.00    +0.000 S 
ATOM     28  C   UNL     1      47.166   7.444  12.497  0.00  0.00    +0.000 A 
ATOM     29  N   UNL     1      47.642   8.653  12.095  0.00  0.00    +0.000 NA
ATOM     30  C   UNL     1      48.712   9.037  12.706  0.00  0.00    +0.000 A 
ATOM     31  N   UNL     1      49.346   8.323  13.689  0.00  0.00    +0.000 N 
ATOM     32  C   UNL     1      48.887   7.111  14.148  0.00  0.00    +0.000 A 
ATOM     33  O   UNL     1      49.456   6.519  15.061  0.00  0.00    +0.000 OA
ATOM     34  C   UNL     1      47.694   6.628  13.483  0.00  0.00    +0.000 A 
ATOM     35  H   UNL     1      50.178   8.681  14.136  0.00  0.00    +0.000 HD
ENDBRANCH  22  25
ENDBRANCH  20  21
ENDBRANCH   4  20
TORSDOF 7
ENDMDL
MODEL 6
REMARK VINA RESULT:    -6.605      3.419      4.738
REMARK INTER + INTRA:         -10.575
REMARK INTER:                  -9.291
REMARK INTRA:                  -1.284
REMARK UNBOUND:                -1.266
REMARK  Name = 
REMARK  8 active torsions:
REMARK  status: ('A' for Active; 'I' for Inactive)
REMARK    1  A    between atoms: C_1  and  O_2
REMARK    2  A    between atoms: O_2  and  C_3
REMARK    3  A    between atoms: C_8  and  C_9
REMARK    4  A    between atoms: N_11  and  C_12
REMARK    5  A    between atoms: C_12  and  C_13
REMARK    6  A    between atoms: C_16  and  C_17
REMARK    7  A    between atoms: C_17  and  N_18
REMARK    8  A    between atoms: C_19  and  C_21
REMARK                            x       y       z     vdW  Elec       q    Type
REMARK                         _______ _______ _______ _____ _____    ______ ____
ROOT
ATOM      1  C   UNL     1      47.726   5.000  15.784  0.00  0.00    +0.000 A 
ATOM      2  C   UNL     1      47.076   4.817  14.557  0.00  0.00    +0.000 A 
ATOM      3  C   UNL     1      47.232   5.744  13.519  0.00  0.00    +0.000 A 
ATOM      4  C   UNL     1      48.060   6.863  13.682  0.00  0.00    +0.000 A 
ATOM      5  C   UNL     1      48.699   7.053  14.915  0.00  0.00    +0.000 A 
ATOM      6  C   UNL     1      48.543   6.127  15.951  0.00  0.00    +0.000 A 
ENDROOT
BRANCH   1   7
ATOM      7  C   UNL     1      47.584   3.988  16.890  0.00  0.00    +0.000 C 
BRANCH   7  10
ATOM      8  C   UNL     1      49.622   2.603  16.870  0.00  0.00    +0.000 C 
ATOM      9  O   UNL     1      49.216   1.940  15.920  0.00  0.00    +0.000 OA
ATOM     10  N   UNL     1      48.869   3.610  17.426  0.00  0.00    +0.000 N 
ATOM     11  H   UNL     1      49.251   4.127  18.210  0.00  0.00    +0.000 HD
BRANCH   8  17
ATOM     12  C   UNL     1      51.868   3.360  17.904  0.00  0.00    +0.000 A 
ATOM     13  C   UNL     1      53.161   3.000  18.319  0.00  0.00    +0.000 A 
ATOM     14  C   UNL     1      53.573   1.664  18.312  0.00  0.00    +0.000 A 
ATOM     15  C   UNL     1      52.697   0.669  17.902  0.00  0.00    +0.000 A 
ATOM     16  C   UNL     1      51.417   1.012  17.465  0.00  0.00    +0.000 A 
ATOM     17  C   UNL     1      50.992   2.355  17.440  0.00  0.00    +0.000 A 
BRANCH  12  19
ATOM     18  C   UNL     1      52.045   5.601  17.074  0.00  0.00    +0.000 C 
ATOM     19  O   UNL     1      51.409   4.653  17.925  0.00  0.00    +0.000 OA
ENDBRANCH  12  19
ENDBRANCH   8  17
ENDBRANCH   7  10
ENDBRANCH   1   7
BRANCH   4  20
ATOM     20  C   UNL     1      48.247   7.863  12.568  0.00  0.00    +0.000 C 
BRANCH  20  21
ATOM     21  N   UNL     1      47.069   8.670  12.381  0.00  0.00    +0.000 N 
ATOM     22  C   UNL     1      47.138   9.898  11.771  0.00  0.00    +0.000 C 
ATOM     23  O   UNL     1      48.190  10.343  11.320  0.00  0.00    +0.000 OA
ATOM     24  H   UNL     1      46.258   8.440  12.945  0.00  0.00    +0.000 HD
BRANCH  22  25
ATOM     25  C   UNL     1      45.873  10.633  11.629  0.00  0.00    +0.000 A 
ATOM     26  C   UNL     1      45.851  12.009  11.812  0.00  0.00    +0.000 A 
ATOM     27  S   UNL     1      44.315  12.707  11.557  0.00  0.00    +0.000 S 
ATOM     28  C   UNL     1      43.613  11.189  11.249  0.00  0.00    +0.000 A 
ATOM     29  N   UNL     1      42.285  11.069  10.981  0.00  0.00    +0.000 NA
ATOM     30  C   UNL     1      41.883   9.858  10.797  0.00  0.00    +0.000 A 
ATOM     31  N   UNL     1      42.691   8.752  10.850  0.00  0.00    +0.000 N 
ATOM     32  C   UNL     1      44.043   8.825  11.088  0.00  0.00    +0.000 A 
ATOM     33  O   UNL     1      44.745   7.817  11.084  0.00  0.00    +0.000 OA
ATOM     34  C   UNL     1      44.543  10.165  11.315  0.00  0.00    +0.000 A 
ATOM     35  H   UNL     1      42.318   7.827  10.689  0.00  0.00    +0.000 HD
ENDBRANCH  22  25
ENDBRANCH  20  21
ENDBRANCH   4  20
TORSDOF 7
ENDMDL
MODEL 7
REMARK VINA RESULT:    -6.519      4.671      6.193
REMARK INTER + INTRA:         -10.453
REMARK INTER:                  -9.233
REMARK INTRA:                  -1.220
REMARK UNBOUND:                -1.266
REMARK  Name = 
REMARK  8 active torsions:
REMARK  status: ('A' for Active; 'I' for Inactive)
REMARK    1  A    between atoms: C_1  and  O_2
REMARK    2  A    between atoms: O_2  and  C_3
REMARK    3  A    between atoms: C_8  and  C_9
REMARK    4  A    between atoms: N_11  and  C_12
REMARK    5  A    between atoms: C_12  and  C_13
REMARK    6  A    between atoms: C_16  and  C_17
REMARK    7  A    between atoms: C_17  and  N_18
REMARK    8  A    between atoms: C_19  and  C_21
REMARK                            x       y       z     vdW  Elec       q    Type
REMARK                         _______ _______ _______ _____ _____    ______ ____
ROOT
ATOM      1  C   UNL     1      50.387   8.782  11.379  0.00  0.00    +0.000 A 
ATOM      2  C   UNL     1      49.460   9.827  11.485  0.00  0.00    +0.000 A 
ATOM      3  C   UNL     1      48.192   9.605  12.036  0.00  0.00    +0.000 A 
ATOM      4  C   UNL     1      47.834   8.336  12.512  0.00  0.00    +0.000 A 
ATOM      5  C   UNL     1      48.757   7.288  12.391  0.00  0.00    +0.000 A 
ATOM      6  C   UNL     1      50.023   7.510  11.842  0.00  0.00    +0.000 A 
ENDROOT
BRANCH   1   7
ATOM      7  C   UNL     1      51.763   9.026  10.816  0.00  0.00    +0.000 C 
BRANCH   7  10
ATOM      8  C   UNL     1      53.075   7.948   9.031  0.00  0.00    +0.000 C 
ATOM      9  O   UNL     1      53.360   9.030   8.525  0.00  0.00    +0.000 OA
ATOM     10  N   UNL     1      52.271   7.856  10.142  0.00  0.00    +0.000 N 
ATOM     11  H   UNL     1      52.065   6.938  10.521  0.00  0.00    +0.000 HD
BRANCH   8  17
ATOM     12  C   UNL     1      54.498   5.792   9.154  0.00  0.00    +0.000 A 
ATOM     13  C   UNL     1      55.030   4.685   8.472  0.00  0.00    +0.000 A 
ATOM     14  C   UNL     1      54.690   4.428   7.141  0.00  0.00    +0.000 A 
ATOM     15  C   UNL     1      53.805   5.266   6.475  0.00  0.00    +0.000 A 
ATOM     16  C   UNL     1      53.286   6.382   7.131  0.00  0.00    +0.000 A 
ATOM     17  C   UNL     1      53.636   6.672   8.465  0.00  0.00    +0.000 A 
BRANCH  12  19
ATOM     18  C   UNL     1      55.177   4.983  11.305  0.00  0.00    +0.000 C 
ATOM     19  O   UNL     1      54.777   6.064  10.470  0.00  0.00    +0.000 OA
ENDBRANCH  12  19
ENDBRANCH   8  17
ENDBRANCH   7  10
ENDBRANCH   1   7
BRANCH   4  20
ATOM     20  C   UNL     1      46.476   8.086  13.118  0.00  0.00    +0.000 C 
BRANCH  20  21
ATOM     21  N   UNL     1      45.985   6.772  12.790  0.00  0.00    +0.000 N 
ATOM     22  C   UNL     1      44.970   6.598  11.883  0.00  0.00    +0.000 C 
ATOM     23  O   UNL     1      44.467   7.542  11.279  0.00  0.00    +0.000 OA
ATOM     24  H   UNL     1      46.208   6.022  13.436  0.00  0.00    +0.000 HD
BRANCH  22  25
ATOM     25  C   UNL     1      44.552   5.213  11.623  0.00  0.00    +0.000 A 
ATOM     26  C   UNL     1      43.853   4.509  12.595  0.00  0.00    +0.000 A 
ATOM     27  S   UNL     1      43.401   2.938  12.107  0.00  0.00    +0.000 S 
ATOM     28  C   UNL     1      44.170   3.122  10.601  0.00  0.00    +0.000 A 
ATOM     29  N   UNL     1      44.185   2.111   9.692  0.00  0.00    +0.000 NA
ATOM     30  C   UNL     1      44.829   2.377   8.606  0.00  0.00    +0.000 A 
ATOM     31  N   UNL     1      45.456   3.567   8.345  0.00  0.00    +0.000 N 
ATOM     32  C   UNL     1      45.444   4.627   9.220  0.00  0.00    +0.000 A 
ATOM     33  O   UNL     1      45.980   5.695   8.934  0.00  0.00    +0.000 OA
ATOM     34  C   UNL     1      44.744   4.374  10.463  0.00  0.00    +0.000 A 
ATOM     35  H   UNL     1      45.940   3.719   7.471  0.00  0.00    +0.000 HD
ENDBRANCH  22  25
ENDBRANCH  20  21
ENDBRANCH   4  20
TORSDOF 7
ENDMDL
MODEL 8
REMARK VINA RESULT:    -6.479      1.949      2.458
REMARK INTER + INTRA:         -10.397
REMARK INTER:                  -9.015
REMARK INTRA:                  -1.381
REMARK UNBOUND:                -1.266
REMARK  Name = 
REMARK  8 active torsions:
REMARK  status: ('A' for Active; 'I' for Inactive)
REMARK    1  A    between atoms: C_1  and  O_2
REMARK    2  A    between atoms: O_2  and  C_3
REMARK    3  A    between atoms: C_8  and  C_9
REMARK    4  A    between atoms: N_11  and  C_12
REMARK    5  A    between atoms: C_12  and  C_13
REMARK    6  A    between atoms: C_16  and  C_17
REMARK    7  A    between atoms: C_17  and  N_18
REMARK    8  A    between atoms: C_19  and  C_21
REMARK                            x       y       z     vdW  Elec       q    Type
REMARK                         _______ _______ _______ _____ _____    ______ ____
ROOT
ATOM      1  C   UNL     1      50.326   7.787  15.130  0.00  0.00    +0.000 A 
ATOM      2  C   UNL     1      50.502   8.714  14.094  0.00  0.00    +0.000 A 
ATOM      3  C   UNL     1      49.623   8.744  13.005  0.00  0.00    +0.000 A 
ATOM      4  C   UNL     1      48.538   7.859  12.940  0.00  0.00    +0.000 A 
ATOM      5  C   UNL     1      48.372   6.922  13.969  0.00  0.00    +0.000 A 
ATOM      6  C   UNL     1      49.250   6.893  15.057  0.00  0.00    +0.000 A 
ENDROOT
BRANCH   1   7
ATOM      7  C   UNL     1      51.252   7.774  16.318  0.00  0.00    +0.000 C 
BRANCH   7  10
ATOM      8  C   UNL     1      50.832   6.004  17.980  0.00  0.00    +0.000 C 
ATOM      9  O   UNL     1      51.585   5.223  17.405  0.00  0.00    +0.000 OA
ATOM     10  N   UNL     1      50.590   7.268  17.495  0.00  0.00    +0.000 N 
ATOM     11  H   UNL     1      49.959   7.874  18.008  0.00  0.00    +0.000 HD
BRANCH   8  17
ATOM     12  C   UNL     1      48.773   5.553  19.479  0.00  0.00    +0.000 A 
ATOM     13  C   UNL     1      48.286   5.266  20.764  0.00  0.00    +0.000 A 
ATOM     14  C   UNL     1      49.159   5.002  21.823  0.00  0.00    +0.000 A 
ATOM     15  C   UNL     1      50.531   5.010  21.611  0.00  0.00    +0.000 A 
ATOM     16  C   UNL     1      51.032   5.315  20.345  0.00  0.00    +0.000 A 
ATOM     17  C   UNL     1      50.168   5.609  19.271  0.00  0.00    +0.000 A 
BRANCH  12  19
ATOM     18  C   UNL     1      47.323   4.666  17.790  0.00  0.00    +0.000 C 
ATOM     19  O   UNL     1      47.953   5.786  18.403  0.00  0.00    +0.000 OA
ENDBRANCH  12  19
ENDBRANCH   8  17
ENDBRANCH   7  10
ENDBRANCH   1   7
BRANCH   4  20
ATOM     20  C   UNL     1      47.577   7.889  11.778  0.00  0.00    +0.000 C 
BRANCH  20  21
ATOM     21  N   UNL     1      46.891   6.632  11.628  0.00  0.00    +0.000 N 
ATOM     22  C   UNL     1      45.520   6.564  11.637  0.00  0.00    +0.000 C 
ATOM     23  O   UNL     1      44.819   7.569  11.727  0.00  0.00    +0.000 OA
ATOM     24  H   UNL     1      47.431   5.789  11.793  0.00  0.00    +0.000 HD
BRANCH  22  25
ATOM     25  C   UNL     1      44.927   5.229  11.472  0.00  0.00    +0.000 A 
ATOM     26  C   UNL     1      44.236   4.646  12.526  0.00  0.00    +0.000 A 
ATOM     27  S   UNL     1      43.569   3.123  12.145  0.00  0.00    +0.000 S 
ATOM     28  C   UNL     1      44.227   3.163  10.577  0.00  0.00    +0.000 A 
ATOM     29  N   UNL     1      44.051   2.126   9.715  0.00  0.00    +0.000 NA
ATOM     30  C   UNL     1      44.630   2.277   8.572  0.00  0.00    +0.000 A 
ATOM     31  N   UNL     1      45.365   3.376   8.210  0.00  0.00    +0.000 N 
ATOM     32  C   UNL     1      45.546   4.460   9.035  0.00  0.00    +0.000 A 
ATOM     33  O   UNL     1      46.174   5.447   8.661  0.00  0.00    +0.000 OA
ATOM     34  C   UNL     1      44.926   4.334  10.339  0.00  0.00    +0.000 A 
ATOM     35  H   UNL     1      45.789   3.439   7.295  0.00  0.00    +0.000 HD
ENDBRANCH  22  25
ENDBRANCH  20  21
ENDBRANCH   4  20
TORSDOF 7
ENDMDL
MODEL 9
REMARK VINA RESULT:    -6.394      5.376      8.605
REMARK INTER + INTRA:         -10.276
REMARK INTER:                  -9.116
REMARK INTRA:                  -1.160
REMARK UNBOUND:                -1.266
REMARK  Name = 
REMARK  8 active torsions:
REMARK  status: ('A' for Active; 'I' for Inactive)
REMARK    1  A    between atoms: C_1  and  O_2
REMARK    2  A    between atoms: O_2  and  C_3
REMARK    3  A    between atoms: C_8  and  C_9
REMARK    4  A    between atoms: N_11  and  C_12
REMARK    5  A    between atoms: C_12  and  C_13
REMARK    6  A    between atoms: C_16  and  C_17
REMARK    7  A    between atoms: C_17  and  N_18
REMARK    8  A    between atoms: C_19  and  C_21
REMARK                            x       y       z     vdW  Elec       q    Type
REMARK                         _______ _______ _______ _____ _____    ______ ____
ROOT
ATOM      1  C   UNL     1      48.624   7.434  12.964  0.00  0.00    +0.000 A 
ATOM      2  C   UNL     1      48.817   7.505  11.578  0.00  0.00    +0.000 A 
ATOM      3  C   UNL     1      50.029   7.965  11.048  0.00  0.00    +0.000 A 
ATOM      4  C   UNL     1      51.079   8.343  11.894  0.00  0.00    +0.000 A 
ATOM      5  C   UNL     1      50.879   8.286  13.280  0.00  0.00    +0.000 A 
ATOM      6  C   UNL     1      49.670   7.826  13.810  0.00  0.00    +0.000 A 
ENDROOT
BRANCH   1   7
ATOM      7  C   UNL     1      47.332   6.910  13.537  0.00  0.00    +0.000 C 
BRANCH   7  10
ATOM      8  C   UNL     1      45.722   6.142  11.838  0.00  0.00    +0.000 C 
ATOM      9  O   UNL     1      45.190   7.247  11.777  0.00  0.00    +0.000 OA
ATOM     10  N   UNL     1      46.763   5.884  12.698  0.00  0.00    +0.000 N 
ATOM     11  H   UNL     1      47.167   4.954  12.710  0.00  0.00    +0.000 HD
BRANCH   8  17
ATOM     12  C   UNL     1      44.670   3.827  11.368  0.00  0.00    +0.000 A 
ATOM     13  C   UNL     1      44.385   2.826  10.425  0.00  0.00    +0.000 A 
ATOM     14  C   UNL     1      44.652   3.020   9.066  0.00  0.00    +0.000 A 
ATOM     15  C   UNL     1      45.196   4.220   8.630  0.00  0.00    +0.000 A 
ATOM     16  C   UNL     1      45.506   5.215   9.557  0.00  0.00    +0.000 A 
ATOM     17  C   UNL     1      45.268   5.029  10.933  0.00  0.00    +0.000 A 
BRANCH  12  19
ATOM     18  C   UNL     1      43.209   4.303  13.207  0.00  0.00    +0.000 C 
ATOM     19  O   UNL     1      44.394   3.694  12.706  0.00  0.00    +0.000 OA
ENDBRANCH  12  19
ENDBRANCH   8  17
ENDBRANCH   7  10
ENDBRANCH   1   7
BRANCH   4  20
ATOM     20  C   UNL     1      52.393   8.828  11.336  0.00  0.00    +0.000 C 
BRANCH  20  21
ATOM     21  N   UNL     1      52.628   8.311  10.012  0.00  0.00    +0.000 N 
ATOM     22  C   UNL     1      53.787   8.594   9.333  0.00  0.00    +0.000 C 
ATOM     23  O   UNL     1      54.690   9.258   9.835  0.00  0.00    +0.000 OA
ATOM     24  H   UNL     1      51.820   7.976   9.499  0.00  0.00    +0.000 HD
BRANCH  22  25
ATOM     25  C   UNL     1      53.921   8.010   7.991  0.00  0.00    +0.000 A 
ATOM     26  C   UNL     1      54.060   8.841   6.888  0.00  0.00    +0.000 A 
ATOM     27  S   UNL     1      54.257   7.998   5.418  0.00  0.00    +0.000 S 
ATOM     28  C   UNL     1      54.108   6.492   6.196  0.00  0.00    +0.000 A 
ATOM     29  N   UNL     1      54.157   5.330   5.492  0.00  0.00    +0.000 NA
ATOM     30  C   UNL     1      54.000   4.266   6.204  0.00  0.00    +0.000 A 
ATOM     31  N   UNL     1      53.804   4.259   7.561  0.00  0.00    +0.000 N 
ATOM     32  C   UNL     1      53.776   5.405   8.318  0.00  0.00    +0.000 A 
ATOM     33  O   UNL     1      53.642   5.359   9.538  0.00  0.00    +0.000 OA
ATOM     34  C   UNL     1      53.934   6.631   7.562  0.00  0.00    +0.000 A 
ATOM     35  H   UNL     1      53.694   3.391   8.065  0.00  0.00    +0.000 HD
ENDBRANCH  22  25
ENDBRANCH  20  21
ENDBRANCH   4  20
TORSDOF 7
ENDMDL
