MODEL 1
REMARK VINA RESULT:    -8.418      0.000      0.000
REMARK INTER + INTRA:         -12.931
REMARK INTER:                 -11.863
REMARK INTRA:                  -1.068
REMARK UNBOUND:                -1.068
REMARK  Name = 
REMARK  9 active torsions:
REMARK  status: ('A' for Active; 'I' for Inactive)
REMARK    1  A    between atoms: C_1  and  C_2
REMARK    2  A    between atoms: C_5  and  C_6
REMARK    3  A    between atoms: N_8  and  C_9
REMARK    4  A    between atoms: C_9  and  C_10
REMARK    5  A    between atoms: C_13  and  C_14
REMARK    6  A    between atoms: C_14  and  N_15
REMARK    7  A    between atoms: N_15  and  C_16
REMARK    8  A    between atoms: C_16  and  C_17
REMARK    9  A    between atoms: C_29  and  C_30
REMARK                            x       y       z     vdW  Elec       q    Type
REMARK                         _______ _______ _______ _____ _____    ______ ____
ROOT
ATOM      1  C   UNL     1      48.215   6.447  13.729  0.00  0.00    +0.000 C 
ENDROOT
BRANCH   1   2
ATOM      2  C   UNL     1      46.966   6.077  12.971  0.00  0.00    +0.000 A 
ATOM      3  C   UNL     1      46.723   6.609  11.697  0.00  0.00    +0.000 A 
ATOM      4  C   UNL     1      45.558   6.280  10.993  0.00  0.00    +0.000 A 
ATOM      5  C   UNL     1      44.607   5.413  11.550  0.00  0.00    +0.000 A 
ATOM      6  C   UNL     1      44.844   4.894  12.830  0.00  0.00    +0.000 A 
ATOM      7  C   UNL     1      46.007   5.225  13.533  0.00  0.00    +0.000 A 
BRANCH   5   8
ATOM      8  C   UNL     1      43.347   5.045  10.795  0.00  0.00    +0.000 C 
BRANCH   8   9
ATOM      9  N   UNL     1      43.666   4.413   9.521  0.00  0.00    +0.000 NA
ATOM     10  H   UNL     1      44.328   4.996   9.011  0.00  0.00    +0.000 HD
BRANCH   9  11
ATOM     11  C   UNL     1      44.248   3.085   9.702  0.00  0.00    +0.000 C 
BRANCH  11  12
ATOM     12  C   UNL     1      45.323   2.835   8.669  0.00  0.00    +0.000 A 
ATOM     13  C   UNL     1      45.871   1.558   8.480  0.00  0.00    +0.000 A 
ATOM     14  C   UNL     1      46.869   1.354   7.523  0.00  0.00    +0.000 A 
ATOM     15  C   UNL     1      47.327   2.419   6.748  0.00  0.00    +0.000 A 
ATOM     16  C   UNL     1      46.788   3.691   6.926  0.00  0.00    +0.000 A 
ATOM     17  C   UNL     1      45.790   3.895   7.876  0.00  0.00    +0.000 A 
ENDBRANCH  11  12
ENDBRANCH   9  11
ENDBRANCH   8   9
ENDBRANCH   5   8
ENDBRANCH   1   2
BRANCH   1  20
ATOM     18  C   UNL     1      49.126   6.261  16.007  0.00  0.00    +0.000 C 
ATOM     19  O   UNL     1      50.264   6.530  15.628  0.00  0.00    +0.000 OA
ATOM     20  N   UNL     1      48.059   6.194  15.144  0.00  0.00    +0.000 N 
ATOM     21  H   UNL     1      47.124   6.224  15.526  0.00  0.00    +0.000 HD
BRANCH  18  26
ATOM     22  C   UNL     1      47.158  10.487  19.388  0.00  0.00    +0.000 C 
ATOM     23  C   UNL     1      47.502   9.028  19.471  0.00  0.00    +0.000 A 
ATOM     24  C   UNL     1      47.958   8.361  18.327  0.00  0.00    +0.000 A 
ATOM     25  C   UNL     1      48.313   6.996  18.401  0.00  0.00    +0.000 A 
ATOM     26  C   UNL     1      48.813   6.041  17.425  0.00  0.00    +0.000 A 
ATOM     27  C   UNL     1      48.943   4.784  17.994  0.00  0.00    +0.000 A 
ATOM     28  S   UNL     1      48.535   4.747  19.649  0.00  0.00    +0.000 S 
ATOM     29  C   UNL     1      48.134   6.400  19.646  0.00  0.00    +0.000 A 
ATOM     30  N   UNL     1      47.687   6.991  20.773  0.00  0.00    +0.000 NA
ATOM     31  C   UNL     1      47.380   8.301  20.658  0.00  0.00    +0.000 A 
ATOM     32  C   UNL     1      46.876   8.962  21.914  0.00  0.00    +0.000 C 
ENDBRANCH  18  26
ENDBRANCH   1  20
TORSDOF 7
ENDMDL
MODEL 2
REMARK VINA RESULT:    -7.910      1.449      2.380
REMARK INTER + INTRA:         -12.215
REMARK INTER:                 -11.177
REMARK INTRA:                  -1.037
REMARK UNBOUND:                -1.068
REMARK  Name = 
REMARK  9 active torsions:
REMARK  status: ('A' for Active; 'I' for Inactive)
REMARK    1  A    between atoms: C_1  and  C_2
REMARK    2  A    between atoms: C_5  and  C_6
REMARK    3  A    between atoms: N_8  and  C_9
REMARK    4  A    between atoms: C_9  and  C_10
REMARK    5  A    between atoms: C_13  and  C_14
REMARK    6  A    between atoms: C_14  and  N_15
REMARK    7  A    between atoms: N_15  and  C_16
REMARK    8  A    between atoms: C_16  and  C_17
REMARK    9  A    between atoms: C_29  and  C_30
REMARK                            x       y       z     vdW  Elec       q    Type
REMARK                         _______ _______ _______ _____ _____    ______ ____
ROOT
ATOM      1  C   UNL     1      48.322   6.410  13.517  0.00  0.00    +0.000 C 
ENDROOT
BRANCH   1   2
ATOM      2  C   UNL     1      47.039   5.989  12.846  0.00  0.00    +0.000 A 
ATOM      3  C   UNL     1      46.228   5.001  13.420  0.00  0.00    +0.000 A 
ATOM      4  C   UNL     1      45.042   4.595  12.794  0.00  0.00    +0.000 A 
ATOM      5  C   UNL     1      44.644   5.166  11.577  0.00  0.00    +0.000 A 
ATOM      6  C   UNL     1      45.465   6.143  10.997  0.00  0.00    +0.000 A 
ATOM      7  C   UNL     1      46.649   6.545  11.621  0.00  0.00    +0.000 A 
BRANCH   5   8
ATOM      8  C   UNL     1      43.361   4.739  10.896  0.00  0.00    +0.000 C 
BRANCH   8   9
ATOM      9  N   UNL     1      43.632   4.146   9.593  0.00  0.00    +0.000 NA
ATOM     10  H   UNL     1      44.222   4.774   9.050  0.00  0.00    +0.000 HD
BRANCH   9  11
ATOM     11  C   UNL     1      44.305   2.853   9.713  0.00  0.00    +0.000 C 
BRANCH  11  12
ATOM     12  C   UNL     1      45.377   2.717   8.656  0.00  0.00    +0.000 A 
ATOM     13  C   UNL     1      45.812   3.823   7.911  0.00  0.00    +0.000 A 
ATOM     14  C   UNL     1      46.799   3.671   6.934  0.00  0.00    +0.000 A 
ATOM     15  C   UNL     1      47.360   2.416   6.692  0.00  0.00    +0.000 A 
ATOM     16  C   UNL     1      46.937   1.312   7.427  0.00  0.00    +0.000 A 
ATOM     17  C   UNL     1      45.956   1.463   8.405  0.00  0.00    +0.000 A 
ENDBRANCH  11  12
ENDBRANCH   9  11
ENDBRANCH   8   9
ENDBRANCH   5   8
ENDBRANCH   1   2
BRANCH   1  20
ATOM     18  C   UNL     1      48.876   7.316  15.737  0.00  0.00    +0.000 C 
ATOM     19  O   UNL     1      49.859   6.586  15.844  0.00  0.00    +0.000 OA
ATOM     20  N   UNL     1      48.060   7.294  14.631  0.00  0.00    +0.000 N 
ATOM     21  H   UNL     1      47.432   8.070  14.476  0.00  0.00    +0.000 HD
BRANCH  18  26
ATOM     22  C   UNL     1      47.618   5.783  21.143  0.00  0.00    +0.000 C 
ATOM     23  C   UNL     1      47.736   7.026  20.309  0.00  0.00    +0.000 A 
ATOM     24  C   UNL     1      48.104   6.920  18.962  0.00  0.00    +0.000 A 
ATOM     25  C   UNL     1      48.188   8.080  18.161  0.00  0.00    +0.000 A 
ATOM     26  C   UNL     1      48.527   8.305  16.765  0.00  0.00    +0.000 A 
ATOM     27  C   UNL     1      48.529   9.660  16.475  0.00  0.00    +0.000 A 
ATOM     28  S   UNL     1      48.091  10.635  17.804  0.00  0.00    +0.000 S 
ATOM     29  C   UNL     1      47.924   9.279  18.817  0.00  0.00    +0.000 A 
ATOM     30  N   UNL     1      47.580   9.437  20.111  0.00  0.00    +0.000 NA
ATOM     31  C   UNL     1      47.492   8.299  20.832  0.00  0.00    +0.000 A 
ATOM     32  C   UNL     1      47.112   8.474  22.279  0.00  0.00    +0.000 C 
ENDBRANCH  18  26
ENDBRANCH   1  20
TORSDOF 7
ENDMDL
MODEL 3
REMARK VINA RESULT:    -7.893      2.196      3.048
REMARK INTER + INTRA:         -12.191
REMARK INTER:                 -10.959
REMARK INTRA:                  -1.232
REMARK UNBOUND:                -1.068
REMARK  Name = 
REMARK  9 active torsions:
REMARK  status: ('A' for Active; 'I' for Inactive)
REMARK    1  A    between atoms: C_1  and  C_2
REMARK    2  A    between atoms: C_5  and  C_6
REMARK    3  A    between atoms: N_8  and  C_9
REMARK    4  A    between atoms: C_9  and  C_10
REMARK    5  A    between atoms: C_13  and  C_14
REMARK    6  A    between atoms: C_14  and  N_15
REMARK    7  A    between atoms: N_15  and  C_16
REMARK    8  A    between atoms: C_16  and  C_17
REMARK    9  A    between atoms: C_29  and  C_30
REMARK                            x       y       z     vdW  Elec       q    Type
REMARK                         _______ _______ _______ _____ _____    ______ ____
ROOT
ATOM      1  C   UNL     1      47.427   7.559  12.677  0.00  0.00    +0.000 C 
ENDROOT
BRANCH   1   2
ATOM      2  C   UNL     1      46.495   6.441  12.284  0.00  0.00    +0.000 A 
ATOM      3  C   UNL     1      46.263   5.370  13.157  0.00  0.00    +0.000 A 
ATOM      4  C   UNL     1      45.409   4.321  12.792  0.00  0.00    +0.000 A 
ATOM      5  C   UNL     1      44.771   4.320  11.544  0.00  0.00    +0.000 A 
ATOM      6  C   UNL     1      45.016   5.385  10.666  0.00  0.00    +0.000 A 
ATOM      7  C   UNL     1      45.871   6.430  11.030  0.00  0.00    +0.000 A 
BRANCH   5   8
ATOM      8  C   UNL     1      43.841   3.195  11.142  0.00  0.00    +0.000 C 
BRANCH   8   9
ATOM      9  N   UNL     1      43.845   3.002   9.697  0.00  0.00    +0.000 NA
ATOM     10  H   UNL     1      44.298   3.797   9.251  0.00  0.00    +0.000 HD
BRANCH   9  11
ATOM     11  C   UNL     1      44.551   1.780   9.314  0.00  0.00    +0.000 C 
BRANCH  11  12
ATOM     12  C   UNL     1      45.654   2.097   8.329  0.00  0.00    +0.000 A 
ATOM     13  C   UNL     1      45.806   3.383   7.793  0.00  0.00    +0.000 A 
ATOM     14  C   UNL     1      46.829   3.649   6.878  0.00  0.00    +0.000 A 
ATOM     15  C   UNL     1      47.706   2.636   6.492  0.00  0.00    +0.000 A 
ATOM     16  C   UNL     1      47.565   1.355   7.019  0.00  0.00    +0.000 A 
ATOM     17  C   UNL     1      46.549   1.089   7.935  0.00  0.00    +0.000 A 
ENDBRANCH  11  12
ENDBRANCH   9  11
ENDBRANCH   8   9
ENDBRANCH   5   8
ENDBRANCH   1   2
BRANCH   1  20
ATOM     18  C   UNL     1      49.231   7.465  14.347  0.00  0.00    +0.000 C 
ATOM     19  O   UNL     1      50.096   7.662  13.497  0.00  0.00    +0.000 OA
ATOM     20  N   UNL     1      47.895   7.394  14.035  0.00  0.00    +0.000 N 
ATOM     21  H   UNL     1      47.217   7.486  14.778  0.00  0.00    +0.000 HD
BRANCH  18  26
ATOM     22  C   UNL     1      47.324   3.071  17.543  0.00  0.00    +0.000 C 
ATOM     23  C   UNL     1      48.168   4.304  17.689  0.00  0.00    +0.000 A 
ATOM     24  C   UNL     1      48.391   5.123  16.575  0.00  0.00    +0.000 A 
ATOM     25  C   UNL     1      49.158   6.301  16.708  0.00  0.00    +0.000 A 
ATOM     26  C   UNL     1      49.559   7.340  15.774  0.00  0.00    +0.000 A 
ATOM     27  C   UNL     1      50.381   8.266  16.396  0.00  0.00    +0.000 A 
ATOM     28  S   UNL     1      50.630   7.941  18.052  0.00  0.00    +0.000 S 
ATOM     29  C   UNL     1      49.679   6.534  17.977  0.00  0.00    +0.000 A 
ATOM     30  N   UNL     1      49.506   5.773  19.077  0.00  0.00    +0.000 NA
ATOM     31  C   UNL     1      48.748   4.668  18.907  0.00  0.00    +0.000 A 
ATOM     32  C   UNL     1      48.558   3.815  20.133  0.00  0.00    +0.000 C 
ENDBRANCH  18  26
ENDBRANCH   1  20
TORSDOF 7
ENDMDL
MODEL 4
REMARK VINA RESULT:    -7.630      4.330      6.918
REMARK INTER + INTRA:         -11.821
REMARK INTER:                 -10.696
REMARK INTRA:                  -1.125
REMARK UNBOUND:                -1.068
REMARK  Name = 
REMARK  9 active torsions:
REMARK  status: ('A' for Active; 'I' for Inactive)
REMARK    1  A    between atoms: C_1  and  C_2
REMARK    2  A    between atoms: C_5  and  C_6
REMARK    3  A    between atoms: N_8  and  C_9
REMARK    4  A    between atoms: C_9  and  C_10
REMARK    5  A    between atoms: C_13  and  C_14
REMARK    6  A    between atoms: C_14  and  N_15
REMARK    7  A    between atoms: N_15  and  C_16
REMARK    8  A    between atoms: C_16  and  C_17
REMARK    9  A    between atoms: C_29  and  C_30
REMARK                            x       y       z     vdW  Elec       q    Type
REMARK                         _______ _______ _______ _____ _____    ______ ____
ROOT
ATOM      1  C   UNL     1      48.091   6.447  13.564  0.00  0.00    +0.000 C 
ENDROOT
BRANCH   1   2
ATOM      2  C   UNL     1      46.879   5.876  12.872  0.00  0.00    +0.000 A 
ATOM      3  C   UNL     1      46.235   4.743  13.388  0.00  0.00    +0.000 A 
ATOM      4  C   UNL     1      45.117   4.200  12.742  0.00  0.00    +0.000 A 
ATOM      5  C   UNL     1      44.621   4.777  11.564  0.00  0.00    +0.000 A 
ATOM      6  C   UNL     1      45.275   5.901  11.043  0.00  0.00    +0.000 A 
ATOM      7  C   UNL     1      46.393   6.441  11.686  0.00  0.00    +0.000 A 
BRANCH   5   8
ATOM      8  C   UNL     1      43.409   4.202  10.862  0.00  0.00    +0.000 C 
BRANCH   8   9
ATOM      9  N   UNL     1      43.748   3.744   9.521  0.00  0.00    +0.000 NA
ATOM     10  H   UNL     1      44.317   4.449   9.056  0.00  0.00    +0.000 HD
BRANCH   9  11
ATOM     11  C   UNL     1      44.487   2.483   9.548  0.00  0.00    +0.000 C 
BRANCH  11  12
ATOM     12  C   UNL     1      45.544   2.469   8.467  0.00  0.00    +0.000 A 
ATOM     13  C   UNL     1      46.278   1.309   8.179  0.00  0.00    +0.000 A 
ATOM     14  C   UNL     1      47.255   1.323   7.179  0.00  0.00    +0.000 A 
ATOM     15  C   UNL     1      47.507   2.491   6.460  0.00  0.00    +0.000 A 
ATOM     16  C   UNL     1      46.782   3.648   6.736  0.00  0.00    +0.000 A 
ATOM     17  C   UNL     1      45.804   3.635   7.729  0.00  0.00    +0.000 A 
ENDBRANCH  11  12
ENDBRANCH   9  11
ENDBRANCH   8   9
ENDBRANCH   5   8
ENDBRANCH   1   2
BRANCH   1  20
ATOM     18  C   UNL     1      49.960   7.976  13.092  0.00  0.00    +0.000 C 
ATOM     19  O   UNL     1      50.528   7.686  14.142  0.00  0.00    +0.000 OA
ATOM     20  N   UNL     1      48.757   7.421  12.728  0.00  0.00    +0.000 N 
ATOM     21  H   UNL     1      48.462   7.491  11.764  0.00  0.00    +0.000 HD
BRANCH  18  26
ATOM     22  C   UNL     1      53.260   6.143   8.744  0.00  0.00    +0.000 C 
ATOM     23  C   UNL     1      52.715   7.428   9.297  0.00  0.00    +0.000 A 
ATOM     24  C   UNL     1      51.894   7.396  10.431  0.00  0.00    +0.000 A 
ATOM     25  C   UNL     1      51.400   8.601  10.978  0.00  0.00    +0.000 A 
ATOM     26  C   UNL     1      50.553   8.904  12.120  0.00  0.00    +0.000 A 
ATOM     27  C   UNL     1      50.301  10.265  12.194  0.00  0.00    +0.000 A 
ATOM     28  S   UNL     1      51.088  11.163  10.977  0.00  0.00    +0.000 S 
ATOM     29  C   UNL     1      51.756   9.758  10.291  0.00  0.00    +0.000 A 
ATOM     30  N   UNL     1      52.530   9.843   9.191  0.00  0.00    +0.000 NA
ATOM     31  C   UNL     1      52.997   8.667   8.716  0.00  0.00    +0.000 A 
ATOM     32  C   UNL     1      53.857   8.759   7.484  0.00  0.00    +0.000 C 
ENDBRANCH  18  26
ENDBRANCH   1  20
TORSDOF 7
ENDMDL
MODEL 5
REMARK VINA RESULT:    -7.532      2.260      2.920
REMARK INTER + INTRA:         -11.683
REMARK INTER:                 -10.818
REMARK INTRA:                  -0.865
REMARK UNBOUND:                -1.068
REMARK  Name = 
REMARK  9 active torsions:
REMARK  status: ('A' for Active; 'I' for Inactive)
REMARK    1  A    between atoms: C_1  and  C_2
REMARK    2  A    between atoms: C_5  and  C_6
REMARK    3  A    between atoms: N_8  and  C_9
REMARK    4  A    between atoms: C_9  and  C_10
REMARK    5  A    between atoms: C_13  and  C_14
REMARK    6  A    between atoms: C_14  and  N_15
REMARK    7  A    between atoms: N_15  and  C_16
REMARK    8  A    between atoms: C_16  and  C_17
REMARK    9  A    between atoms: C_29  and  C_30
REMARK                            x       y       z     vdW  Elec       q    Type
REMARK                         _______ _______ _______ _____ _____    ______ ____
ROOT
ATOM      1  C   UNL     1      47.650   5.312  14.429  0.00  0.00    +0.000 C 
ENDROOT
BRANCH   1   2
ATOM      2  C   UNL     1      46.606   5.126  13.358  0.00  0.00    +0.000 A 
ATOM      3  C   UNL     1      45.995   3.879  13.169  0.00  0.00    +0.000 A 
ATOM      4  C   UNL     1      45.035   3.697  12.166  0.00  0.00    +0.000 A 
ATOM      5  C   UNL     1      44.666   4.758  11.327  0.00  0.00    +0.000 A 
ATOM      6  C   UNL     1      45.288   6.001  11.509  0.00  0.00    +0.000 A 
ATOM      7  C   UNL     1      46.249   6.181  12.509  0.00  0.00    +0.000 A 
BRANCH   5   8
ATOM      8  C   UNL     1      43.623   4.575  10.245  0.00  0.00    +0.000 C 
BRANCH   8   9
ATOM      9  N   UNL     1      44.083   3.637   9.228  0.00  0.00    +0.000 NA
ATOM     10  H   UNL     1      43.306   3.396   8.615  0.00  0.00    +0.000 HD
BRANCH   9  11
ATOM     11  C   UNL     1      45.165   4.198   8.421  0.00  0.00    +0.000 C 
BRANCH  11  12
ATOM     12  C   UNL     1      45.949   3.093   7.750  0.00  0.00    +0.000 A 
ATOM     13  C   UNL     1      46.044   1.815   8.321  0.00  0.00    +0.000 A 
ATOM     14  C   UNL     1      46.780   0.812   7.685  0.00  0.00    +0.000 A 
ATOM     15  C   UNL     1      47.427   1.074   6.478  0.00  0.00    +0.000 A 
ATOM     16  C   UNL     1      47.338   2.339   5.901  0.00  0.00    +0.000 A 
ATOM     17  C   UNL     1      46.600   3.339   6.531  0.00  0.00    +0.000 A 
ENDBRANCH  11  12
ENDBRANCH   9  11
ENDBRANCH   8   9
ENDBRANCH   5   8
ENDBRANCH   1   2
BRANCH   1  20
ATOM     18  C   UNL     1      48.949   7.173  15.380  0.00  0.00    +0.000 C 
ATOM     19  O   UNL     1      49.879   6.431  15.689  0.00  0.00    +0.000 OA
ATOM     20  N   UNL     1      47.812   6.710  14.761  0.00  0.00    +0.000 N 
ATOM     21  H   UNL     1      47.203   7.374  14.305  0.00  0.00    +0.000 HD
BRANCH  18  26
ATOM     22  C   UNL     1      46.875   9.609  20.167  0.00  0.00    +0.000 C 
ATOM     23  C   UNL     1      47.559  10.007  18.891  0.00  0.00    +0.000 A 
ATOM     24  C   UNL     1      47.915   9.019  17.963  0.00  0.00    +0.000 A 
ATOM     25  C   UNL     1      48.531   9.384  16.746  0.00  0.00    +0.000 A 
ATOM     26  C   UNL     1      49.006   8.624  15.602  0.00  0.00    +0.000 A 
ATOM     27  C   UNL     1      49.605   9.460  14.674  0.00  0.00    +0.000 A 
ATOM     28  S   UNL     1      49.559  11.106  15.121  0.00  0.00    +0.000 S 
ATOM     29  C   UNL     1      48.774  10.745  16.585  0.00  0.00    +0.000 A 
ATOM     30  N   UNL     1      48.464  11.733  17.449  0.00  0.00    +0.000 NA
ATOM     31  C   UNL     1      47.858  11.338  18.590  0.00  0.00    +0.000 A 
ATOM     32  C   UNL     1      47.515  12.439  19.558  0.00  0.00    +0.000 C 
ENDBRANCH  18  26
ENDBRANCH   1  20
TORSDOF 7
ENDMDL
MODEL 6
REMARK VINA RESULT:    -7.381      1.948      2.725
REMARK INTER + INTRA:         -11.470
REMARK INTER:                 -10.459
REMARK INTRA:                  -1.011
REMARK UNBOUND:                -1.068
REMARK  Name = 
REMARK  9 active torsions:
REMARK  status: ('A' for Active; 'I' for Inactive)
REMARK    1  A    between atoms: C_1  and  C_2
REMARK    2  A    between atoms: C_5  and  C_6
REMARK    3  A    between atoms: N_8  and  C_9
REMARK    4  A    between atoms: C_9  and  C_10
REMARK    5  A    between atoms: C_13  and  C_14
REMARK    6  A    between atoms: C_14  and  N_15
REMARK    7  A    between atoms: N_15  and  C_16
REMARK    8  A    between atoms: C_16  and  C_17
REMARK    9  A    between atoms: C_29  and  C_30
REMARK                            x       y       z     vdW  Elec       q    Type
REMARK                         _______ _______ _______ _____ _____    ______ ____
ROOT
ATOM      1  C   UNL     1      47.347   3.913  14.859  0.00  0.00    +0.000 C 
ENDROOT
BRANCH   1   2
ATOM      2  C   UNL     1      46.443   4.158  13.678  0.00  0.00    +0.000 A 
ATOM      3  C   UNL     1      46.095   5.464  13.308  0.00  0.00    +0.000 A 
ATOM      4  C   UNL     1      45.244   5.697  12.220  0.00  0.00    +0.000 A 
ATOM      5  C   UNL     1      44.719   4.628  11.481  0.00  0.00    +0.000 A 
ATOM      6  C   UNL     1      45.057   3.322  11.861  0.00  0.00    +0.000 A 
ATOM      7  C   UNL     1      45.904   3.090  12.949  0.00  0.00    +0.000 A 
BRANCH   5   8
ATOM      8  C   UNL     1      43.805   4.869  10.298  0.00  0.00    +0.000 C 
BRANCH   8   9
ATOM      9  N   UNL     1      44.151   3.999   9.181  0.00  0.00    +0.000 NA
ATOM     10  H   UNL     1      43.393   4.003   8.501  0.00  0.00    +0.000 HD
BRANCH   9  11
ATOM     11  C   UNL     1      45.381   4.429   8.519  0.00  0.00    +0.000 C 
BRANCH  11  12
ATOM     12  C   UNL     1      46.021   3.268   7.790  0.00  0.00    +0.000 A 
ATOM     13  C   UNL     1      46.580   3.427   6.514  0.00  0.00    +0.000 A 
ATOM     14  C   UNL     1      47.159   2.337   5.858  0.00  0.00    +0.000 A 
ATOM     15  C   UNL     1      47.185   1.083   6.468  0.00  0.00    +0.000 A 
ATOM     16  C   UNL     1      46.634   0.915   7.736  0.00  0.00    +0.000 A 
ATOM     17  C   UNL     1      46.061   2.002   8.394  0.00  0.00    +0.000 A 
ENDBRANCH  11  12
ENDBRANCH   9  11
ENDBRANCH   8   9
ENDBRANCH   5   8
ENDBRANCH   1   2
BRANCH   1  20
ATOM     18  C   UNL     1      48.378   5.307  16.606  0.00  0.00    +0.000 C 
ATOM     19  O   UNL     1      49.399   4.623  16.618  0.00  0.00    +0.000 OA
ATOM     20  N   UNL     1      47.316   5.029  15.778  0.00  0.00    +0.000 N 
ATOM     21  H   UNL     1      46.624   5.747  15.620  0.00  0.00    +0.000 HD
BRANCH  18  26
ATOM     22  C   UNL     1      49.250  10.603  14.521  0.00  0.00    +0.000 C 
ATOM     23  C   UNL     1      48.864   9.935  15.810  0.00  0.00    +0.000 A 
ATOM     24  C   UNL     1      48.752   8.539  15.855  0.00  0.00    +0.000 A 
ATOM     25  C   UNL     1      48.420   7.898  17.069  0.00  0.00    +0.000 A 
ATOM     26  C   UNL     1      48.236   6.505  17.443  0.00  0.00    +0.000 A 
ATOM     27  C   UNL     1      47.843   6.403  18.767  0.00  0.00    +0.000 A 
ATOM     28  S   UNL     1      47.745   7.910  19.560  0.00  0.00    +0.000 S 
ATOM     29  C   UNL     1      48.187   8.747  18.147  0.00  0.00    +0.000 A 
ATOM     30  N   UNL     1      48.268  10.092  18.154  0.00  0.00    +0.000 NA
ATOM     31  C   UNL     1      48.609  10.660  16.976  0.00  0.00    +0.000 A 
ATOM     32  C   UNL     1      48.695  12.163  16.980  0.00  0.00    +0.000 C 
ENDBRANCH  18  26
ENDBRANCH   1  20
TORSDOF 7
ENDMDL
MODEL 7
REMARK VINA RESULT:    -6.889      2.397      3.779
REMARK INTER + INTRA:         -10.776
REMARK INTER:                 -10.035
REMARK INTRA:                  -0.741
REMARK UNBOUND:                -1.068
REMARK  Name = 
REMARK  9 active torsions:
REMARK  status: ('A' for Active; 'I' for Inactive)
REMARK    1  A    between atoms: C_1  and  C_2
REMARK    2  A    between atoms: C_5  and  C_6
REMARK    3  A    between atoms: N_8  and  C_9
REMARK    4  A    between atoms: C_9  and  C_10
REMARK    5  A    between atoms: C_13  and  C_14
REMARK    6  A    between atoms: C_14  and  N_15
REMARK    7  A    between atoms: N_15  and  C_16
REMARK    8  A    between atoms: C_16  and  C_17
REMARK    9  A    between atoms: C_29  and  C_30
REMARK                            x       y       z     vdW  Elec       q    Type
REMARK                         _______ _______ _______ _____ _____    ______ ____
ROOT
ATOM      1  C   UNL     1      47.015   4.285  15.156  0.00  0.00    +0.000 C 
ENDROOT
BRANCH   1   2
ATOM      2  C   UNL     1      46.422   4.637  13.816  0.00  0.00    +0.000 A 
ATOM      3  C   UNL     1      45.717   3.677  13.076  0.00  0.00    +0.000 A 
ATOM      4  C   UNL     1      45.176   3.995  11.824  0.00  0.00    +0.000 A 
ATOM      5  C   UNL     1      45.331   5.278  11.282  0.00  0.00    +0.000 A 
ATOM      6  C   UNL     1      46.048   6.232  12.017  0.00  0.00    +0.000 A 
ATOM      7  C   UNL     1      46.591   5.914  13.266  0.00  0.00    +0.000 A 
BRANCH   5   8
ATOM      8  C   UNL     1      44.744   5.634   9.933  0.00  0.00    +0.000 C 
BRANCH   8   9
ATOM      9  N   UNL     1      45.530   5.057   8.850  0.00  0.00    +0.000 NA
ATOM     10  H   UNL     1      46.421   4.726   9.218  0.00  0.00    +0.000 HD
BRANCH   9  11
ATOM     11  C   UNL     1      44.838   3.938   8.212  0.00  0.00    +0.000 C 
BRANCH  11  12
ATOM     12  C   UNL     1      45.836   2.981   7.600  0.00  0.00    +0.000 A 
ATOM     13  C   UNL     1      46.550   3.314   6.440  0.00  0.00    +0.000 A 
ATOM     14  C   UNL     1      47.462   2.410   5.890  0.00  0.00    +0.000 A 
ATOM     15  C   UNL     1      47.669   1.169   6.491  0.00  0.00    +0.000 A 
ATOM     16  C   UNL     1      46.968   0.828   7.644  0.00  0.00    +0.000 A 
ATOM     17  C   UNL     1      46.061   1.731   8.198  0.00  0.00    +0.000 A 
ENDBRANCH  11  12
ENDBRANCH   9  11
ENDBRANCH   8   9
ENDBRANCH   5   8
ENDBRANCH   1   2
BRANCH   1  20
ATOM     18  C   UNL     1      48.624   5.194  16.782  0.00  0.00    +0.000 C 
ATOM     19  O   UNL     1      48.605   4.164  17.452  0.00  0.00    +0.000 OA
ATOM     20  N   UNL     1      47.871   5.344  15.641  0.00  0.00    +0.000 N 
ATOM     21  H   UNL     1      48.108   6.087  14.999  0.00  0.00    +0.000 HD
BRANCH  18  26
ATOM     22  C   UNL     1      50.823   8.675  12.757  0.00  0.00    +0.000 C 
ATOM     23  C   UNL     1      50.831   8.511  14.250  0.00  0.00    +0.000 A 
ATOM     24  C   UNL     1      50.098   7.469  14.832  0.00  0.00    +0.000 A 
ATOM     25  C   UNL     1      50.122   7.288  16.232  0.00  0.00    +0.000 A 
ATOM     26  C   UNL     1      49.494   6.326  17.124  0.00  0.00    +0.000 A 
ATOM     27  C   UNL     1      49.786   6.622  18.445  0.00  0.00    +0.000 A 
ATOM     28  S   UNL     1      50.817   7.970  18.623  0.00  0.00    +0.000 S 
ATOM     29  C   UNL     1      50.872   8.221  16.942  0.00  0.00    +0.000 A 
ATOM     30  N   UNL     1      51.583   9.247  16.433  0.00  0.00    +0.000 NA
ATOM     31  C   UNL     1      51.547   9.369  15.089  0.00  0.00    +0.000 A 
ATOM     32  C   UNL     1      52.336  10.518  14.518  0.00  0.00    +0.000 C 
ENDBRANCH  18  26
ENDBRANCH   1  20
TORSDOF 7
ENDMDL
MODEL 8
REMARK VINA RESULT:    -6.844      3.036      9.307
REMARK INTER + INTRA:         -10.713
REMARK INTER:                  -9.266
REMARK INTRA:                  -1.447
REMARK UNBOUND:                -1.068
REMARK  Name = 
REMARK  9 active torsions:
REMARK  status: ('A' for Active; 'I' for Inactive)
REMARK    1  A    between atoms: C_1  and  C_2
REMARK    2  A    between atoms: C_5  and  C_6
REMARK    3  A    between atoms: N_8  and  C_9
REMARK    4  A    between atoms: C_9  and  C_10
REMARK    5  A    between atoms: C_13  and  C_14
REMARK    6  A    between atoms: C_14  and  N_15
REMARK    7  A    between atoms: N_15  and  C_16
REMARK    8  A    between atoms: C_16  and  C_17
REMARK    9  A    between atoms: C_29  and  C_30
REMARK                            x       y       z     vdW  Elec       q    Type
REMARK                         _______ _______ _______ _____ _____    ______ ____
ROOT
ATOM      1  C   UNL     1      47.116   8.640  13.551  0.00  0.00    +0.000 C 
ENDROOT
BRANCH   1   2
ATOM      2  C   UNL     1      48.194   8.391  14.575  0.00  0.00    +0.000 A 
ATOM      3  C   UNL     1      48.250   9.155  15.749  0.00  0.00    +0.000 A 
ATOM      4  C   UNL     1      49.257   8.938  16.698  0.00  0.00    +0.000 A 
ATOM      5  C   UNL     1      50.233   7.953  16.491  0.00  0.00    +0.000 A 
ATOM      6  C   UNL     1      50.185   7.200  15.310  0.00  0.00    +0.000 A 
ATOM      7  C   UNL     1      49.180   7.420  14.362  0.00  0.00    +0.000 A 
BRANCH   5   8
ATOM      8  C   UNL     1      51.322   7.705  17.514  0.00  0.00    +0.000 C 
BRANCH   8   9
ATOM      9  N   UNL     1      51.285   6.330  17.996  0.00  0.00    +0.000 NA
ATOM     10  H   UNL     1      52.099   6.155  18.584  0.00  0.00    +0.000 HD
BRANCH   9  11
ATOM     11  C   UNL     1      50.076   6.059  18.773  0.00  0.00    +0.000 C 
BRANCH  11  12
ATOM     12  C   UNL     1      49.255   4.976  18.109  0.00  0.00    +0.000 A 
ATOM     13  C   UNL     1      47.883   5.142  17.872  0.00  0.00    +0.000 A 
ATOM     14  C   UNL     1      47.145   4.123  17.264  0.00  0.00    +0.000 A 
ATOM     15  C   UNL     1      47.768   2.933  16.888  0.00  0.00    +0.000 A 
ATOM     16  C   UNL     1      49.130   2.758  17.117  0.00  0.00    +0.000 A 
ATOM     17  C   UNL     1      49.869   3.775  17.719  0.00  0.00    +0.000 A 
ENDBRANCH  11  12
ENDBRANCH   9  11
ENDBRANCH   8   9
ENDBRANCH   5   8
ENDBRANCH   1   2
BRANCH   1  20
ATOM     18  C   UNL     1      45.389   7.396  12.316  0.00  0.00    +0.000 C 
ATOM     19  O   UNL     1      45.113   8.371  11.621  0.00  0.00    +0.000 OA
ATOM     20  N   UNL     1      46.357   7.437  13.292  0.00  0.00    +0.000 N 
ATOM     21  H   UNL     1      46.720   6.567  13.652  0.00  0.00    +0.000 HD
BRANCH  18  26
ATOM     22  C   UNL     1      46.358   4.177   7.641  0.00  0.00    +0.000 C 
ATOM     23  C   UNL     1      45.560   4.129   8.912  0.00  0.00    +0.000 A 
ATOM     24  C   UNL     1      45.647   5.192   9.821  0.00  0.00    +0.000 A 
ATOM     25  C   UNL     1      44.878   5.171  11.005  0.00  0.00    +0.000 A 
ATOM     26  C   UNL     1      44.739   6.094  12.120  0.00  0.00    +0.000 A 
ATOM     27  C   UNL     1      43.892   5.572  13.084  0.00  0.00    +0.000 A 
ATOM     28  S   UNL     1      43.239   4.055  12.657  0.00  0.00    +0.000 S 
ATOM     29  C   UNL     1      44.099   4.032  11.191  0.00  0.00    +0.000 A 
ATOM     30  N   UNL     1      43.990   2.979  10.357  0.00  0.00    +0.000 NA
ATOM     31  C   UNL     1      44.728   3.052   9.228  0.00  0.00    +0.000 A 
ATOM     32  C   UNL     1      44.611   1.874   8.297  0.00  0.00    +0.000 C 
ENDBRANCH  18  26
ENDBRANCH   1  20
TORSDOF 7
ENDMDL
MODEL 9
REMARK VINA RESULT:    -6.717      3.666      8.960
REMARK INTER + INTRA:         -10.534
REMARK INTER:                  -8.406
REMARK INTRA:                  -2.127
REMARK UNBOUND:                -1.068
REMARK  Name = 
REMARK  9 active torsions:
REMARK  status: ('A' for Active; 'I' for Inactive)
REMARK    1  A    between atoms: C_1  and  C_2
REMARK    2  A    between atoms: C_5  and  C_6
REMARK    3  A    between atoms: N_8  and  C_9
REMARK    4  A    between atoms: C_9  and  C_10
REMARK    5  A    between atoms: C_13  and  C_14
REMARK    6  A    between atoms: C_14  and  N_15
REMARK    7  A    between atoms: N_15  and  C_16
REMARK    8  A    between atoms: C_16  and  C_17
REMARK    9  A    between atoms: C_29  and  C_30
REMARK                            x       y       z     vdW  Elec       q    Type
REMARK                         _______ _______ _______ _____ _____    ______ ____
ROOT
ATOM      1  C   UNL     1      47.543   3.516  16.471  0.00  0.00    +0.000 C 
ENDROOT
BRANCH   1   2
ATOM      2  C   UNL     1      47.886   4.269  17.731  0.00  0.00    +0.000 A 
ATOM      3  C   UNL     1      49.090   4.018  18.403  0.00  0.00    +0.000 A 
ATOM      4  C   UNL     1      49.408   4.704  19.582  0.00  0.00    +0.000 A 
ATOM      5  C   UNL     1      48.527   5.655  20.116  0.00  0.00    +0.000 A 
ATOM      6  C   UNL     1      47.317   5.894  19.450  0.00  0.00    +0.000 A 
ATOM      7  C   UNL     1      46.999   5.206  18.275  0.00  0.00    +0.000 A 
BRANCH   5   8
ATOM      8  C   UNL     1      48.864   6.408  21.386  0.00  0.00    +0.000 C 
BRANCH   8   9
ATOM      9  N   UNL     1      48.511   7.817  21.269  0.00  0.00    +0.000 NA
ATOM     10  H   UNL     1      48.343   8.201  22.197  0.00  0.00    +0.000 HD
BRANCH   9  11
ATOM     11  C   UNL     1      49.569   8.591  20.622  0.00  0.00    +0.000 C 
BRANCH  11  12
ATOM     12  C   UNL     1      49.359   8.623  19.125  0.00  0.00    +0.000 A 
ATOM     13  C   UNL     1      50.272   8.021  18.248  0.00  0.00    +0.000 A 
ATOM     14  C   UNL     1      50.060   8.069  16.867  0.00  0.00    +0.000 A 
ATOM     15  C   UNL     1      48.938   8.717  16.352  0.00  0.00    +0.000 A 
ATOM     16  C   UNL     1      48.023   9.316  17.215  0.00  0.00    +0.000 A 
ATOM     17  C   UNL     1      48.231   9.265  18.592  0.00  0.00    +0.000 A 
ENDBRANCH  11  12
ENDBRANCH   9  11
ENDBRANCH   8   9
ENDBRANCH   5   8
ENDBRANCH   1   2
BRANCH   1  20
ATOM     18  C   UNL     1      46.869   4.250  14.221  0.00  0.00    +0.000 C 
ATOM     19  O   UNL     1      47.686   3.508  13.680  0.00  0.00    +0.000 OA
ATOM     20  N   UNL     1      46.732   4.323  15.587  0.00  0.00    +0.000 N 
ATOM     21  H   UNL     1      45.896   4.741  15.969  0.00  0.00    +0.000 HD
BRANCH  18  26
ATOM     22  C   UNL     1      47.956   9.785  13.063  0.00  0.00    +0.000 C 
ATOM     23  C   UNL     1      46.900   8.751  12.796  0.00  0.00    +0.000 A 
ATOM     24  C   UNL     1      47.069   7.450  13.289  0.00  0.00    +0.000 A 
ATOM     25  C   UNL     1      46.069   6.478  13.070  0.00  0.00    +0.000 A 
ATOM     26  C   UNL     1      45.939   5.079  13.443  0.00  0.00    +0.000 A 
ATOM     27  C   UNL     1      44.775   4.540  12.921  0.00  0.00    +0.000 A 
ATOM     28  S   UNL     1      43.836   5.672  12.057  0.00  0.00    +0.000 S 
ATOM     29  C   UNL     1      44.976   6.905  12.321  0.00  0.00    +0.000 A 
ATOM     30  N   UNL     1      44.770   8.138  11.815  0.00  0.00    +0.000 NA
ATOM     31  C   UNL     1      45.744   9.039  12.067  0.00  0.00    +0.000 A 
ATOM     32  C   UNL     1      45.519  10.415  11.498  0.00  0.00    +0.000 C 
ENDBRANCH  18  26
ENDBRANCH   1  20
TORSDOF 7
ENDMDL
