MODEL 1
REMARK VINA RESULT:    -8.181      0.000      0.000
REMARK INTER + INTRA:         -11.445
REMARK INTER:                 -10.572
REMARK INTRA:                  -0.873
REMARK UNBOUND:                -0.873
REMARK  Name = 
REMARK  5 active torsions:
REMARK  status: ('A' for Active; 'I' for Inactive)
REMARK    1  A    between atoms: C_2  and  C_18
REMARK    2  A    between atoms: N_3  and  C_4
REMARK    3  A    between atoms: C_4  and  C_5
REMARK    4  A    between atoms: C_8  and  C_9
REMARK    5  A    between atoms: C_9  and  C_10
REMARK                            x       y       z     vdW  Elec       q    Type
REMARK                         _______ _______ _______ _____ _____    ______ ____
ROOT
ATOM      1  O   UNL     1      48.936   6.660  13.049  0.00  0.00    +0.000 OA
ATOM      2  C   UNL     1      48.217   6.676  14.044  0.00  0.00    +0.000 C 
ATOM      3  N   UNL     1      46.921   7.122  14.013  0.00  0.00    +0.000 N 
ATOM      4  H   UNL     1      46.426   7.281  14.884  0.00  0.00    +0.000 HD
ENDROOT
BRANCH   2   5
ATOM      5  C   UNL     1      48.692   6.159  15.332  0.00  0.00    +0.000 A 
ATOM      6  C   UNL     1      49.729   6.803  15.994  0.00  0.00    +0.000 A 
ATOM      7  S   UNL     1      50.136   6.079  17.484  0.00  0.00    +0.000 S 
ATOM      8  C   UNL     1      48.918   4.903  17.309  0.00  0.00    +0.000 A 
ATOM      9  N   UNL     1      48.696   3.977  18.278  0.00  0.00    +0.000 NA
ATOM     10  C   UNL     1      47.711   3.176  18.033  0.00  0.00    +0.000 A 
ATOM     11  N   UNL     1      46.946   3.205  16.898  0.00  0.00    +0.000 N 
ATOM     12  C   UNL     1      47.194   4.063  15.855  0.00  0.00    +0.000 A 
ATOM     13  O   UNL     1      46.593   3.954  14.786  0.00  0.00    +0.000 OA
ATOM     14  C   UNL     1      48.239   5.031  16.110  0.00  0.00    +0.000 A 
ATOM     15  H   UNL     1      46.219   2.519  16.746  0.00  0.00    +0.000 HD
ENDBRANCH   2   5
BRANCH   3  16
ATOM     16  C   UNL     1      46.326   7.675  12.825  0.00  0.00    +0.000 C 
BRANCH  16  17
ATOM     17  C   UNL     1      45.866   6.606  11.868  0.00  0.00    +0.000 A 
ATOM     18  C   UNL     1      44.880   5.692  12.258  0.00  0.00    +0.000 A 
ATOM     19  C   UNL     1      44.397   4.736  11.361  0.00  0.00    +0.000 A 
ATOM     20  C   UNL     1      44.902   4.666  10.055  0.00  0.00    +0.000 A 
ATOM     21  C   UNL     1      45.915   5.559   9.676  0.00  0.00    +0.000 A 
ATOM     22  C   UNL     1      46.402   6.511  10.578  0.00  0.00    +0.000 A 
BRANCH  20  23
ATOM     23  C   UNL     1      44.338   3.672   9.064  0.00  0.00    +0.000 C 
BRANCH  23  24
ATOM     24  C   UNL     1      45.397   2.898   8.324  0.00  0.00    +0.000 A 
ATOM     25  C   UNL     1      46.104   3.458   7.256  0.00  0.00    +0.000 A 
ATOM     26  C   UNL     1      47.027   2.685   6.556  0.00  0.00    +0.000 A 
ATOM     27  C   UNL     1      47.223   1.374   6.955  0.00  0.00    +0.000 A 
ATOM     28  N   UNL     1      46.579   0.803   7.994  0.00  0.00    +0.000 NA
ATOM     29  C   UNL     1      45.680   1.573   8.649  0.00  0.00    +0.000 A 
ENDBRANCH  23  24
ENDBRANCH  20  23
ENDBRANCH  16  17
ENDBRANCH   3  16
TORSDOF 5
ENDMDL
MODEL 2
REMARK VINA RESULT:    -7.795      1.725      2.397
REMARK INTER + INTRA:         -10.947
REMARK INTER:                 -10.220
REMARK INTRA:                  -0.727
REMARK UNBOUND:                -0.873
REMARK  Name = 
REMARK  5 active torsions:
REMARK  status: ('A' for Active; 'I' for Inactive)
REMARK    1  A    between atoms: C_2  and  C_18
REMARK    2  A    between atoms: N_3  and  C_4
REMARK    3  A    between atoms: C_4  and  C_5
REMARK    4  A    between atoms: C_8  and  C_9
REMARK    5  A    between atoms: C_9  and  C_10
REMARK                            x       y       z     vdW  Elec       q    Type
REMARK                         _______ _______ _______ _____ _____    ______ ____
ROOT
ATOM      1  O   UNL     1      49.176   6.501  14.935  0.00  0.00    +0.000 OA
ATOM      2  C   UNL     1      48.173   5.862  15.242  0.00  0.00    +0.000 C 
ATOM      3  N   UNL     1      47.041   5.847  14.469  0.00  0.00    +0.000 N 
ATOM      4  H   UNL     1      46.184   5.453  14.843  0.00  0.00    +0.000 HD
ENDROOT
BRANCH   2   5
ATOM      5  C   UNL     1      48.146   5.020  16.443  0.00  0.00    +0.000 A 
ATOM      6  C   UNL     1      47.782   3.684  16.340  0.00  0.00    +0.000 A 
ATOM      7  S   UNL     1      47.826   2.852  17.829  0.00  0.00    +0.000 S 
ATOM      8  C   UNL     1      48.366   4.241  18.652  0.00  0.00    +0.000 A 
ATOM      9  N   UNL     1      48.645   4.201  19.981  0.00  0.00    +0.000 NA
ATOM     10  C   UNL     1      49.089   5.315  20.464  0.00  0.00    +0.000 A 
ATOM     11  N   UNL     1      49.256   6.468  19.744  0.00  0.00    +0.000 N 
ATOM     12  C   UNL     1      48.900   6.577  18.422  0.00  0.00    +0.000 A 
ATOM     13  O   UNL     1      48.910   7.666  17.850  0.00  0.00    +0.000 OA
ATOM     14  C   UNL     1      48.468   5.336  17.813  0.00  0.00    +0.000 A 
ATOM     15  H   UNL     1      49.563   7.319  20.194  0.00  0.00    +0.000 HD
ENDBRANCH   2   5
BRANCH   3  16
ATOM     16  C   UNL     1      46.914   6.639  13.274  0.00  0.00    +0.000 C 
BRANCH  16  17
ATOM     17  C   UNL     1      46.227   5.888  12.164  0.00  0.00    +0.000 A 
ATOM     18  C   UNL     1      46.277   6.373  10.851  0.00  0.00    +0.000 A 
ATOM     19  C   UNL     1      45.700   5.655   9.802  0.00  0.00    +0.000 A 
ATOM     20  C   UNL     1      45.048   4.438  10.045  0.00  0.00    +0.000 A 
ATOM     21  C   UNL     1      44.969   3.969  11.363  0.00  0.00    +0.000 A 
ATOM     22  C   UNL     1      45.541   4.693  12.415  0.00  0.00    +0.000 A 
BRANCH  20  23
ATOM     23  C   UNL     1      44.477   3.629   8.901  0.00  0.00    +0.000 C 
BRANCH  23  24
ATOM     24  C   UNL     1      45.508   2.805   8.177  0.00  0.00    +0.000 A 
ATOM     25  C   UNL     1      46.224   3.316   7.089  0.00  0.00    +0.000 A 
ATOM     26  C   UNL     1      47.120   2.498   6.405  0.00  0.00    +0.000 A 
ATOM     27  C   UNL     1      47.282   1.193   6.839  0.00  0.00    +0.000 A 
ATOM     28  N   UNL     1      46.628   0.669   7.897  0.00  0.00    +0.000 NA
ATOM     29  C   UNL     1      45.755   1.482   8.536  0.00  0.00    +0.000 A 
ENDBRANCH  23  24
ENDBRANCH  20  23
ENDBRANCH  16  17
ENDBRANCH   3  16
TORSDOF 5
ENDMDL
MODEL 3
REMARK VINA RESULT:    -7.539      1.203      1.536
REMARK INTER + INTRA:         -10.616
REMARK INTER:                  -9.587
REMARK INTRA:                  -1.029
REMARK UNBOUND:                -0.873
REMARK  Name = 
REMARK  5 active torsions:
REMARK  status: ('A' for Active; 'I' for Inactive)
REMARK    1  A    between atoms: C_2  and  C_18
REMARK    2  A    between atoms: N_3  and  C_4
REMARK    3  A    between atoms: C_4  and  C_5
REMARK    4  A    between atoms: C_8  and  C_9
REMARK    5  A    between atoms: C_9  and  C_10
REMARK                            x       y       z     vdW  Elec       q    Type
REMARK                         _______ _______ _______ _____ _____    ______ ____
ROOT
ATOM      1  O   UNL     1      49.889   7.447  14.148  0.00  0.00    +0.000 OA
ATOM      2  C   UNL     1      49.039   7.299  15.022  0.00  0.00    +0.000 C 
ATOM      3  N   UNL     1      47.718   7.609  14.829  0.00  0.00    +0.000 N 
ATOM      4  H   UNL     1      47.089   7.637  15.625  0.00  0.00    +0.000 HD
ENDROOT
BRANCH   2   5
ATOM      5  C   UNL     1      49.383   6.718  16.325  0.00  0.00    +0.000 A 
ATOM      6  C   UNL     1      50.221   7.411  17.189  0.00  0.00    +0.000 A 
ATOM      7  S   UNL     1      50.496   6.600  18.664  0.00  0.00    +0.000 S 
ATOM      8  C   UNL     1      49.476   5.313  18.210  0.00  0.00    +0.000 A 
ATOM      9  N   UNL     1      49.236   4.279  19.058  0.00  0.00    +0.000 NA
ATOM     10  C   UNL     1      48.409   3.398  18.599  0.00  0.00    +0.000 A 
ATOM     11  N   UNL     1      47.820   3.447  17.364  0.00  0.00    +0.000 N 
ATOM     12  C   UNL     1      48.106   4.424  16.442  0.00  0.00    +0.000 A 
ATOM     13  O   UNL     1      47.687   4.349  15.288  0.00  0.00    +0.000 OA
ATOM     14  C   UNL     1      48.970   5.477  16.933  0.00  0.00    +0.000 A 
ATOM     15  H   UNL     1      47.218   2.700  17.048  0.00  0.00    +0.000 HD
ENDBRANCH   2   5
BRANCH   3  16
ATOM     16  C   UNL     1      47.238   8.204  13.610  0.00  0.00    +0.000 C 
BRANCH  16  17
ATOM     17  C   UNL     1      46.350   7.268  12.831  0.00  0.00    +0.000 A 
ATOM     18  C   UNL     1      45.247   7.767  12.129  0.00  0.00    +0.000 A 
ATOM     19  C   UNL     1      44.453   6.921  11.351  0.00  0.00    +0.000 A 
ATOM     20  C   UNL     1      44.739   5.551  11.269  0.00  0.00    +0.000 A 
ATOM     21  C   UNL     1      45.823   5.046  12.000  0.00  0.00    +0.000 A 
ATOM     22  C   UNL     1      46.613   5.893  12.785  0.00  0.00    +0.000 A 
BRANCH  20  23
ATOM     23  C   UNL     1      43.918   4.646  10.379  0.00  0.00    +0.000 C 
BRANCH  23  24
ATOM     24  C   UNL     1      44.752   3.779   9.473  0.00  0.00    +0.000 A 
ATOM     25  C   UNL     1      45.501   4.322   8.424  0.00  0.00    +0.000 A 
ATOM     26  C   UNL     1      46.205   3.479   7.569  0.00  0.00    +0.000 A 
ATOM     27  C   UNL     1      46.148   2.114   7.796  0.00  0.00    +0.000 A 
ATOM     28  N   UNL     1      45.456   1.552   8.809  0.00  0.00    +0.000 NA
ATOM     29  C   UNL     1      44.772   2.394   9.618  0.00  0.00    +0.000 A 
ENDBRANCH  23  24
ENDBRANCH  20  23
ENDBRANCH  16  17
ENDBRANCH   3  16
TORSDOF 5
ENDMDL
MODEL 4
REMARK VINA RESULT:    -7.494      3.804      9.404
REMARK INTER + INTRA:         -10.558
REMARK INTER:                  -9.630
REMARK INTRA:                  -0.928
REMARK UNBOUND:                -0.873
REMARK  Name = 
REMARK  5 active torsions:
REMARK  status: ('A' for Active; 'I' for Inactive)
REMARK    1  A    between atoms: C_2  and  C_18
REMARK    2  A    between atoms: N_3  and  C_4
REMARK    3  A    between atoms: C_4  and  C_5
REMARK    4  A    between atoms: C_8  and  C_9
REMARK    5  A    between atoms: C_9  and  C_10
REMARK                            x       y       z     vdW  Elec       q    Type
REMARK                         _______ _______ _______ _____ _____    ______ ____
ROOT
ATOM      1  O   UNL     1      47.334   3.126  14.024  0.00  0.00    +0.000 OA
ATOM      2  C   UNL     1      46.882   4.158  14.511  0.00  0.00    +0.000 C 
ATOM      3  N   UNL     1      46.846   4.383  15.863  0.00  0.00    +0.000 N 
ATOM      4  H   UNL     1      46.309   5.164  16.226  0.00  0.00    +0.000 HD
ENDROOT
BRANCH   2   5
ATOM      5  C   UNL     1      46.399   5.252  13.661  0.00  0.00    +0.000 A 
ATOM      6  C   UNL     1      47.209   6.355  13.431  0.00  0.00    +0.000 A 
ATOM      7  S   UNL     1      46.498   7.518  12.404  0.00  0.00    +0.000 S 
ATOM      8  C   UNL     1      45.098   6.568  12.208  0.00  0.00    +0.000 A 
ATOM      9  N   UNL     1      44.086   6.974  11.398  0.00  0.00    +0.000 NA
ATOM     10  C   UNL     1      43.108   6.134  11.307  0.00  0.00    +0.000 A 
ATOM     11  N   UNL     1      43.042   4.938  11.970  0.00  0.00    +0.000 N 
ATOM     12  C   UNL     1      43.998   4.531  12.868  0.00  0.00    +0.000 A 
ATOM     13  O   UNL     1      43.830   3.533  13.566  0.00  0.00    +0.000 OA
ATOM     14  C   UNL     1      45.152   5.402  12.950  0.00  0.00    +0.000 A 
ATOM     15  H   UNL     1      42.226   4.347  11.892  0.00  0.00    +0.000 HD
ENDBRANCH   2   5
BRANCH   3  16
ATOM     16  C   UNL     1      47.267   3.394  16.820  0.00  0.00    +0.000 C 
BRANCH  16  17
ATOM     17  C   UNL     1      48.727   3.526  17.168  0.00  0.00    +0.000 A 
ATOM     18  C   UNL     1      49.549   2.393  17.188  0.00  0.00    +0.000 A 
ATOM     19  C   UNL     1      50.917   2.508  17.447  0.00  0.00    +0.000 A 
ATOM     20  C   UNL     1      51.491   3.761  17.704  0.00  0.00    +0.000 A 
ATOM     21  C   UNL     1      50.661   4.890  17.719  0.00  0.00    +0.000 A 
ATOM     22  C   UNL     1      49.290   4.773  17.467  0.00  0.00    +0.000 A 
BRANCH  20  23
ATOM     23  C   UNL     1      52.981   3.894  17.924  0.00  0.00    +0.000 C 
BRANCH  23  24
ATOM     24  C   UNL     1      53.418   3.511  19.314  0.00  0.00    +0.000 A 
ATOM     25  C   UNL     1      53.027   4.249  20.435  0.00  0.00    +0.000 A 
ATOM     26  C   UNL     1      53.508   3.901  21.695  0.00  0.00    +0.000 A 
ATOM     27  C   UNL     1      54.359   2.814  21.796  0.00  0.00    +0.000 A 
ATOM     28  N   UNL     1      54.742   2.062  20.742  0.00  0.00    +0.000 NA
ATOM     29  C   UNL     1      54.269   2.430  19.529  0.00  0.00    +0.000 A 
ENDBRANCH  23  24
ENDBRANCH  20  23
ENDBRANCH  16  17
ENDBRANCH   3  16
TORSDOF 5
ENDMDL
MODEL 5
REMARK VINA RESULT:    -7.349      2.214      2.769
REMARK INTER + INTRA:         -10.370
REMARK INTER:                  -9.448
REMARK INTRA:                  -0.922
REMARK UNBOUND:                -0.873
REMARK  Name = 
REMARK  5 active torsions:
REMARK  status: ('A' for Active; 'I' for Inactive)
REMARK    1  A    between atoms: C_2  and  C_18
REMARK    2  A    between atoms: N_3  and  C_4
REMARK    3  A    between atoms: C_4  and  C_5
REMARK    4  A    between atoms: C_8  and  C_9
REMARK    5  A    between atoms: C_9  and  C_10
REMARK                            x       y       z     vdW  Elec       q    Type
REMARK                         _______ _______ _______ _____ _____    ______ ____
ROOT
ATOM      1  O   UNL     1      50.056   6.527  15.398  0.00  0.00    +0.000 OA
ATOM      2  C   UNL     1      48.931   6.321  15.843  0.00  0.00    +0.000 C 
ATOM      3  N   UNL     1      47.794   6.554  15.113  0.00  0.00    +0.000 N 
ATOM      4  H   UNL     1      46.891   6.537  15.575  0.00  0.00    +0.000 HD
ENDROOT
BRANCH   2   5
ATOM      5  C   UNL     1      48.735   5.752  17.181  0.00  0.00    +0.000 A 
ATOM      6  C   UNL     1      48.965   4.399  17.395  0.00  0.00    +0.000 A 
ATOM      7  S   UNL     1      48.709   3.914  19.010  0.00  0.00    +0.000 S 
ATOM      8  C   UNL     1      48.316   5.503  19.482  0.00  0.00    +0.000 A 
ATOM      9  N   UNL     1      48.029   5.796  20.777  0.00  0.00    +0.000 NA
ATOM     10  C   UNL     1      47.794   7.047  21.000  0.00  0.00    +0.000 A 
ATOM     11  N   UNL     1      47.799   8.025  20.041  0.00  0.00    +0.000 N 
ATOM     12  C   UNL     1      47.994   7.758  18.708  0.00  0.00    +0.000 A 
ATOM     13  O   UNL     1      47.831   8.631  17.856  0.00  0.00    +0.000 OA
ATOM     14  C   UNL     1      48.335   6.382  18.415  0.00  0.00    +0.000 A 
ATOM     15  H   UNL     1      47.561   8.979  20.274  0.00  0.00    +0.000 HD
ENDBRANCH   2   5
BRANCH   3  16
ATOM     16  C   UNL     1      47.829   7.128  13.794  0.00  0.00    +0.000 C 
BRANCH  16  17
ATOM     17  C   UNL     1      46.902   6.422  12.841  0.00  0.00    +0.000 A 
ATOM     18  C   UNL     1      46.477   7.062  11.670  0.00  0.00    +0.000 A 
ATOM     19  C   UNL     1      45.669   6.396  10.745  0.00  0.00    +0.000 A 
ATOM     20  C   UNL     1      45.257   5.077  10.978  0.00  0.00    +0.000 A 
ATOM     21  C   UNL     1      45.654   4.448  12.167  0.00  0.00    +0.000 A 
ATOM     22  C   UNL     1      46.457   5.119  13.096  0.00  0.00    +0.000 A 
BRANCH  20  23
ATOM     23  C   UNL     1      44.433   4.335   9.950  0.00  0.00    +0.000 C 
BRANCH  23  24
ATOM     24  C   UNL     1      45.259   3.482   9.023  0.00  0.00    +0.000 A 
ATOM     25  C   UNL     1      45.951   4.032   7.940  0.00  0.00    +0.000 A 
ATOM     26  C   UNL     1      46.648   3.199   7.069  0.00  0.00    +0.000 A 
ATOM     27  C   UNL     1      46.642   1.837   7.315  0.00  0.00    +0.000 A 
ATOM     28  N   UNL     1      46.006   1.268   8.361  0.00  0.00    +0.000 NA
ATOM     29  C   UNL     1      45.327   2.100   9.185  0.00  0.00    +0.000 A 
ENDBRANCH  23  24
ENDBRANCH  20  23
ENDBRANCH  16  17
ENDBRANCH   3  16
TORSDOF 5
ENDMDL
MODEL 6
REMARK VINA RESULT:    -6.997      3.249      7.878
REMARK INTER + INTRA:          -9.915
REMARK INTER:                  -8.942
REMARK INTRA:                  -0.973
REMARK UNBOUND:                -0.873
REMARK  Name = 
REMARK  5 active torsions:
REMARK  status: ('A' for Active; 'I' for Inactive)
REMARK    1  A    between atoms: C_2  and  C_18
REMARK    2  A    between atoms: N_3  and  C_4
REMARK    3  A    between atoms: C_4  and  C_5
REMARK    4  A    between atoms: C_8  and  C_9
REMARK    5  A    between atoms: C_9  and  C_10
REMARK                            x       y       z     vdW  Elec       q    Type
REMARK                         _______ _______ _______ _____ _____    ______ ____
ROOT
ATOM      1  O   UNL     1      45.791   7.830  11.930  0.00  0.00    +0.000 OA
ATOM      2  C   UNL     1      46.353   6.763  11.699  0.00  0.00    +0.000 C 
ATOM      3  N   UNL     1      47.611   6.475  12.161  0.00  0.00    +0.000 N 
ATOM      4  H   UNL     1      48.101   5.662  11.803  0.00  0.00    +0.000 HD
ENDROOT
BRANCH   2   5
ATOM      5  C   UNL     1      45.678   5.694  10.953  0.00  0.00    +0.000 A 
ATOM      6  C   UNL     1      45.850   5.599   9.579  0.00  0.00    +0.000 A 
ATOM      7  S   UNL     1      45.011   4.289   8.879  0.00  0.00    +0.000 S 
ATOM      8  C   UNL     1      44.419   3.787  10.395  0.00  0.00    +0.000 A 
ATOM      9  N   UNL     1      43.650   2.673  10.510  0.00  0.00    +0.000 NA
ATOM     10  C   UNL     1      43.310   2.386  11.724  0.00  0.00    +0.000 A 
ATOM     11  N   UNL     1      43.651   3.124  12.826  0.00  0.00    +0.000 N 
ATOM     12  C   UNL     1      44.348   4.304  12.744  0.00  0.00    +0.000 A 
ATOM     13  O   UNL     1      44.497   5.024  13.731  0.00  0.00    +0.000 OA
ATOM     14  C   UNL     1      44.817   4.633  11.415  0.00  0.00    +0.000 A 
ATOM     15  H   UNL     1      43.313   2.870  13.744  0.00  0.00    +0.000 HD
ENDBRANCH   2   5
BRANCH   3  16
ATOM     16  C   UNL     1      48.401   7.432  12.889  0.00  0.00    +0.000 C 
BRANCH  16  17
ATOM     17  C   UNL     1      48.796   6.924  14.251  0.00  0.00    +0.000 A 
ATOM     18  C   UNL     1      47.963   6.031  14.937  0.00  0.00    +0.000 A 
ATOM     19  C   UNL     1      48.345   5.502  16.171  0.00  0.00    +0.000 A 
ATOM     20  C   UNL     1      49.567   5.864  16.755  0.00  0.00    +0.000 A 
ATOM     21  C   UNL     1      50.385   6.785  16.085  0.00  0.00    +0.000 A 
ATOM     22  C   UNL     1      49.997   7.320  14.852  0.00  0.00    +0.000 A 
BRANCH  20  23
ATOM     23  C   UNL     1      50.009   5.245  18.062  0.00  0.00    +0.000 C 
BRANCH  23  24
ATOM     24  C   UNL     1      50.822   3.989  17.885  0.00  0.00    +0.000 A 
ATOM     25  C   UNL     1      50.253   2.812  17.390  0.00  0.00    +0.000 A 
ATOM     26  C   UNL     1      51.023   1.654  17.305  0.00  0.00    +0.000 A 
ATOM     27  C   UNL     1      52.346   1.714  17.708  0.00  0.00    +0.000 A 
ATOM     28  N   UNL     1      52.939   2.836  18.170  0.00  0.00    +0.000 NA
ATOM     29  C   UNL     1      52.164   3.942  18.252  0.00  0.00    +0.000 A 
ENDBRANCH  23  24
ENDBRANCH  20  23
ENDBRANCH  16  17
ENDBRANCH   3  16
TORSDOF 5
ENDMDL
MODEL 7
REMARK VINA RESULT:    -6.979      1.934      2.479
REMARK INTER + INTRA:          -9.892
REMARK INTER:                  -9.006
REMARK INTRA:                  -0.886
REMARK UNBOUND:                -0.873
REMARK  Name = 
REMARK  5 active torsions:
REMARK  status: ('A' for Active; 'I' for Inactive)
REMARK    1  A    between atoms: C_2  and  C_18
REMARK    2  A    between atoms: N_3  and  C_4
REMARK    3  A    between atoms: C_4  and  C_5
REMARK    4  A    between atoms: C_8  and  C_9
REMARK    5  A    between atoms: C_9  and  C_10
REMARK                            x       y       z     vdW  Elec       q    Type
REMARK                         _______ _______ _______ _____ _____    ______ ____
ROOT
ATOM      1  O   UNL     1      50.325   7.306  15.698  0.00  0.00    +0.000 OA
ATOM      2  C   UNL     1      49.159   7.287  16.082  0.00  0.00    +0.000 C 
ATOM      3  N   UNL     1      48.095   7.355  15.221  0.00  0.00    +0.000 N 
ATOM      4  H   UNL     1      47.163   7.513  15.589  0.00  0.00    +0.000 HD
ENDROOT
BRANCH   2   5
ATOM      5  C   UNL     1      48.830   7.130  17.504  0.00  0.00    +0.000 A 
ATOM      6  C   UNL     1      48.323   8.208  18.217  0.00  0.00    +0.000 A 
ATOM      7  S   UNL     1      47.979   7.841  19.848  0.00  0.00    +0.000 S 
ATOM      8  C   UNL     1      48.462   6.221  19.642  0.00  0.00    +0.000 A 
ATOM      9  N   UNL     1      48.376   5.331  20.666  0.00  0.00    +0.000 NA
ATOM     10  C   UNL     1      48.735   4.129  20.356  0.00  0.00    +0.000 A 
ATOM     11  N   UNL     1      49.191   3.743  19.124  0.00  0.00    +0.000 N 
ATOM     12  C   UNL     1      49.381   4.627  18.091  0.00  0.00    +0.000 A 
ATOM     13  O   UNL     1      49.944   4.280  17.053  0.00  0.00    +0.000 OA
ATOM     14  C   UNL     1      48.924   5.974  18.362  0.00  0.00    +0.000 A 
ATOM     15  H   UNL     1      49.500   2.795  18.960  0.00  0.00    +0.000 HD
ENDBRANCH   2   5
BRANCH   3  16
ATOM     16  C   UNL     1      48.264   7.531  13.802  0.00  0.00    +0.000 C 
BRANCH  16  17
ATOM     17  C   UNL     1      47.222   6.785  13.010  0.00  0.00    +0.000 A 
ATOM     18  C   UNL     1      46.563   7.416  11.947  0.00  0.00    +0.000 A 
ATOM     19  C   UNL     1      45.642   6.719  11.163  0.00  0.00    +0.000 A 
ATOM     20  C   UNL     1      45.349   5.375  11.433  0.00  0.00    +0.000 A 
ATOM     21  C   UNL     1      45.983   4.753  12.518  0.00  0.00    +0.000 A 
ATOM     22  C   UNL     1      46.900   5.455  13.307  0.00  0.00    +0.000 A 
BRANCH  20  23
ATOM     23  C   UNL     1      44.398   4.601  10.547  0.00  0.00    +0.000 C 
BRANCH  23  24
ATOM     24  C   UNL     1      45.096   3.746   9.522  0.00  0.00    +0.000 A 
ATOM     25  C   UNL     1      45.752   4.307   8.422  0.00  0.00    +0.000 A 
ATOM     26  C   UNL     1      46.327   3.477   7.462  0.00  0.00    +0.000 A 
ATOM     27  C   UNL     1      46.237   2.107   7.639  0.00  0.00    +0.000 A 
ATOM     28  N   UNL     1      45.634   1.527   8.697  0.00  0.00    +0.000 NA
ATOM     29  C   UNL     1      45.074   2.356   9.608  0.00  0.00    +0.000 A 
ENDBRANCH  23  24
ENDBRANCH  20  23
ENDBRANCH  16  17
ENDBRANCH   3  16
TORSDOF 5
ENDMDL
MODEL 8
REMARK VINA RESULT:    -6.950      2.605      3.446
REMARK INTER + INTRA:          -9.855
REMARK INTER:                  -9.038
REMARK INTRA:                  -0.817
REMARK UNBOUND:                -0.873
REMARK  Name = 
REMARK  5 active torsions:
REMARK  status: ('A' for Active; 'I' for Inactive)
REMARK    1  A    between atoms: C_2  and  C_18
REMARK    2  A    between atoms: N_3  and  C_4
REMARK    3  A    between atoms: C_4  and  C_5
REMARK    4  A    between atoms: C_8  and  C_9
REMARK    5  A    between atoms: C_9  and  C_10
REMARK                            x       y       z     vdW  Elec       q    Type
REMARK                         _______ _______ _______ _____ _____    ______ ____
ROOT
ATOM      1  O   UNL     1      46.458   8.585  12.298  0.00  0.00    +0.000 OA
ATOM      2  C   UNL     1      47.262   7.786  12.769  0.00  0.00    +0.000 C 
ATOM      3  N   UNL     1      46.895   6.543  13.214  0.00  0.00    +0.000 N 
ATOM      4  H   UNL     1      47.554   5.989  13.751  0.00  0.00    +0.000 HD
ENDROOT
BRANCH   2   5
ATOM      5  C   UNL     1      48.695   8.098  12.831  0.00  0.00    +0.000 A 
ATOM      6  C   UNL     1      49.292   8.804  11.795  0.00  0.00    +0.000 A 
ATOM      7  S   UNL     1      50.955   9.095  12.041  0.00  0.00    +0.000 S 
ATOM      8  C   UNL     1      50.922   8.317  13.556  0.00  0.00    +0.000 A 
ATOM      9  N   UNL     1      52.036   8.250  14.331  0.00  0.00    +0.000 NA
ATOM     10  C   UNL     1      51.855   7.671  15.473  0.00  0.00    +0.000 A 
ATOM     11  N   UNL     1      50.668   7.136  15.898  0.00  0.00    +0.000 N 
ATOM     12  C   UNL     1      49.544   7.101  15.110  0.00  0.00    +0.000 A 
ATOM     13  O   UNL     1      48.546   6.471  15.456  0.00  0.00    +0.000 OA
ATOM     14  C   UNL     1      49.672   7.802  13.850  0.00  0.00    +0.000 A 
ATOM     15  H   UNL     1      50.605   6.655  16.784  0.00  0.00    +0.000 HD
ENDBRANCH   2   5
BRANCH   3  16
ATOM     16  C   UNL     1      45.524   6.106  13.234  0.00  0.00    +0.000 C 
BRANCH  16  17
ATOM     17  C   UNL     1      45.231   5.106  12.146  0.00  0.00    +0.000 A 
ATOM     18  C   UNL     1      44.842   5.545  10.875  0.00  0.00    +0.000 A 
ATOM     19  C   UNL     1      44.629   4.632   9.839  0.00  0.00    +0.000 A 
ATOM     20  C   UNL     1      44.788   3.257  10.056  0.00  0.00    +0.000 A 
ATOM     21  C   UNL     1      45.143   2.815  11.339  0.00  0.00    +0.000 A 
ATOM     22  C   UNL     1      45.349   3.730  12.377  0.00  0.00    +0.000 A 
BRANCH  20  23
ATOM     23  C   UNL     1      44.617   2.273   8.920  0.00  0.00    +0.000 C 
BRANCH  23  24
ATOM     24  C   UNL     1      45.754   2.296   7.933  0.00  0.00    +0.000 A 
ATOM     25  C   UNL     1      45.894   3.326   6.998  0.00  0.00    +0.000 A 
ATOM     26  C   UNL     1      46.921   3.274   6.059  0.00  0.00    +0.000 A 
ATOM     27  C   UNL     1      47.787   2.194   6.091  0.00  0.00    +0.000 A 
ATOM     28  N   UNL     1      47.701   1.192   6.991  0.00  0.00    +0.000 NA
ATOM     29  C   UNL     1      46.687   1.262   7.884  0.00  0.00    +0.000 A 
ENDBRANCH  23  24
ENDBRANCH  20  23
ENDBRANCH  16  17
ENDBRANCH   3  16
TORSDOF 5
ENDMDL
MODEL 9
REMARK VINA RESULT:    -6.876      3.477      7.894
REMARK INTER + INTRA:          -9.759
REMARK INTER:                  -8.916
REMARK INTRA:                  -0.843
REMARK UNBOUND:                -0.873
REMARK  Name = 
REMARK  5 active torsions:
REMARK  status: ('A' for Active; 'I' for Inactive)
REMARK    1  A    between atoms: C_2  and  C_18
REMARK    2  A    between atoms: N_3  and  C_4
REMARK    3  A    between atoms: C_4  and  C_5
REMARK    4  A    between atoms: C_8  and  C_9
REMARK    5  A    between atoms: C_9  and  C_10
REMARK                            x       y       z     vdW  Elec       q    Type
REMARK                         _______ _______ _______ _____ _____    ______ ____
ROOT
ATOM      1  O   UNL     1      48.836   6.204  12.730  0.00  0.00    +0.000 OA
ATOM      2  C   UNL     1      47.822   6.749  13.158  0.00  0.00    +0.000 C 
ATOM      3  N   UNL     1      47.861   7.770  14.071  0.00  0.00    +0.000 N 
ATOM      4  H   UNL     1      47.004   8.069  14.524  0.00  0.00    +0.000 HD
ENDROOT
BRANCH   2   5
ATOM      5  C   UNL     1      46.492   6.372  12.666  0.00  0.00    +0.000 A 
ATOM      6  C   UNL     1      45.657   7.341  12.126  0.00  0.00    +0.000 A 
ATOM      7  S   UNL     1      44.160   6.724  11.587  0.00  0.00    +0.000 S 
ATOM      8  C   UNL     1      44.595   5.137  12.026  0.00  0.00    +0.000 A 
ATOM      9  N   UNL     1      43.758   4.093  11.790  0.00  0.00    +0.000 NA
ATOM     10  C   UNL     1      44.235   2.941  12.133  0.00  0.00    +0.000 A 
ATOM     11  N   UNL     1      45.461   2.744  12.709  0.00  0.00    +0.000 N 
ATOM     12  C   UNL     1      46.299   3.779  13.048  0.00  0.00    +0.000 A 
ATOM     13  O   UNL     1      47.317   3.581  13.709  0.00  0.00    +0.000 OA
ATOM     14  C   UNL     1      45.844   5.084  12.618  0.00  0.00    +0.000 A 
ATOM     15  H   UNL     1      45.756   1.822  12.997  0.00  0.00    +0.000 HD
ENDBRANCH   2   5
BRANCH   3  16
ATOM     16  C   UNL     1      49.092   8.233  14.656  0.00  0.00    +0.000 C 
BRANCH  16  17
ATOM     17  C   UNL     1      49.633   7.268  15.679  0.00  0.00    +0.000 A 
ATOM     18  C   UNL     1      51.008   7.017  15.750  0.00  0.00    +0.000 A 
ATOM     19  C   UNL     1      51.531   6.175  16.733  0.00  0.00    +0.000 A 
ATOM     20  C   UNL     1      50.686   5.554  17.663  0.00  0.00    +0.000 A 
ATOM     21  C   UNL     1      49.305   5.777  17.570  0.00  0.00    +0.000 A 
ATOM     22  C   UNL     1      48.782   6.615  16.580  0.00  0.00    +0.000 A 
BRANCH  20  23
ATOM     23  C   UNL     1      51.256   4.691  18.766  0.00  0.00    +0.000 C 
BRANCH  23  24
ATOM     24  C   UNL     1      51.692   3.328  18.295  0.00  0.00    +0.000 A 
ATOM     25  C   UNL     1      52.974   2.836  18.557  0.00  0.00    +0.000 A 
ATOM     26  C   UNL     1      53.359   1.599  18.046  0.00  0.00    +0.000 A 
ATOM     27  C   UNL     1      52.441   0.884  17.295  0.00  0.00    +0.000 A 
ATOM     28  N   UNL     1      51.188   1.312  17.039  0.00  0.00    +0.000 NA
ATOM     29  C   UNL     1      50.845   2.522  17.538  0.00  0.00    +0.000 A 
ENDBRANCH  23  24
ENDBRANCH  20  23
ENDBRANCH  16  17
ENDBRANCH   3  16
TORSDOF 5
ENDMDL
