MODEL 1
REMARK VINA RESULT:    -8.219      0.000      0.000
REMARK INTER + INTRA:         -12.631
REMARK INTER:                 -11.822
REMARK INTRA:                  -0.809
REMARK UNBOUND:                -0.809
REMARK  Name = 
REMARK  8 active torsions:
REMARK  status: ('A' for Active; 'I' for Inactive)
REMARK    1  A    between atoms: N_1  and  C_2
REMARK    2  A    between atoms: C_2  and  C_3
REMARK    3  A    between atoms: C_2  and  C_19
REMARK    4  A    between atoms: C_3  and  C_4
REMARK    5  A    between atoms: C_7  and  C_8
REMARK    6  A    between atoms: C_8  and  N_9
REMARK    7  A    between atoms: N_9  and  C_10
REMARK    8  A    between atoms: C_10  and  C_11
REMARK                            x       y       z     vdW  Elec       q    Type
REMARK                         _______ _______ _______ _____ _____    ______ ____
ROOT
ATOM      1  C   UNL     1      48.228   5.730  15.568  0.00  0.00    +0.000 C 
ENDROOT
BRANCH   1   2
ATOM      2  C   UNL     1      47.382   5.329  14.384  0.00  0.00    +0.000 A 
ATOM      3  C   UNL     1      46.992   3.993  14.218  0.00  0.00    +0.000 A 
ATOM      4  C   UNL     1      46.192   3.618  13.136  0.00  0.00    +0.000 A 
ATOM      5  C   UNL     1      45.751   4.573  12.210  0.00  0.00    +0.000 A 
ATOM      6  C   UNL     1      46.153   5.907  12.376  0.00  0.00    +0.000 A 
ATOM      7  C   UNL     1      46.965   6.280  13.449  0.00  0.00    +0.000 A 
BRANCH   5   8
ATOM      8  C   UNL     1      44.848   4.185  11.060  0.00  0.00    +0.000 C 
BRANCH   8   9
ATOM      9  N   UNL     1      44.933   2.749  10.807  0.00  0.00    +0.000 NA
ATOM     10  H   UNL     1      44.384   2.264  11.518  0.00  0.00    +0.000 HD
BRANCH   9  11
ATOM     11  C   UNL     1      44.385   2.387   9.494  0.00  0.00    +0.000 C 
BRANCH  11  12
ATOM     12  C   UNL     1      45.464   2.370   8.424  0.00  0.00    +0.000 A 
ATOM     13  C   UNL     1      45.699   3.499   7.638  0.00  0.00    +0.000 A 
ATOM     14  C   UNL     1      46.730   3.468   6.701  0.00  0.00    +0.000 A 
ATOM     15  C   UNL     1      47.488   2.313   6.563  0.00  0.00    +0.000 A 
ATOM     16  C   UNL     1      47.183   1.231   7.371  0.00  0.00    +0.000 A 
ATOM     17  N   UNL     1      46.197   1.234   8.297  0.00  0.00    +0.000 NA
ENDBRANCH  11  12
ENDBRANCH   9  11
ENDBRANCH   8   9
ENDBRANCH   5   8
ENDBRANCH   1   2
BRANCH   1  18
ATOM     18  C   UNL     1      48.236   4.706  16.731  0.00  0.00    +0.000 C 
BRANCH  18  19
ATOM     19  C   UNL     1      49.622   4.551  17.321  0.00  0.00    +0.000 A 
ATOM     20  C   UNL     1      50.310   5.574  17.955  0.00  0.00    +0.000 A 
ATOM     21  S   UNL     1      51.833   5.086  18.560  0.00  0.00    +0.000 S 
ATOM     22  C   UNL     1      51.620   3.495  17.989  0.00  0.00    +0.000 A 
ATOM     23  N   UNL     1      52.563   2.536  18.194  0.00  0.00    +0.000 NA
ATOM     24  C   UNL     1      52.258   1.379  17.706  0.00  0.00    +0.000 A 
ATOM     25  N   UNL     1      51.100   1.091  17.026  0.00  0.00    +0.000 N 
ATOM     26  C   UNL     1      50.141   2.040  16.750  0.00  0.00    +0.000 A 
ATOM     27  O   UNL     1      49.158   1.767  16.068  0.00  0.00    +0.000 OA
ATOM     28  C   UNL     1      50.420   3.344  17.323  0.00  0.00    +0.000 A 
ATOM     29  H   UNL     1      50.931   0.172  16.651  0.00  0.00    +0.000 HD
ENDBRANCH  18  19
BRANCH  18  30
ATOM     30  N   UNL     1      47.332   5.034  17.839  0.00  0.00    +0.000 NA
ATOM     31  H   UNL     1      47.016   4.161  18.261  0.00  0.00    +0.000 HD
ATOM     32  H   UNL     1      46.481   5.441  17.436  0.00  0.00    +0.000 HD
ENDBRANCH  18  30
ENDBRANCH   1  18
TORSDOF 8
ENDMDL
MODEL 2
REMARK VINA RESULT:    -7.737      1.090      1.691
REMARK INTER + INTRA:         -11.939
REMARK INTER:                 -11.208
REMARK INTRA:                  -0.731
REMARK UNBOUND:                -0.809
REMARK  Name = 
REMARK  8 active torsions:
REMARK  status: ('A' for Active; 'I' for Inactive)
REMARK    1  A    between atoms: N_1  and  C_2
REMARK    2  A    between atoms: C_2  and  C_3
REMARK    3  A    between atoms: C_2  and  C_19
REMARK    4  A    between atoms: C_3  and  C_4
REMARK    5  A    between atoms: C_7  and  C_8
REMARK    6  A    between atoms: C_8  and  N_9
REMARK    7  A    between atoms: N_9  and  C_10
REMARK    8  A    between atoms: C_10  and  C_11
REMARK                            x       y       z     vdW  Elec       q    Type
REMARK                         _______ _______ _______ _____ _____    ______ ____
ROOT
ATOM      1  C   UNL     1      48.790   6.133  16.141  0.00  0.00    +0.000 C 
ENDROOT
BRANCH   1   2
ATOM      2  C   UNL     1      47.966   6.072  14.877  0.00  0.00    +0.000 A 
ATOM      3  C   UNL     1      47.999   7.136  13.964  0.00  0.00    +0.000 A 
ATOM      4  C   UNL     1      47.256   7.078  12.783  0.00  0.00    +0.000 A 
ATOM      5  C   UNL     1      46.481   5.949  12.482  0.00  0.00    +0.000 A 
ATOM      6  C   UNL     1      46.444   4.893  13.404  0.00  0.00    +0.000 A 
ATOM      7  C   UNL     1      47.175   4.956  14.593  0.00  0.00    +0.000 A 
BRANCH   5   8
ATOM      8  C   UNL     1      45.707   5.859  11.185  0.00  0.00    +0.000 C 
BRANCH   8   9
ATOM      9  N   UNL     1      44.757   4.751  11.233  0.00  0.00    +0.000 NA
ATOM     10  H   UNL     1      44.008   4.998  11.883  0.00  0.00    +0.000 HD
BRANCH   9  11
ATOM     11  C   UNL     1      44.146   4.490   9.925  0.00  0.00    +0.000 C 
BRANCH  11  12
ATOM     12  C   UNL     1      45.081   3.706   9.019  0.00  0.00    +0.000 A 
ATOM     13  C   UNL     1      45.236   2.328   9.183  0.00  0.00    +0.000 A 
ATOM     14  C   UNL     1      46.060   1.631   8.304  0.00  0.00    +0.000 A 
ATOM     15  C   UNL     1      46.718   2.323   7.296  0.00  0.00    +0.000 A 
ATOM     16  C   UNL     1      46.523   3.691   7.209  0.00  0.00    +0.000 A 
ATOM     17  N   UNL     1      45.720   4.395   8.039  0.00  0.00    +0.000 NA
ENDBRANCH  11  12
ENDBRANCH   9  11
ENDBRANCH   8   9
ENDBRANCH   5   8
ENDBRANCH   1   2
BRANCH   1  18
ATOM     18  C   UNL     1      48.787   4.828  16.976  0.00  0.00    +0.000 C 
BRANCH  18  19
ATOM     19  C   UNL     1      50.159   4.533  17.544  0.00  0.00    +0.000 A 
ATOM     20  C   UNL     1      50.936   5.468  18.210  0.00  0.00    +0.000 A 
ATOM     21  S   UNL     1      52.416   4.830  18.780  0.00  0.00    +0.000 S 
ATOM     22  C   UNL     1      52.065   3.287  18.150  0.00  0.00    +0.000 A 
ATOM     23  N   UNL     1      52.924   2.244  18.308  0.00  0.00    +0.000 NA
ATOM     24  C   UNL     1      52.518   1.137  17.780  0.00  0.00    +0.000 A 
ATOM     25  N   UNL     1      51.335   0.975  17.102  0.00  0.00    +0.000 N 
ATOM     26  C   UNL     1      50.458   2.011  16.873  0.00  0.00    +0.000 A 
ATOM     27  O   UNL     1      49.450   1.849  16.191  0.00  0.00    +0.000 OA
ATOM     28  C   UNL     1      50.851   3.263  17.492  0.00  0.00    +0.000 A 
ATOM     29  H   UNL     1      51.086   0.089  16.693  0.00  0.00    +0.000 HD
ENDBRANCH  18  19
BRANCH  18  30
ATOM     30  N   UNL     1      47.846   4.826  18.101  0.00  0.00    +0.000 NA
ATOM     31  H   UNL     1      48.020   5.658  18.664  0.00  0.00    +0.000 HD
ATOM     32  H   UNL     1      48.102   4.047  18.719  0.00  0.00    +0.000 HD
ENDBRANCH  18  30
ENDBRANCH   1  18
TORSDOF 8
ENDMDL
MODEL 3
REMARK VINA RESULT:    -7.662      1.885      2.530
REMARK INTER + INTRA:         -11.830
REMARK INTER:                 -10.719
REMARK INTRA:                  -1.111
REMARK UNBOUND:                -0.809
REMARK  Name = 
REMARK  8 active torsions:
REMARK  status: ('A' for Active; 'I' for Inactive)
REMARK    1  A    between atoms: N_1  and  C_2
REMARK    2  A    between atoms: C_2  and  C_3
REMARK    3  A    between atoms: C_2  and  C_19
REMARK    4  A    between atoms: C_3  and  C_4
REMARK    5  A    between atoms: C_7  and  C_8
REMARK    6  A    between atoms: C_8  and  N_9
REMARK    7  A    between atoms: N_9  and  C_10
REMARK    8  A    between atoms: C_10  and  C_11
REMARK                            x       y       z     vdW  Elec       q    Type
REMARK                         _______ _______ _______ _____ _____    ______ ____
ROOT
ATOM      1  C   UNL     1      48.187   6.887  13.084  0.00  0.00    +0.000 C 
ENDROOT
BRANCH   1   2
ATOM      2  C   UNL     1      46.991   6.129  12.561  0.00  0.00    +0.000 A 
ATOM      3  C   UNL     1      46.483   5.036  13.277  0.00  0.00    +0.000 A 
ATOM      4  C   UNL     1      45.364   4.342  12.810  0.00  0.00    +0.000 A 
ATOM      5  C   UNL     1      44.722   4.737  11.629  0.00  0.00    +0.000 A 
ATOM      6  C   UNL     1      45.241   5.824  10.911  0.00  0.00    +0.000 A 
ATOM      7  C   UNL     1      46.368   6.511  11.369  0.00  0.00    +0.000 A 
BRANCH   5   8
ATOM      8  C   UNL     1      43.483   4.019  11.138  0.00  0.00    +0.000 C 
BRANCH   8   9
ATOM      9  N   UNL     1      43.681   3.535   9.775  0.00  0.00    +0.000 NA
ATOM     10  H   UNL     1      44.183   4.251   9.248  0.00  0.00    +0.000 HD
BRANCH   9  11
ATOM     11  C   UNL     1      44.482   2.305   9.737  0.00  0.00    +0.000 C 
BRANCH  11  12
ATOM     12  C   UNL     1      45.502   2.339   8.610  0.00  0.00    +0.000 A 
ATOM     13  C   UNL     1      45.756   3.526   7.920  0.00  0.00    +0.000 A 
ATOM     14  C   UNL     1      46.733   3.536   6.928  0.00  0.00    +0.000 A 
ATOM     15  C   UNL     1      47.419   2.364   6.639  0.00  0.00    +0.000 A 
ATOM     16  C   UNL     1      47.098   1.225   7.358  0.00  0.00    +0.000 A 
ATOM     17  N   UNL     1      46.164   1.186   8.335  0.00  0.00    +0.000 NA
ENDBRANCH  11  12
ENDBRANCH   9  11
ENDBRANCH   8   9
ENDBRANCH   5   8
ENDBRANCH   1   2
BRANCH   1  18
ATOM     18  C   UNL     1      48.097   7.282  14.579  0.00  0.00    +0.000 C 
BRANCH  18  19
ATOM     19  C   UNL     1      49.418   7.069  15.287  0.00  0.00    +0.000 A 
ATOM     20  C   UNL     1      50.567   7.793  15.010  0.00  0.00    +0.000 A 
ATOM     21  S   UNL     1      51.890   7.362  16.004  0.00  0.00    +0.000 S 
ATOM     22  C   UNL     1      50.969   6.192  16.830  0.00  0.00    +0.000 A 
ATOM     23  N   UNL     1      51.501   5.455  17.842  0.00  0.00    +0.000 NA
ATOM     24  C   UNL     1      50.679   4.612  18.373  0.00  0.00    +0.000 A 
ATOM     25  N   UNL     1      49.374   4.431  17.985  0.00  0.00    +0.000 N 
ATOM     26  C   UNL     1      48.807   5.116  16.934  0.00  0.00    +0.000 A 
ATOM     27  O   UNL     1      47.664   4.870  16.561  0.00  0.00    +0.000 OA
ATOM     28  C   UNL     1      49.680   6.111  16.339  0.00  0.00    +0.000 A 
ATOM     29  H   UNL     1      48.790   3.740  18.427  0.00  0.00    +0.000 HD
ENDBRANCH  18  19
BRANCH  18  30
ATOM     30  N   UNL     1      47.699   8.673  14.821  0.00  0.00    +0.000 NA
ATOM     31  H   UNL     1      47.367   9.067  13.941  0.00  0.00    +0.000 HD
ATOM     32  H   UNL     1      48.549   9.208  15.031  0.00  0.00    +0.000 HD
ENDBRANCH  18  30
ENDBRANCH   1  18
TORSDOF 8
ENDMDL
MODEL 4
REMARK VINA RESULT:    -7.642      4.745      5.403
REMARK INTER + INTRA:         -11.802
REMARK INTER:                 -10.820
REMARK INTRA:                  -0.982
REMARK UNBOUND:                -0.809
REMARK  Name = 
REMARK  8 active torsions:
REMARK  status: ('A' for Active; 'I' for Inactive)
REMARK    1  A    between atoms: N_1  and  C_2
REMARK    2  A    between atoms: C_2  and  C_3
REMARK    3  A    between atoms: C_2  and  C_19
REMARK    4  A    between atoms: C_3  and  C_4
REMARK    5  A    between atoms: C_7  and  C_8
REMARK    6  A    between atoms: C_8  and  N_9
REMARK    7  A    between atoms: N_9  and  C_10
REMARK    8  A    between atoms: C_10  and  C_11
REMARK                            x       y       z     vdW  Elec       q    Type
REMARK                         _______ _______ _______ _____ _____    ______ ____
ROOT
ATOM      1  C   UNL     1      45.881   8.556  12.929  0.00  0.00    +0.000 C 
ENDROOT
BRANCH   1   2
ATOM      2  C   UNL     1      45.382   7.175  12.578  0.00  0.00    +0.000 A 
ATOM      3  C   UNL     1      45.977   6.044  13.155  0.00  0.00    +0.000 A 
ATOM      4  C   UNL     1      45.509   4.764  12.852  0.00  0.00    +0.000 A 
ATOM      5  C   UNL     1      44.426   4.590  11.979  0.00  0.00    +0.000 A 
ATOM      6  C   UNL     1      43.842   5.723  11.396  0.00  0.00    +0.000 A 
ATOM      7  C   UNL     1      44.318   7.003  11.688  0.00  0.00    +0.000 A 
BRANCH   5   8
ATOM      8  C   UNL     1      43.883   3.210  11.678  0.00  0.00    +0.000 C 
BRANCH   8   9
ATOM      9  N   UNL     1      44.756   2.511  10.739  0.00  0.00    +0.000 NA
ATOM     10  H   UNL     1      44.663   1.507  10.899  0.00  0.00    +0.000 HD
BRANCH   9  11
ATOM     11  C   UNL     1      44.389   2.777   9.342  0.00  0.00    +0.000 C 
BRANCH  11  12
ATOM     12  C   UNL     1      45.530   2.448   8.394  0.00  0.00    +0.000 A 
ATOM     13  C   UNL     1      46.090   3.442   7.589  0.00  0.00    +0.000 A 
ATOM     14  C   UNL     1      47.168   3.120   6.768  0.00  0.00    +0.000 A 
ATOM     15  C   UNL     1      47.650   1.817   6.759  0.00  0.00    +0.000 A 
ATOM     16  C   UNL     1      47.030   0.887   7.576  0.00  0.00    +0.000 A 
ATOM     17  N   UNL     1      45.989   1.171   8.392  0.00  0.00    +0.000 NA
ENDBRANCH  11  12
ENDBRANCH   9  11
ENDBRANCH   8   9
ENDBRANCH   5   8
ENDBRANCH   1   2
BRANCH   1  18
ATOM     18  C   UNL     1      47.277   8.587  13.600  0.00  0.00    +0.000 C 
BRANCH  18  19
ATOM     19  C   UNL     1      48.270   9.373  12.771  0.00  0.00    +0.000 A 
ATOM     20  C   UNL     1      48.181  10.738  12.548  0.00  0.00    +0.000 A 
ATOM     21  S   UNL     1      49.473  11.354  11.614  0.00  0.00    +0.000 S 
ATOM     22  C   UNL     1      50.189   9.814  11.475  0.00  0.00    +0.000 A 
ATOM     23  N   UNL     1      51.358   9.633  10.803  0.00  0.00    +0.000 NA
ATOM     24  C   UNL     1      51.777   8.411  10.788  0.00  0.00    +0.000 A 
ATOM     25  N   UNL     1      51.135   7.350  11.377  0.00  0.00    +0.000 N 
ATOM     26  C   UNL     1      49.926   7.475  12.023  0.00  0.00    +0.000 A 
ATOM     27  O   UNL     1      49.339   6.492  12.465  0.00  0.00    +0.000 OA
ATOM     28  C   UNL     1      49.441   8.841  12.107  0.00  0.00    +0.000 A 
ATOM     29  H   UNL     1      51.504   6.415  11.310  0.00  0.00    +0.000 HD
ENDBRANCH  18  19
BRANCH  18  30
ATOM     30  N   UNL     1      47.293   9.162  14.949  0.00  0.00    +0.000 NA
ATOM     31  H   UNL     1      47.123   8.410  15.618  0.00  0.00    +0.000 HD
ATOM     32  H   UNL     1      46.470   9.769  15.039  0.00  0.00    +0.000 HD
ENDBRANCH  18  30
ENDBRANCH   1  18
TORSDOF 8
ENDMDL
MODEL 5
REMARK VINA RESULT:    -7.006      4.904      6.826
REMARK INTER + INTRA:         -10.887
REMARK INTER:                 -10.197
REMARK INTRA:                  -0.690
REMARK UNBOUND:                -0.809
REMARK  Name = 
REMARK  8 active torsions:
REMARK  status: ('A' for Active; 'I' for Inactive)
REMARK    1  A    between atoms: N_1  and  C_2
REMARK    2  A    between atoms: C_2  and  C_3
REMARK    3  A    between atoms: C_2  and  C_19
REMARK    4  A    between atoms: C_3  and  C_4
REMARK    5  A    between atoms: C_7  and  C_8
REMARK    6  A    between atoms: C_8  and  N_9
REMARK    7  A    between atoms: N_9  and  C_10
REMARK    8  A    between atoms: C_10  and  C_11
REMARK                            x       y       z     vdW  Elec       q    Type
REMARK                         _______ _______ _______ _____ _____    ______ ____
ROOT
ATOM      1  C   UNL     1      48.357   7.368  13.198  0.00  0.00    +0.000 C 
ENDROOT
BRANCH   1   2
ATOM      2  C   UNL     1      47.211   6.532  12.681  0.00  0.00    +0.000 A 
ATOM      3  C   UNL     1      46.458   5.746  13.565  0.00  0.00    +0.000 A 
ATOM      4  C   UNL     1      45.384   4.986  13.098  0.00  0.00    +0.000 A 
ATOM      5  C   UNL     1      45.030   5.010  11.742  0.00  0.00    +0.000 A 
ATOM      6  C   UNL     1      45.793   5.789  10.860  0.00  0.00    +0.000 A 
ATOM      7  C   UNL     1      46.877   6.539  11.324  0.00  0.00    +0.000 A 
BRANCH   5   8
ATOM      8  C   UNL     1      43.840   4.225  11.233  0.00  0.00    +0.000 C 
BRANCH   8   9
ATOM      9  N   UNL     1      44.000   3.918   9.815  0.00  0.00    +0.000 NA
ATOM     10  H   UNL     1      44.725   4.528   9.433  0.00  0.00    +0.000 HD
BRANCH   9  11
ATOM     11  C   UNL     1      44.422   2.529   9.594  0.00  0.00    +0.000 C 
BRANCH  11  12
ATOM     12  C   UNL     1      45.474   2.432   8.501  0.00  0.00    +0.000 A 
ATOM     13  C   UNL     1      45.764   3.537   7.699  0.00  0.00    +0.000 A 
ATOM     14  C   UNL     1      46.769   3.431   6.741  0.00  0.00    +0.000 A 
ATOM     15  C   UNL     1      47.447   2.228   6.597  0.00  0.00    +0.000 A 
ATOM     16  C   UNL     1      47.089   1.175   7.422  0.00  0.00    +0.000 A 
ATOM     17  N   UNL     1      46.127   1.250   8.369  0.00  0.00    +0.000 NA
ENDBRANCH  11  12
ENDBRANCH   9  11
ENDBRANCH   8   9
ENDBRANCH   5   8
ENDBRANCH   1   2
BRANCH   1  18
ATOM     18  C   UNL     1      47.946   8.758  13.744  0.00  0.00    +0.000 C 
BRANCH  18  19
ATOM     19  C   UNL     1      46.929   9.426  12.844  0.00  0.00    +0.000 A 
ATOM     20  C   UNL     1      45.561   9.231  12.947  0.00  0.00    +0.000 A 
ATOM     21  S   UNL     1      44.662  10.157  11.826  0.00  0.00    +0.000 S 
ATOM     22  C   UNL     1      46.075  10.843  11.165  0.00  0.00    +0.000 A 
ATOM     23  N   UNL     1      46.016  11.755  10.157  0.00  0.00    +0.000 NA
ATOM     24  C   UNL     1      47.169  12.187   9.766  0.00  0.00    +0.000 A 
ATOM     25  N   UNL     1      48.377  11.789  10.281  0.00  0.00    +0.000 N 
ATOM     26  C   UNL     1      48.489  10.832  11.265  0.00  0.00    +0.000 A 
ATOM     27  O   UNL     1      49.588  10.439  11.644  0.00  0.00    +0.000 OA
ATOM     28  C   UNL     1      47.215  10.354  11.770  0.00  0.00    +0.000 A 
ATOM     29  H   UNL     1      49.244  12.148   9.916  0.00  0.00    +0.000 HD
ENDBRANCH  18  19
BRANCH  18  30
ATOM     30  N   UNL     1      47.377   8.740  15.096  0.00  0.00    +0.000 NA
ATOM     31  H   UNL     1      47.661   9.596  15.572  0.00  0.00    +0.000 HD
ATOM     32  H   UNL     1      47.847   7.993  15.621  0.00  0.00    +0.000 HD
ENDBRANCH  18  30
ENDBRANCH   1  18
TORSDOF 8
ENDMDL
MODEL 6
REMARK VINA RESULT:    -6.945      3.221      8.695
REMARK INTER + INTRA:         -10.799
REMARK INTER:                  -9.763
REMARK INTRA:                  -1.036
REMARK UNBOUND:                -0.809
REMARK  Name = 
REMARK  8 active torsions:
REMARK  status: ('A' for Active; 'I' for Inactive)
REMARK    1  A    between atoms: N_1  and  C_2
REMARK    2  A    between atoms: C_2  and  C_3
REMARK    3  A    between atoms: C_2  and  C_19
REMARK    4  A    between atoms: C_3  and  C_4
REMARK    5  A    between atoms: C_7  and  C_8
REMARK    6  A    between atoms: C_8  and  N_9
REMARK    7  A    between atoms: N_9  and  C_10
REMARK    8  A    between atoms: C_10  and  C_11
REMARK                            x       y       z     vdW  Elec       q    Type
REMARK                         _______ _______ _______ _____ _____    ______ ____
ROOT
ATOM      1  C   UNL     1      46.933   6.854  11.421  0.00  0.00    +0.000 C 
ENDROOT
BRANCH   1   2
ATOM      2  C   UNL     1      47.521   7.049  12.798  0.00  0.00    +0.000 A 
ATOM      3  C   UNL     1      47.934   8.323  13.213  0.00  0.00    +0.000 A 
ATOM      4  C   UNL     1      48.459   8.515  14.492  0.00  0.00    +0.000 A 
ATOM      5  C   UNL     1      48.566   7.442  15.388  0.00  0.00    +0.000 A 
ATOM      6  C   UNL     1      48.161   6.168  14.964  0.00  0.00    +0.000 A 
ATOM      7  C   UNL     1      47.648   5.972  13.679  0.00  0.00    +0.000 A 
BRANCH   5   8
ATOM      8  C   UNL     1      49.093   7.648  16.791  0.00  0.00    +0.000 C 
BRANCH   8   9
ATOM      9  N   UNL     1      48.173   7.079  17.771  0.00  0.00    +0.000 NA
ATOM     10  H   UNL     1      47.461   6.543  17.271  0.00  0.00    +0.000 HD
BRANCH   9  11
ATOM     11  C   UNL     1      48.850   6.165  18.700  0.00  0.00    +0.000 C 
BRANCH  11  12
ATOM     12  C   UNL     1      48.958   4.763  18.124  0.00  0.00    +0.000 A 
ATOM     13  C   UNL     1      47.809   4.058  17.758  0.00  0.00    +0.000 A 
ATOM     14  C   UNL     1      47.944   2.796  17.186  0.00  0.00    +0.000 A 
ATOM     15  C   UNL     1      49.214   2.264  17.005  0.00  0.00    +0.000 A 
ATOM     16  C   UNL     1      50.302   3.020  17.408  0.00  0.00    +0.000 A 
ATOM     17  N   UNL     1      50.205   4.253  17.955  0.00  0.00    +0.000 NA
ENDBRANCH  11  12
ENDBRANCH   9  11
ENDBRANCH   8   9
ENDBRANCH   5   8
ENDBRANCH   1   2
BRANCH   1  18
ATOM     18  C   UNL     1      45.385   6.867  11.373  0.00  0.00    +0.000 C 
BRANCH  18  19
ATOM     19  C   UNL     1      44.817   5.466  11.460  0.00  0.00    +0.000 A 
ATOM     20  C   UNL     1      44.178   4.961  12.582  0.00  0.00    +0.000 A 
ATOM     21  S   UNL     1      43.602   3.366  12.366  0.00  0.00    +0.000 S 
ATOM     22  C   UNL     1      44.193   3.301  10.770  0.00  0.00    +0.000 A 
ATOM     23  N   UNL     1      44.016   2.199   9.992  0.00  0.00    +0.000 NA
ATOM     24  C   UNL     1      44.516   2.301   8.806  0.00  0.00    +0.000 A 
ATOM     25  N   UNL     1      45.183   3.400   8.324  0.00  0.00    +0.000 N 
ATOM     26  C   UNL     1      45.432   4.518   9.089  0.00  0.00    +0.000 A 
ATOM     27  O   UNL     1      46.104   5.447   8.653  0.00  0.00    +0.000 OA
ATOM     28  C   UNL     1      44.844   4.466  10.415  0.00  0.00    +0.000 A 
ATOM     29  H   UNL     1      45.570   3.409   7.394  0.00  0.00    +0.000 HD
ENDBRANCH  18  19
BRANCH  18  30
ATOM     30  N   UNL     1      44.747   7.656  12.433  0.00  0.00    +0.000 NA
ATOM     31  H   UNL     1      43.931   7.143  12.765  0.00  0.00    +0.000 HD
ATOM     32  H   UNL     1      44.354   8.499  12.000  0.00  0.00    +0.000 HD
ENDBRANCH  18  30
ENDBRANCH   1  18
TORSDOF 8
ENDMDL
MODEL 7
REMARK VINA RESULT:    -6.936      3.688      8.850
REMARK INTER + INTRA:         -10.786
REMARK INTER:                  -9.437
REMARK INTRA:                  -1.349
REMARK UNBOUND:                -0.809
REMARK  Name = 
REMARK  8 active torsions:
REMARK  status: ('A' for Active; 'I' for Inactive)
REMARK    1  A    between atoms: N_1  and  C_2
REMARK    2  A    between atoms: C_2  and  C_3
REMARK    3  A    between atoms: C_2  and  C_19
REMARK    4  A    between atoms: C_3  and  C_4
REMARK    5  A    between atoms: C_7  and  C_8
REMARK    6  A    between atoms: C_8  and  N_9
REMARK    7  A    between atoms: N_9  and  C_10
REMARK    8  A    between atoms: C_10  and  C_11
REMARK                            x       y       z     vdW  Elec       q    Type
REMARK                         _______ _______ _______ _____ _____    ______ ____
ROOT
ATOM      1  C   UNL     1      45.112   7.167  12.834  0.00  0.00    +0.000 C 
ENDROOT
BRANCH   1   2
ATOM      2  C   UNL     1      46.563   7.583  12.891  0.00  0.00    +0.000 A 
ATOM      3  C   UNL     1      46.942   8.712  13.631  0.00  0.00    +0.000 A 
ATOM      4  C   UNL     1      48.284   9.091  13.706  0.00  0.00    +0.000 A 
ATOM      5  C   UNL     1      49.275   8.339  13.059  0.00  0.00    +0.000 A 
ATOM      6  C   UNL     1      48.888   7.218  12.312  0.00  0.00    +0.000 A 
ATOM      7  C   UNL     1      47.544   6.845  12.224  0.00  0.00    +0.000 A 
BRANCH   5   8
ATOM      8  C   UNL     1      50.736   8.717  13.170  0.00  0.00    +0.000 C 
BRANCH   8   9
ATOM      9  N   UNL     1      51.471   7.696  13.912  0.00  0.00    +0.000 NA
ATOM     10  H   UNL     1      52.444   7.710  13.600  0.00  0.00    +0.000 HD
BRANCH   9  11
ATOM     11  C   UNL     1      51.461   7.949  15.358  0.00  0.00    +0.000 C 
BRANCH  11  12
ATOM     12  C   UNL     1      50.819   6.803  16.120  0.00  0.00    +0.000 A 
ATOM     13  C   UNL     1      49.434   6.623  16.095  0.00  0.00    +0.000 A 
ATOM     14  C   UNL     1      48.882   5.532  16.762  0.00  0.00    +0.000 A 
ATOM     15  C   UNL     1      49.717   4.660  17.447  0.00  0.00    +0.000 A 
ATOM     16  C   UNL     1      51.078   4.916  17.436  0.00  0.00    +0.000 A 
ATOM     17  N   UNL     1      51.646   5.959  16.788  0.00  0.00    +0.000 NA
ENDBRANCH  11  12
ENDBRANCH   9  11
ENDBRANCH   8   9
ENDBRANCH   5   8
ENDBRANCH   1   2
BRANCH   1  18
ATOM     18  C   UNL     1      44.614   6.759  11.425  0.00  0.00    +0.000 C 
BRANCH  18  19
ATOM     19  C   UNL     1      44.314   5.277  11.353  0.00  0.00    +0.000 A 
ATOM     20  C   UNL     1      43.592   4.588  12.314  0.00  0.00    +0.000 A 
ATOM     21  S   UNL     1      43.374   2.935  11.937  0.00  0.00    +0.000 S 
ATOM     22  C   UNL     1      44.243   3.089  10.480  0.00  0.00    +0.000 A 
ATOM     23  N   UNL     1      44.419   2.030   9.643  0.00  0.00    +0.000 NA
ATOM     24  C   UNL     1      45.095   2.304   8.577  0.00  0.00    +0.000 A 
ATOM     25  N   UNL     1      45.619   3.535   8.270  0.00  0.00    +0.000 N 
ATOM     26  C   UNL     1      45.511   4.622   9.108  0.00  0.00    +0.000 A 
ATOM     27  O   UNL     1      46.062   5.685   8.840  0.00  0.00    +0.000 OA
ATOM     28  C   UNL     1      44.716   4.373  10.296  0.00  0.00    +0.000 A 
ATOM     29  H   UNL     1      46.157   3.678   7.430  0.00  0.00    +0.000 HD
ENDBRANCH  18  19
BRANCH  18  30
ATOM     30  N   UNL     1      43.408   7.463  10.976  0.00  0.00    +0.000 NA
ATOM     31  H   UNL     1      42.600   7.028  11.422  0.00  0.00    +0.000 HD
ATOM     32  H   UNL     1      43.283   7.261   9.977  0.00  0.00    +0.000 HD
ENDBRANCH  18  30
ENDBRANCH   1  18
TORSDOF 8
ENDMDL
MODEL 8
REMARK VINA RESULT:    -6.762      5.456      8.225
REMARK INTER + INTRA:         -10.536
REMARK INTER:                  -9.548
REMARK INTRA:                  -0.988
REMARK UNBOUND:                -0.809
REMARK  Name = 
REMARK  8 active torsions:
REMARK  status: ('A' for Active; 'I' for Inactive)
REMARK    1  A    between atoms: N_1  and  C_2
REMARK    2  A    between atoms: C_2  and  C_3
REMARK    3  A    between atoms: C_2  and  C_19
REMARK    4  A    between atoms: C_3  and  C_4
REMARK    5  A    between atoms: C_7  and  C_8
REMARK    6  A    between atoms: C_8  and  N_9
REMARK    7  A    between atoms: N_9  and  C_10
REMARK    8  A    between atoms: C_10  and  C_11
REMARK                            x       y       z     vdW  Elec       q    Type
REMARK                         _______ _______ _______ _____ _____    ______ ____
ROOT
ATOM      1  C   UNL     1      45.002   7.161  12.502  0.00  0.00    +0.000 C 
ENDROOT
BRANCH   1   2
ATOM      2  C   UNL     1      46.438   7.567  12.268  0.00  0.00    +0.000 A 
ATOM      3  C   UNL     1      46.793   8.923  12.260  0.00  0.00    +0.000 A 
ATOM      4  C   UNL     1      48.121   9.305  12.065  0.00  0.00    +0.000 A 
ATOM      5  C   UNL     1      49.124   8.341  11.893  0.00  0.00    +0.000 A 
ATOM      6  C   UNL     1      48.761   6.986  11.892  0.00  0.00    +0.000 A 
ATOM      7  C   UNL     1      47.430   6.602  12.073  0.00  0.00    +0.000 A 
BRANCH   5   8
ATOM      8  C   UNL     1      50.572   8.744  11.725  0.00  0.00    +0.000 C 
BRANCH   8   9
ATOM      9  N   UNL     1      51.379   7.595  11.324  0.00  0.00    +0.000 NA
ATOM     10  H   UNL     1      50.845   7.048  10.647  0.00  0.00    +0.000 HD
BRANCH   9  11
ATOM     11  C   UNL     1      52.635   7.999  10.681  0.00  0.00    +0.000 C 
BRANCH  11  12
ATOM     12  C   UNL     1      52.972   7.103   9.501  0.00  0.00    +0.000 A 
ATOM     13  C   UNL     1      53.728   5.944   9.686  0.00  0.00    +0.000 A 
ATOM     14  C   UNL     1      53.975   5.117   8.593  0.00  0.00    +0.000 A 
ATOM     15  C   UNL     1      53.479   5.472   7.346  0.00  0.00    +0.000 A 
ATOM     16  C   UNL     1      52.751   6.645   7.243  0.00  0.00    +0.000 A 
ATOM     17  N   UNL     1      52.483   7.463   8.287  0.00  0.00    +0.000 NA
ENDBRANCH  11  12
ENDBRANCH   9  11
ENDBRANCH   8   9
ENDBRANCH   5   8
ENDBRANCH   1   2
BRANCH   1  18
ATOM     18  C   UNL     1      44.241   6.720  11.227  0.00  0.00    +0.000 C 
BRANCH  18  19
ATOM     19  C   UNL     1      44.092   5.215  11.165  0.00  0.00    +0.000 A 
ATOM     20  C   UNL     1      43.356   4.474  12.076  0.00  0.00    +0.000 A 
ATOM     21  S   UNL     1      43.333   2.802  11.720  0.00  0.00    +0.000 S 
ATOM     22  C   UNL     1      44.308   3.017  10.341  0.00  0.00    +0.000 A 
ATOM     23  N   UNL     1      44.658   1.969   9.548  0.00  0.00    +0.000 NA
ATOM     24  C   UNL     1      45.396   2.290   8.538  0.00  0.00    +0.000 A 
ATOM     25  N   UNL     1      45.824   3.562   8.248  0.00  0.00    +0.000 N 
ATOM     26  C   UNL     1      45.539   4.646   9.047  0.00  0.00    +0.000 A 
ATOM     27  O   UNL     1      46.008   5.754   8.804  0.00  0.00    +0.000 OA
ATOM     28  C   UNL     1      44.670   4.339  10.168  0.00  0.00    +0.000 A 
ATOM     29  H   UNL     1      46.418   3.744   7.455  0.00  0.00    +0.000 HD
ENDBRANCH  18  19
BRANCH  18  30
ATOM     30  N   UNL     1      42.896   7.291  11.091  0.00  0.00    +0.000 NA
ATOM     31  H   UNL     1      42.762   7.562  10.117  0.00  0.00    +0.000 HD
ATOM     32  H   UNL     1      42.882   8.180  11.603  0.00  0.00    +0.000 HD
ENDBRANCH  18  30
ENDBRANCH   1  18
TORSDOF 8
ENDMDL
MODEL 9
REMARK VINA RESULT:    -6.503      3.035      4.000
REMARK INTER + INTRA:         -10.164
REMARK INTER:                  -9.148
REMARK INTRA:                  -1.016
REMARK UNBOUND:                -0.809
REMARK  Name = 
REMARK  8 active torsions:
REMARK  status: ('A' for Active; 'I' for Inactive)
REMARK    1  A    between atoms: N_1  and  C_2
REMARK    2  A    between atoms: C_2  and  C_3
REMARK    3  A    between atoms: C_2  and  C_19
REMARK    4  A    between atoms: C_3  and  C_4
REMARK    5  A    between atoms: C_7  and  C_8
REMARK    6  A    between atoms: C_8  and  N_9
REMARK    7  A    between atoms: N_9  and  C_10
REMARK    8  A    between atoms: C_10  and  C_11
REMARK                            x       y       z     vdW  Elec       q    Type
REMARK                         _______ _______ _______ _____ _____    ______ ____
ROOT
ATOM      1  C   UNL     1      49.271   7.252  14.732  0.00  0.00    +0.000 C 
ENDROOT
BRANCH   1   2
ATOM      2  C   UNL     1      47.996   7.098  13.939  0.00  0.00    +0.000 A 
ATOM      3  C   UNL     1      47.580   5.829  13.514  0.00  0.00    +0.000 A 
ATOM      4  C   UNL     1      46.391   5.676  12.798  0.00  0.00    +0.000 A 
ATOM      5  C   UNL     1      45.585   6.786  12.508  0.00  0.00    +0.000 A 
ATOM      6  C   UNL     1      46.011   8.054  12.927  0.00  0.00    +0.000 A 
ATOM      7  C   UNL     1      47.208   8.210  13.631  0.00  0.00    +0.000 A 
BRANCH   5   8
ATOM      8  C   UNL     1      44.273   6.625  11.771  0.00  0.00    +0.000 C 
BRANCH   8   9
ATOM      9  N   UNL     1      44.496   6.026  10.458  0.00  0.00    +0.000 NA
ATOM     10  H   UNL     1      45.503   5.975  10.294  0.00  0.00    +0.000 HD
BRANCH   9  11
ATOM     11  C   UNL     1      43.959   4.663  10.374  0.00  0.00    +0.000 C 
BRANCH  11  12
ATOM     12  C   UNL     1      44.769   3.801   9.420  0.00  0.00    +0.000 A 
ATOM     13  C   UNL     1      45.572   4.392   8.442  0.00  0.00    +0.000 A 
ATOM     14  C   UNL     1      46.342   3.576   7.616  0.00  0.00    +0.000 A 
ATOM     15  C   UNL     1      46.283   2.198   7.776  0.00  0.00    +0.000 A 
ATOM     16  C   UNL     1      45.451   1.690   8.760  0.00  0.00    +0.000 A 
ATOM     17  N   UNL     1      44.700   2.456   9.584  0.00  0.00    +0.000 NA
ENDBRANCH  11  12
ENDBRANCH   9  11
ENDBRANCH   8   9
ENDBRANCH   5   8
ENDBRANCH   1   2
BRANCH   1  18
ATOM     18  C   UNL     1      49.081   7.840  16.153  0.00  0.00    +0.000 C 
BRANCH  18  19
ATOM     19  C   UNL     1      48.820   6.750  17.171  0.00  0.00    +0.000 A 
ATOM     20  C   UNL     1      49.074   5.407  16.945  0.00  0.00    +0.000 A 
ATOM     21  S   UNL     1      48.724   4.420  18.297  0.00  0.00    +0.000 S 
ATOM     22  C   UNL     1      48.219   5.758  19.222  0.00  0.00    +0.000 A 
ATOM     23  N   UNL     1      47.803   5.613  20.510  0.00  0.00    +0.000 NA
ATOM     24  C   UNL     1      47.456   6.719  21.082  0.00  0.00    +0.000 A 
ATOM     25  N   UNL     1      47.479   7.956  20.487  0.00  0.00    +0.000 N 
ATOM     26  C   UNL     1      47.844   8.145  19.172  0.00  0.00    +0.000 A 
ATOM     27  O   UNL     1      47.774   9.252  18.648  0.00  0.00    +0.000 OA
ATOM     28  C   UNL     1      48.289   6.935  18.505  0.00  0.00    +0.000 A 
ATOM     29  H   UNL     1      47.174   8.778  20.981  0.00  0.00    +0.000 HD
ENDBRANCH  18  19
BRANCH  18  30
ATOM     30  N   UNL     1      50.217   8.626  16.646  0.00  0.00    +0.000 NA
ATOM     31  H   UNL     1      50.135   9.572  16.274  0.00  0.00    +0.000 HD
ATOM     32  H   UNL     1      51.066   8.256  16.204  0.00  0.00    +0.000 HD
ENDBRANCH  18  30
ENDBRANCH   1  18
TORSDOF 8
ENDMDL
