MODEL 1
REMARK VINA RESULT:    -8.006      0.000      0.000
REMARK INTER + INTRA:         -13.247
REMARK INTER:                 -12.219
REMARK INTRA:                  -1.028
REMARK UNBOUND:                -1.028
REMARK  Name = 
REMARK  9 active torsions:
REMARK  status: ('A' for Active; 'I' for Inactive)
REMARK    1  A    between atoms: C_2  and  C_3
REMARK    2  A    between atoms: C_3  and  C_4
REMARK    3  A    between atoms: C_3  and  N_11
REMARK    4  A    between atoms: C_4  and  C_5
REMARK    5  A    between atoms: N_11  and  C_12
REMARK    6  A    between atoms: C_12  and  C_13
REMARK    7  A    between atoms: C_16  and  C_17
REMARK    8  A    between atoms: C_17  and  N_18
REMARK    9  A    between atoms: C_19  and  C_21
REMARK                            x       y       z     vdW  Elec       q    Type
REMARK                         _______ _______ _______ _____ _____    ______ ____
ROOT
ATOM      1  C   UNL     1      44.975   6.028  12.120  0.00  0.00    +0.000 A 
ATOM      2  C   UNL     1      45.792   7.060  11.634  0.00  0.00    +0.000 A 
ATOM      3  C   UNL     1      47.014   7.339  12.243  0.00  0.00    +0.000 A 
ATOM      4  C   UNL     1      47.440   6.595  13.350  0.00  0.00    +0.000 A 
ATOM      5  C   UNL     1      46.618   5.577  13.845  0.00  0.00    +0.000 A 
ATOM      6  C   UNL     1      45.401   5.288  13.228  0.00  0.00    +0.000 A 
ENDROOT
BRANCH   1   7
ATOM      7  C   UNL     1      43.641   5.741  11.482  0.00  0.00    +0.000 C 
BRANCH   7   8
ATOM      8  N   UNL     1      43.791   5.344  10.085  0.00  0.00    +0.000 NA
ATOM      9  H   UNL     1      42.870   5.304   9.647  0.00  0.00    +0.000 HD
BRANCH   8  10
ATOM     10  C   UNL     1      44.441   4.033   9.931  0.00  0.00    +0.000 C 
BRANCH  10  12
ATOM     11  N   UNL     1      43.140   2.107  11.458  0.00  0.00    +0.000 NA
ATOM     12  C   UNL     1      43.729   2.980  10.765  0.00  0.00    +0.000 C 
ENDBRANCH  10  12
BRANCH  10  13
ATOM     13  C   UNL     1      44.419   3.548   8.448  0.00  0.00    +0.000 C 
BRANCH  13  14
ATOM     14  C   UNL     1      45.663   2.839   7.957  0.00  0.00    +0.000 A 
ATOM     15  C   UNL     1      45.853   1.478   8.225  0.00  0.00    +0.000 A 
ATOM     16  C   UNL     1      46.988   0.853   7.736  0.00  0.00    +0.000 A 
ATOM     17  N   UNL     1      47.930   1.480   7.000  0.00  0.00    +0.000 NA
ATOM     18  C   UNL     1      47.729   2.789   6.747  0.00  0.00    +0.000 A 
ATOM     19  C   UNL     1      46.629   3.506   7.200  0.00  0.00    +0.000 A 
ENDBRANCH  13  14
ENDBRANCH  10  13
ENDBRANCH   8  10
ENDBRANCH   7   8
ENDBRANCH   1   7
BRANCH   4  20
ATOM     20  C   UNL     1      48.728   6.924  14.050  0.00  0.00    +0.000 C 
BRANCH  20  21
ATOM     21  N   UNL     1      48.509   7.081  15.465  0.00  0.00    +0.000 N 
ATOM     22  C   UNL     1      49.418   6.612  16.375  0.00  0.00    +0.000 C 
ATOM     23  O   UNL     1      50.468   6.078  16.027  0.00  0.00    +0.000 OA
ATOM     24  H   UNL     1      47.562   7.291  15.768  0.00  0.00    +0.000 HD
BRANCH  22  25
ATOM     25  C   UNL     1      49.104   6.833  17.790  0.00  0.00    +0.000 A 
ATOM     26  C   UNL     1      48.994   8.131  18.271  0.00  0.00    +0.000 A 
ATOM     27  S   UNL     1      48.607   8.215  19.929  0.00  0.00    +0.000 S 
ATOM     28  C   UNL     1      48.613   6.521  20.071  0.00  0.00    +0.000 A 
ATOM     29  N   UNL     1      48.382   5.919  21.272  0.00  0.00    +0.000 NA
ATOM     30  C   UNL     1      48.442   4.630  21.242  0.00  0.00    +0.000 A 
ATOM     31  N   UNL     1      48.699   3.885  20.121  0.00  0.00    +0.000 N 
ATOM     32  C   UNL     1      48.903   4.446  18.881  0.00  0.00    +0.000 A 
ATOM     33  O   UNL     1      49.069   3.750  17.888  0.00  0.00    +0.000 OA
ATOM     34  C   UNL     1      48.875   5.897  18.865  0.00  0.00    +0.000 A 
ATOM     35  H   UNL     1      48.711   2.878  20.161  0.00  0.00    +0.000 HD
ENDBRANCH  22  25
ENDBRANCH  20  21
ENDBRANCH   4  20
TORSDOF 9
ENDMDL
MODEL 2
REMARK VINA RESULT:    -7.826      1.371      2.116
REMARK INTER + INTRA:         -12.972
REMARK INTER:                 -11.979
REMARK INTRA:                  -0.993
REMARK UNBOUND:                -1.028
REMARK  Name = 
REMARK  9 active torsions:
REMARK  status: ('A' for Active; 'I' for Inactive)
REMARK    1  A    between atoms: C_2  and  C_3
REMARK    2  A    between atoms: C_3  and  C_4
REMARK    3  A    between atoms: C_3  and  N_11
REMARK    4  A    between atoms: C_4  and  C_5
REMARK    5  A    between atoms: N_11  and  C_12
REMARK    6  A    between atoms: C_12  and  C_13
REMARK    7  A    between atoms: C_16  and  C_17
REMARK    8  A    between atoms: C_17  and  N_18
REMARK    9  A    between atoms: C_19  and  C_21
REMARK                            x       y       z     vdW  Elec       q    Type
REMARK                         _______ _______ _______ _____ _____    ______ ____
ROOT
ATOM      1  C   UNL     1      45.410   6.096  12.510  0.00  0.00    +0.000 A 
ATOM      2  C   UNL     1      45.978   7.379  12.501  0.00  0.00    +0.000 A 
ATOM      3  C   UNL     1      47.125   7.647  13.246  0.00  0.00    +0.000 A 
ATOM      4  C   UNL     1      47.721   6.641  14.015  0.00  0.00    +0.000 A 
ATOM      5  C   UNL     1      47.145   5.367  14.037  0.00  0.00    +0.000 A 
ATOM      6  C   UNL     1      46.005   5.093  13.282  0.00  0.00    +0.000 A 
ENDROOT
BRANCH   1   7
ATOM      7  C   UNL     1      44.154   5.808  11.729  0.00  0.00    +0.000 C 
BRANCH   7   8
ATOM      8  N   UNL     1      44.448   5.543  10.324  0.00  0.00    +0.000 NA
ATOM      9  H   UNL     1      43.638   5.796   9.758  0.00  0.00    +0.000 HD
BRANCH   8  10
ATOM     10  C   UNL     1      44.776   4.132  10.067  0.00  0.00    +0.000 C 
BRANCH  10  12
ATOM     11  N   UNL     1      43.051   2.453  11.460  0.00  0.00    +0.000 NA
ATOM     12  C   UNL     1      43.834   3.214  10.828  0.00  0.00    +0.000 C 
ENDBRANCH  10  12
BRANCH  10  13
ATOM     13  C   UNL     1      44.653   3.776   8.552  0.00  0.00    +0.000 C 
BRANCH  13  14
ATOM     14  C   UNL     1      45.764   2.929   7.970  0.00  0.00    +0.000 A 
ATOM     15  C   UNL     1      46.742   3.509   7.154  0.00  0.00    +0.000 A 
ATOM     16  C   UNL     1      47.761   2.711   6.662  0.00  0.00    +0.000 A 
ATOM     17  N   UNL     1      47.878   1.394   6.931  0.00  0.00    +0.000 NA
ATOM     18  C   UNL     1      46.930   0.852   7.724  0.00  0.00    +0.000 A 
ATOM     19  C   UNL     1      45.866   1.565   8.257  0.00  0.00    +0.000 A 
ENDBRANCH  13  14
ENDBRANCH  10  13
ENDBRANCH   8  10
ENDBRANCH   7   8
ENDBRANCH   1   7
BRANCH   4  20
ATOM     20  C   UNL     1      48.924   6.934  14.866  0.00  0.00    +0.000 C 
BRANCH  20  21
ATOM     21  N   UNL     1      48.612   6.754  16.262  0.00  0.00    +0.000 N 
ATOM     22  C   UNL     1      49.407   5.985  17.068  0.00  0.00    +0.000 C 
ATOM     23  O   UNL     1      50.433   5.452  16.651  0.00  0.00    +0.000 OA
ATOM     24  H   UNL     1      47.666   6.976  16.558  0.00  0.00    +0.000 HD
BRANCH  22  25
ATOM     25  C   UNL     1      49.006   5.878  18.474  0.00  0.00    +0.000 A 
ATOM     26  C   UNL     1      49.170   4.671  19.142  0.00  0.00    +0.000 A 
ATOM     27  S   UNL     1      48.673   4.718  20.771  0.00  0.00    +0.000 S 
ATOM     28  C   UNL     1      48.182   6.340  20.631  0.00  0.00    +0.000 A 
ATOM     29  N   UNL     1      47.620   6.993  21.685  0.00  0.00    +0.000 NA
ATOM     30  C   UNL     1      47.270   8.211  21.433  0.00  0.00    +0.000 A 
ATOM     31  N   UNL     1      47.443   8.839  20.228  0.00  0.00    +0.000 N 
ATOM     32  C   UNL     1      48.038   8.232  19.146  0.00  0.00    +0.000 A 
ATOM     33  O   UNL     1      48.232   8.841  18.102  0.00  0.00    +0.000 OA
ATOM     34  C   UNL     1      48.423   6.850  19.368  0.00  0.00    +0.000 A 
ATOM     35  H   UNL     1      47.167   9.801  20.102  0.00  0.00    +0.000 HD
ENDBRANCH  22  25
ENDBRANCH  20  21
ENDBRANCH   4  20
TORSDOF 9
ENDMDL
MODEL 3
REMARK VINA RESULT:    -7.696      1.287      1.648
REMARK INTER + INTRA:         -12.773
REMARK INTER:                 -11.778
REMARK INTRA:                  -0.995
REMARK UNBOUND:                -1.028
REMARK  Name = 
REMARK  9 active torsions:
REMARK  status: ('A' for Active; 'I' for Inactive)
REMARK    1  A    between atoms: C_2  and  C_3
REMARK    2  A    between atoms: C_3  and  C_4
REMARK    3  A    between atoms: C_3  and  N_11
REMARK    4  A    between atoms: C_4  and  C_5
REMARK    5  A    between atoms: N_11  and  C_12
REMARK    6  A    between atoms: C_12  and  C_13
REMARK    7  A    between atoms: C_16  and  C_17
REMARK    8  A    between atoms: C_17  and  N_18
REMARK    9  A    between atoms: C_19  and  C_21
REMARK                            x       y       z     vdW  Elec       q    Type
REMARK                         _______ _______ _______ _____ _____    ______ ____
ROOT
ATOM      1  C   UNL     1      45.035   6.628  12.230  0.00  0.00    +0.000 A 
ATOM      2  C   UNL     1      45.028   8.030  12.174  0.00  0.00    +0.000 A 
ATOM      3  C   UNL     1      46.024   8.766  12.813  0.00  0.00    +0.000 A 
ATOM      4  C   UNL     1      47.040   8.117  13.522  0.00  0.00    +0.000 A 
ATOM      5  C   UNL     1      47.038   6.719  13.592  0.00  0.00    +0.000 A 
ATOM      6  C   UNL     1      46.050   5.980  12.943  0.00  0.00    +0.000 A 
ENDROOT
BRANCH   1   7
ATOM      7  C   UNL     1      43.946   5.828  11.565  0.00  0.00    +0.000 C 
BRANCH   7   8
ATOM      8  N   UNL     1      44.288   5.506  10.183  0.00  0.00    +0.000 NA
ATOM      9  H   UNL     1      43.481   5.689   9.586  0.00  0.00    +0.000 HD
BRANCH   8  10
ATOM     10  C   UNL     1      44.691   4.102  10.008  0.00  0.00    +0.000 C 
BRANCH  10  12
ATOM     11  N   UNL     1      43.091   2.422  11.542  0.00  0.00    +0.000 NA
ATOM     12  C   UNL     1      43.816   3.183  10.846  0.00  0.00    +0.000 C 
ENDBRANCH  10  12
BRANCH  10  13
ATOM     13  C   UNL     1      44.560   3.644   8.522  0.00  0.00    +0.000 C 
BRANCH  13  14
ATOM     14  C   UNL     1      45.716   2.842   7.964  0.00  0.00    +0.000 A 
ATOM     15  C   UNL     1      46.712   3.469   7.207  0.00  0.00    +0.000 A 
ATOM     16  C   UNL     1      47.772   2.711   6.737  0.00  0.00    +0.000 A 
ATOM     17  N   UNL     1      47.910   1.389   6.973  0.00  0.00    +0.000 NA
ATOM     18  C   UNL     1      46.944   0.801   7.708  0.00  0.00    +0.000 A 
ATOM     19  C   UNL     1      45.840   1.473   8.216  0.00  0.00    +0.000 A 
ENDBRANCH  13  14
ENDBRANCH  10  13
ENDBRANCH   8  10
ENDBRANCH   7   8
ENDBRANCH   1   7
BRANCH   4  20
ATOM     20  C   UNL     1      48.086   8.901  14.262  0.00  0.00    +0.000 C 
BRANCH  20  21
ATOM     21  N   UNL     1      47.787   8.940  15.672  0.00  0.00    +0.000 N 
ATOM     22  C   UNL     1      48.694   8.497  16.597  0.00  0.00    +0.000 C 
ATOM     23  O   UNL     1      49.806   8.089  16.272  0.00  0.00    +0.000 OA
ATOM     24  H   UNL     1      46.811   9.039  15.936  0.00  0.00    +0.000 HD
BRANCH  22  25
ATOM     25  C   UNL     1      48.293   8.590  18.004  0.00  0.00    +0.000 A 
ATOM     26  C   UNL     1      48.227   9.836  18.615  0.00  0.00    +0.000 A 
ATOM     27  S   UNL     1      47.729   9.772  20.244  0.00  0.00    +0.000 S 
ATOM     28  C   UNL     1      47.624   8.076  20.202  0.00  0.00    +0.000 A 
ATOM     29  N   UNL     1      47.273   7.370  21.313  0.00  0.00    +0.000 NA
ATOM     30  C   UNL     1      47.258   6.089  21.148  0.00  0.00    +0.000 A 
ATOM     31  N   UNL     1      47.550   5.450  19.971  0.00  0.00    +0.000 N 
ATOM     32  C   UNL     1      47.874   6.121  18.815  0.00  0.00    +0.000 A 
ATOM     33  O   UNL     1      48.069   5.523  17.766  0.00  0.00    +0.000 OA
ATOM     34  C   UNL     1      47.934   7.565  18.954  0.00  0.00    +0.000 A 
ATOM     35  H   UNL     1      47.498   4.445  19.903  0.00  0.00    +0.000 HD
ENDBRANCH  22  25
ENDBRANCH  20  21
ENDBRANCH   4  20
TORSDOF 9
ENDMDL
MODEL 4
REMARK VINA RESULT:    -7.395      3.751      9.551
REMARK INTER + INTRA:         -12.313
REMARK INTER:                  -9.520
REMARK INTRA:                  -2.793
REMARK UNBOUND:                -1.028
REMARK  Name = 
REMARK  9 active torsions:
REMARK  status: ('A' for Active; 'I' for Inactive)
REMARK    1  A    between atoms: C_2  and  C_3
REMARK    2  A    between atoms: C_3  and  C_4
REMARK    3  A    between atoms: C_3  and  N_11
REMARK    4  A    between atoms: C_4  and  C_5
REMARK    5  A    between atoms: N_11  and  C_12
REMARK    6  A    between atoms: C_12  and  C_13
REMARK    7  A    between atoms: C_16  and  C_17
REMARK    8  A    between atoms: C_17  and  N_18
REMARK    9  A    between atoms: C_19  and  C_21
REMARK                            x       y       z     vdW  Elec       q    Type
REMARK                         _______ _______ _______ _____ _____    ______ ____
ROOT
ATOM      1  C   UNL     1      48.246   5.644  20.468  0.00  0.00    +0.000 A 
ATOM      2  C   UNL     1      47.203   6.088  19.641  0.00  0.00    +0.000 A 
ATOM      3  C   UNL     1      46.931   5.440  18.438  0.00  0.00    +0.000 A 
ATOM      4  C   UNL     1      47.698   4.340  18.037  0.00  0.00    +0.000 A 
ATOM      5  C   UNL     1      48.748   3.907  18.854  0.00  0.00    +0.000 A 
ATOM      6  C   UNL     1      49.013   4.546  20.064  0.00  0.00    +0.000 A 
ENDROOT
BRANCH   1   7
ATOM      7  C   UNL     1      48.562   6.358  21.756  0.00  0.00    +0.000 C 
BRANCH   7   8
ATOM      8  N   UNL     1      49.697   7.264  21.600  0.00  0.00    +0.000 NA
ATOM      9  H   UNL     1      49.933   7.665  22.508  0.00  0.00    +0.000 HD
BRANCH   8  10
ATOM     10  C   UNL     1      49.425   8.361  20.659  0.00  0.00    +0.000 C 
BRANCH  10  12
ATOM     11  N   UNL     1      49.310  10.797  21.995  0.00  0.00    +0.000 NA
ATOM     12  C   UNL     1      49.363   9.693  21.389  0.00  0.00    +0.000 C 
ENDBRANCH  10  12
BRANCH  10  13
ATOM     13  C   UNL     1      50.537   8.478  19.570  0.00  0.00    +0.000 C 
BRANCH  13  14
ATOM     14  C   UNL     1      50.258   7.789  18.251  0.00  0.00    +0.000 A 
ATOM     15  C   UNL     1      51.025   6.688  17.852  0.00  0.00    +0.000 A 
ATOM     16  C   UNL     1      50.724   6.063  16.653  0.00  0.00    +0.000 A 
ATOM     17  N   UNL     1      49.719   6.449  15.839  0.00  0.00    +0.000 NA
ATOM     18  C   UNL     1      48.987   7.508  16.241  0.00  0.00    +0.000 A 
ATOM     19  C   UNL     1      49.215   8.206  17.419  0.00  0.00    +0.000 A 
ENDBRANCH  13  14
ENDBRANCH  10  13
ENDBRANCH   8  10
ENDBRANCH   7   8
ENDBRANCH   1   7
BRANCH   4  20
ATOM     20  C   UNL     1      47.451   3.670  16.716  0.00  0.00    +0.000 C 
BRANCH  20  21
ATOM     21  N   UNL     1      46.937   4.614  15.757  0.00  0.00    +0.000 N 
ATOM     22  C   UNL     1      46.884   4.307  14.424  0.00  0.00    +0.000 C 
ATOM     23  O   UNL     1      47.232   3.209  13.997  0.00  0.00    +0.000 OA
ATOM     24  H   UNL     1      46.878   5.586  16.049  0.00  0.00    +0.000 HD
BRANCH  22  25
ATOM     25  C   UNL     1      46.333   5.335  13.535  0.00  0.00    +0.000 A 
ATOM     26  C   UNL     1      47.074   6.481  13.273  0.00  0.00    +0.000 A 
ATOM     27  S   UNL     1      46.302   7.565  12.210  0.00  0.00    +0.000 S 
ATOM     28  C   UNL     1      44.934   6.563  12.094  0.00  0.00    +0.000 A 
ATOM     29  N   UNL     1      43.858   6.932  11.345  0.00  0.00    +0.000 NA
ATOM     30  C   UNL     1      42.878   6.091  11.367  0.00  0.00    +0.000 A 
ATOM     31  N   UNL     1      42.880   4.908  12.058  0.00  0.00    +0.000 N 
ATOM     32  C   UNL     1      43.957   4.476  12.798  0.00  0.00    +0.000 A 
ATOM     33  O   UNL     1      43.949   3.386  13.354  0.00  0.00    +0.000 OA
ATOM     34  C   UNL     1      45.075   5.401  12.831  0.00  0.00    +0.000 A 
ATOM     35  H   UNL     1      42.090   4.283  12.016  0.00  0.00    +0.000 HD
ENDBRANCH  22  25
ENDBRANCH  20  21
ENDBRANCH   4  20
TORSDOF 9
ENDMDL
MODEL 5
REMARK VINA RESULT:    -7.317      2.069      2.573
REMARK INTER + INTRA:         -12.195
REMARK INTER:                 -11.143
REMARK INTRA:                  -1.052
REMARK UNBOUND:                -1.028
REMARK  Name = 
REMARK  9 active torsions:
REMARK  status: ('A' for Active; 'I' for Inactive)
REMARK    1  A    between atoms: C_2  and  C_3
REMARK    2  A    between atoms: C_3  and  C_4
REMARK    3  A    between atoms: C_3  and  N_11
REMARK    4  A    between atoms: C_4  and  C_5
REMARK    5  A    between atoms: N_11  and  C_12
REMARK    6  A    between atoms: C_12  and  C_13
REMARK    7  A    between atoms: C_16  and  C_17
REMARK    8  A    between atoms: C_17  and  N_18
REMARK    9  A    between atoms: C_19  and  C_21
REMARK                            x       y       z     vdW  Elec       q    Type
REMARK                         _______ _______ _______ _____ _____    ______ ____
ROOT
ATOM      1  C   UNL     1      45.279   6.608  11.938  0.00  0.00    +0.000 A 
ATOM      2  C   UNL     1      45.081   7.957  12.268  0.00  0.00    +0.000 A 
ATOM      3  C   UNL     1      46.058   8.662  12.969  0.00  0.00    +0.000 A 
ATOM      4  C   UNL     1      47.245   8.031  13.357  0.00  0.00    +0.000 A 
ATOM      5  C   UNL     1      47.435   6.681  13.042  0.00  0.00    +0.000 A 
ATOM      6  C   UNL     1      46.465   5.978  12.329  0.00  0.00    +0.000 A 
ENDROOT
BRANCH   1   7
ATOM      7  C   UNL     1      44.215   5.833  11.205  0.00  0.00    +0.000 C 
BRANCH   7   8
ATOM      8  N   UNL     1      44.701   5.347   9.916  0.00  0.00    +0.000 NA
ATOM      9  H   UNL     1      44.037   5.610   9.187  0.00  0.00    +0.000 HD
BRANCH   8  10
ATOM     10  C   UNL     1      44.875   3.887   9.887  0.00  0.00    +0.000 C 
BRANCH  10  12
ATOM     11  N   UNL     1      43.030   2.643  11.556  0.00  0.00    +0.000 NA
ATOM     12  C   UNL     1      43.866   3.207  10.799  0.00  0.00    +0.000 C 
ENDBRANCH  10  12
BRANCH  10  13
ATOM     13  C   UNL     1      44.671   3.309   8.452  0.00  0.00    +0.000 C 
BRANCH  13  14
ATOM     14  C   UNL     1      45.878   2.653   7.816  0.00  0.00    +0.000 A 
ATOM     15  C   UNL     1      46.742   3.397   7.005  0.00  0.00    +0.000 A 
ATOM     16  C   UNL     1      47.854   2.773   6.463  0.00  0.00    +0.000 A 
ATOM     17  N   UNL     1      48.164   1.477   6.678  0.00  0.00    +0.000 NA
ATOM     18  C   UNL     1      47.324   0.776   7.467  0.00  0.00    +0.000 A 
ATOM     19  C   UNL     1      46.181   1.308   8.048  0.00  0.00    +0.000 A 
ENDBRANCH  13  14
ENDBRANCH  10  13
ENDBRANCH   8  10
ENDBRANCH   7   8
ENDBRANCH   1   7
BRANCH   4  20
ATOM     20  C   UNL     1      48.279   8.765  14.162  0.00  0.00    +0.000 C 
BRANCH  20  21
ATOM     21  N   UNL     1      49.215   7.839  14.749  0.00  0.00    +0.000 N 
ATOM     22  C   UNL     1      50.209   8.275  15.583  0.00  0.00    +0.000 C 
ATOM     23  O   UNL     1      50.322   9.457  15.896  0.00  0.00    +0.000 OA
ATOM     24  H   UNL     1      49.289   6.921  14.320  0.00  0.00    +0.000 HD
BRANCH  22  25
ATOM     25  C   UNL     1      51.100   7.248  16.133  0.00  0.00    +0.000 A 
ATOM     26  C   UNL     1      52.476   7.417  16.042  0.00  0.00    +0.000 A 
ATOM     27  S   UNL     1      53.367   6.146  16.745  0.00  0.00    +0.000 S 
ATOM     28  C   UNL     1      51.948   5.307  17.160  0.00  0.00    +0.000 A 
ATOM     29  N   UNL     1      52.008   4.093  17.775  0.00  0.00    +0.000 NA
ATOM     30  C   UNL     1      50.858   3.556  18.008  0.00  0.00    +0.000 A 
ATOM     31  N   UNL     1      49.651   4.126  17.695  0.00  0.00    +0.000 N 
ATOM     32  C   UNL     1      49.540   5.365  17.107  0.00  0.00    +0.000 A 
ATOM     33  O   UNL     1      48.446   5.873  16.897  0.00  0.00    +0.000 OA
ATOM     34  C   UNL     1      50.807   6.000  16.796  0.00  0.00    +0.000 A 
ATOM     35  H   UNL     1      48.786   3.663  17.924  0.00  0.00    +0.000 HD
ENDBRANCH  22  25
ENDBRANCH  20  21
ENDBRANCH   4  20
TORSDOF 9
ENDMDL
MODEL 6
REMARK VINA RESULT:    -7.272      3.244      8.970
REMARK INTER + INTRA:         -12.127
REMARK INTER:                 -10.048
REMARK INTRA:                  -2.078
REMARK UNBOUND:                -1.028
REMARK  Name = 
REMARK  9 active torsions:
REMARK  status: ('A' for Active; 'I' for Inactive)
REMARK    1  A    between atoms: C_2  and  C_3
REMARK    2  A    between atoms: C_3  and  C_4
REMARK    3  A    between atoms: C_3  and  N_11
REMARK    4  A    between atoms: C_4  and  C_5
REMARK    5  A    between atoms: N_11  and  C_12
REMARK    6  A    between atoms: C_12  and  C_13
REMARK    7  A    between atoms: C_16  and  C_17
REMARK    8  A    between atoms: C_17  and  N_18
REMARK    9  A    between atoms: C_19  and  C_21
REMARK                            x       y       z     vdW  Elec       q    Type
REMARK                         _______ _______ _______ _____ _____    ______ ____
ROOT
ATOM      1  C   UNL     1      48.933   8.085  16.298  0.00  0.00    +0.000 A 
ATOM      2  C   UNL     1      49.432   7.036  15.512  0.00  0.00    +0.000 A 
ATOM      3  C   UNL     1      49.107   6.950  14.160  0.00  0.00    +0.000 A 
ATOM      4  C   UNL     1      48.273   7.907  13.570  0.00  0.00    +0.000 A 
ATOM      5  C   UNL     1      47.762   8.944  14.357  0.00  0.00    +0.000 A 
ATOM      6  C   UNL     1      48.097   9.039  15.707  0.00  0.00    +0.000 A 
ENDROOT
BRANCH   1   7
ATOM      7  C   UNL     1      49.259   8.167  17.766  0.00  0.00    +0.000 C 
BRANCH   7   8
ATOM      8  N   UNL     1      49.812   6.910  18.261  0.00  0.00    +0.000 NA
ATOM      9  H   UNL     1      49.906   6.256  17.483  0.00  0.00    +0.000 HD
BRANCH   8  10
ATOM     10  C   UNL     1      48.974   6.288  19.298  0.00  0.00    +0.000 C 
BRANCH  10  12
ATOM     11  N   UNL     1      48.040   8.201  21.087  0.00  0.00    +0.000 NA
ATOM     12  C   UNL     1      48.464   7.334  20.276  0.00  0.00    +0.000 C 
ENDBRANCH  10  12
BRANCH  10  13
ATOM     13  C   UNL     1      47.728   5.575  18.684  0.00  0.00    +0.000 C 
BRANCH  13  14
ATOM     14  C   UNL     1      48.011   4.458  17.704  0.00  0.00    +0.000 A 
ATOM     15  C   UNL     1      47.326   4.395  16.485  0.00  0.00    +0.000 A 
ATOM     16  C   UNL     1      47.631   3.375  15.599  0.00  0.00    +0.000 A 
ATOM     17  N   UNL     1      48.566   2.431  15.836  0.00  0.00    +0.000 NA
ATOM     18  C   UNL     1      49.220   2.509  17.013  0.00  0.00    +0.000 A 
ATOM     19  C   UNL     1      48.980   3.486  17.969  0.00  0.00    +0.000 A 
ENDBRANCH  13  14
ENDBRANCH  10  13
ENDBRANCH   8  10
ENDBRANCH   7   8
ENDBRANCH   1   7
BRANCH   4  20
ATOM     20  C   UNL     1      47.869   7.792  12.128  0.00  0.00    +0.000 C 
BRANCH  20  21
ATOM     21  N   UNL     1      47.106   6.590  11.910  0.00  0.00    +0.000 N 
ATOM     22  C   UNL     1      45.750   6.572  12.097  0.00  0.00    +0.000 C 
ATOM     23  O   UNL     1      45.126   7.581  12.417  0.00  0.00    +0.000 OA
ATOM     24  H   UNL     1      47.619   5.713  11.886  0.00  0.00    +0.000 HD
BRANCH  22  25
ATOM     25  C   UNL     1      45.069   5.300  11.837  0.00  0.00    +0.000 A 
ATOM     26  C   UNL     1      44.366   4.679  12.861  0.00  0.00    +0.000 A 
ATOM     27  S   UNL     1      43.618   3.222  12.391  0.00  0.00    +0.000 S 
ATOM     28  C   UNL     1      44.241   3.347  10.814  0.00  0.00    +0.000 A 
ATOM     29  N   UNL     1      43.998   2.380   9.887  0.00  0.00    +0.000 NA
ATOM     30  C   UNL     1      44.552   2.588   8.740  0.00  0.00    +0.000 A 
ATOM     31  N   UNL     1      45.318   3.682   8.430  0.00  0.00    +0.000 N 
ATOM     32  C   UNL     1      45.561   4.702   9.321  0.00  0.00    +0.000 A 
ATOM     33  O   UNL     1      46.198   5.694   8.993  0.00  0.00    +0.000 OA
ATOM     34  C   UNL     1      44.984   4.501  10.637  0.00  0.00    +0.000 A 
ATOM     35  H   UNL     1      45.705   3.796   7.506  0.00  0.00    +0.000 HD
ENDBRANCH  22  25
ENDBRANCH  20  21
ENDBRANCH   4  20
TORSDOF 9
ENDMDL
MODEL 7
REMARK VINA RESULT:    -6.620      3.521      9.187
REMARK INTER + INTRA:         -11.131
REMARK INTER:                  -9.732
REMARK INTRA:                  -1.399
REMARK UNBOUND:                -1.028
REMARK  Name = 
REMARK  9 active torsions:
REMARK  status: ('A' for Active; 'I' for Inactive)
REMARK    1  A    between atoms: C_2  and  C_3
REMARK    2  A    between atoms: C_3  and  C_4
REMARK    3  A    between atoms: C_3  and  N_11
REMARK    4  A    between atoms: C_4  and  C_5
REMARK    5  A    between atoms: N_11  and  C_12
REMARK    6  A    between atoms: C_12  and  C_13
REMARK    7  A    between atoms: C_16  and  C_17
REMARK    8  A    between atoms: C_17  and  N_18
REMARK    9  A    between atoms: C_19  and  C_21
REMARK                            x       y       z     vdW  Elec       q    Type
REMARK                         _______ _______ _______ _____ _____    ______ ____
ROOT
ATOM      1  C   UNL     1      50.662   8.100  15.058  0.00  0.00    +0.000 A 
ATOM      2  C   UNL     1      51.097   8.364  13.751  0.00  0.00    +0.000 A 
ATOM      3  C   UNL     1      50.185   8.409  12.699  0.00  0.00    +0.000 A 
ATOM      4  C   UNL     1      48.823   8.187  12.933  0.00  0.00    +0.000 A 
ATOM      5  C   UNL     1      48.391   7.908  14.234  0.00  0.00    +0.000 A 
ATOM      6  C   UNL     1      49.301   7.876  15.289  0.00  0.00    +0.000 A 
ENDROOT
BRANCH   1   7
ATOM      7  C   UNL     1      51.648   8.023  16.194  0.00  0.00    +0.000 C 
BRANCH   7   8
ATOM      8  N   UNL     1      51.156   7.168  17.271  0.00  0.00    +0.000 NA
ATOM      9  H   UNL     1      51.586   7.456  18.150  0.00  0.00    +0.000 HD
BRANCH   8  10
ATOM     10  C   UNL     1      51.451   5.744  17.049  0.00  0.00    +0.000 C 
BRANCH  10  12
ATOM     11  N   UNL     1      54.191   5.279  17.165  0.00  0.00    +0.000 NA
ATOM     12  C   UNL     1      52.948   5.490  17.112  0.00  0.00    +0.000 C 
ENDBRANCH  10  12
BRANCH  10  13
ATOM     13  C   UNL     1      50.778   4.839  18.128  0.00  0.00    +0.000 C 
BRANCH  13  14
ATOM     14  C   UNL     1      49.406   4.299  17.787  0.00  0.00    +0.000 A 
ATOM     15  C   UNL     1      48.272   5.109  17.925  0.00  0.00    +0.000 A 
ATOM     16  C   UNL     1      47.035   4.593  17.576  0.00  0.00    +0.000 A 
ATOM     17  N   UNL     1      46.853   3.344  17.097  0.00  0.00    +0.000 NA
ATOM     18  C   UNL     1      47.956   2.579  16.966  0.00  0.00    +0.000 A 
ATOM     19  C   UNL     1      49.236   3.002  17.296  0.00  0.00    +0.000 A 
ENDBRANCH  13  14
ENDBRANCH  10  13
ENDBRANCH   8  10
ENDBRANCH   7   8
ENDBRANCH   1   7
BRANCH   4  20
ATOM     20  C   UNL     1      47.838   8.176  11.798  0.00  0.00    +0.000 C 
BRANCH  20  21
ATOM     21  N   UNL     1      47.061   6.963  11.814  0.00  0.00    +0.000 N 
ATOM     22  C   UNL     1      45.703   6.993  11.648  0.00  0.00    +0.000 C 
ATOM     23  O   UNL     1      45.098   8.042  11.441  0.00  0.00    +0.000 OA
ATOM     24  H   UNL     1      47.497   6.138  12.217  0.00  0.00    +0.000 HD
BRANCH  22  25
ATOM     25  C   UNL     1      45.011   5.701  11.669  0.00  0.00    +0.000 A 
ATOM     26  C   UNL     1      44.324   5.312  12.812  0.00  0.00    +0.000 A 
ATOM     27  S   UNL     1      43.561   3.795  12.668  0.00  0.00    +0.000 S 
ATOM     28  C   UNL     1      44.153   3.587  11.088  0.00  0.00    +0.000 A 
ATOM     29  N   UNL     1      43.887   2.450  10.386  0.00  0.00    +0.000 NA
ATOM     30  C   UNL     1      44.420   2.412   9.211  0.00  0.00    +0.000 A 
ATOM     31  N   UNL     1      45.185   3.411   8.667  0.00  0.00    +0.000 N 
ATOM     32  C   UNL     1      45.451   4.591   9.323  0.00  0.00    +0.000 A 
ATOM     33  O   UNL     1      46.086   5.488   8.786  0.00  0.00    +0.000 OA
ATOM     34  C   UNL     1      44.898   4.672  10.663  0.00  0.00    +0.000 A 
ATOM     35  H   UNL     1      45.555   3.328   7.733  0.00  0.00    +0.000 HD
ENDBRANCH  22  25
ENDBRANCH  20  21
ENDBRANCH   4  20
TORSDOF 9
ENDMDL
MODEL 8
REMARK VINA RESULT:    -6.567      3.816      9.523
REMARK INTER + INTRA:         -11.050
REMARK INTER:                  -8.813
REMARK INTRA:                  -2.237
REMARK UNBOUND:                -1.028
REMARK  Name = 
REMARK  9 active torsions:
REMARK  status: ('A' for Active; 'I' for Inactive)
REMARK    1  A    between atoms: C_2  and  C_3
REMARK    2  A    between atoms: C_3  and  C_4
REMARK    3  A    between atoms: C_3  and  N_11
REMARK    4  A    between atoms: C_4  and  C_5
REMARK    5  A    between atoms: N_11  and  C_12
REMARK    6  A    between atoms: C_12  and  C_13
REMARK    7  A    between atoms: C_16  and  C_17
REMARK    8  A    between atoms: C_17  and  N_18
REMARK    9  A    between atoms: C_19  and  C_21
REMARK                            x       y       z     vdW  Elec       q    Type
REMARK                         _______ _______ _______ _____ _____    ______ ____
ROOT
ATOM      1  C   UNL     1      50.548   5.027  19.205  0.00  0.00    +0.000 A 
ATOM      2  C   UNL     1      49.227   5.436  19.436  0.00  0.00    +0.000 A 
ATOM      3  C   UNL     1      48.182   4.906  18.682  0.00  0.00    +0.000 A 
ATOM      4  C   UNL     1      48.439   3.961  17.682  0.00  0.00    +0.000 A 
ATOM      5  C   UNL     1      49.758   3.565  17.440  0.00  0.00    +0.000 A 
ATOM      6  C   UNL     1      50.804   4.085  18.202  0.00  0.00    +0.000 A 
ENDROOT
BRANCH   1   7
ATOM      7  C   UNL     1      51.684   5.618  19.998  0.00  0.00    +0.000 C 
BRANCH   7   8
ATOM      8  N   UNL     1      51.584   7.073  20.072  0.00  0.00    +0.000 NA
ATOM      9  H   UNL     1      50.727   7.374  19.607  0.00  0.00    +0.000 HD
BRANCH   8  10
ATOM     10  C   UNL     1      52.725   7.755  19.440  0.00  0.00    +0.000 C 
BRANCH  10  12
ATOM     11  N   UNL     1      54.567   5.908  18.478  0.00  0.00    +0.000 NA
ATOM     12  C   UNL     1      53.732   6.745  18.915  0.00  0.00    +0.000 C 
ENDBRANCH  10  12
BRANCH  10  13
ATOM     13  C   UNL     1      52.274   8.636  18.233  0.00  0.00    +0.000 C 
BRANCH  13  14
ATOM     14  C   UNL     1      51.042   8.171  17.487  0.00  0.00    +0.000 A 
ATOM     15  C   UNL     1      49.784   8.697  17.802  0.00  0.00    +0.000 A 
ATOM     16  C   UNL     1      48.681   8.271  17.080  0.00  0.00    +0.000 A 
ATOM     17  N   UNL     1      48.746   7.375  16.073  0.00  0.00    +0.000 NA
ATOM     18  C   UNL     1      49.967   6.882  15.779  0.00  0.00    +0.000 A 
ATOM     19  C   UNL     1      51.129   7.239  16.449  0.00  0.00    +0.000 A 
ENDBRANCH  13  14
ENDBRANCH  10  13
ENDBRANCH   8  10
ENDBRANCH   7   8
ENDBRANCH   1   7
BRANCH   4  20
ATOM     20  C   UNL     1      47.327   3.426  16.825  0.00  0.00    +0.000 C 
BRANCH  20  21
ATOM     21  N   UNL     1      46.904   4.416  15.868  0.00  0.00    +0.000 N 
ATOM     22  C   UNL     1      46.914   4.149  14.525  0.00  0.00    +0.000 C 
ATOM     23  O   UNL     1      47.243   3.051  14.085  0.00  0.00    +0.000 OA
ATOM     24  H   UNL     1      46.865   5.381  16.185  0.00  0.00    +0.000 HD
BRANCH  22  25
ATOM     25  C   UNL     1      46.453   5.223  13.639  0.00  0.00    +0.000 A 
ATOM     26  C   UNL     1      47.278   6.314  13.400  0.00  0.00    +0.000 A 
ATOM     27  S   UNL     1      46.603   7.461  12.336  0.00  0.00    +0.000 S 
ATOM     28  C   UNL     1      45.168   6.561  12.190  0.00  0.00    +0.000 A 
ATOM     29  N   UNL     1      44.133   7.015  11.429  0.00  0.00    +0.000 NA
ATOM     30  C   UNL     1      43.096   6.246  11.427  0.00  0.00    +0.000 A 
ATOM     31  N   UNL     1      43.002   5.060  12.106  0.00  0.00    +0.000 N 
ATOM     32  C   UNL     1      44.032   4.544  12.858  0.00  0.00    +0.000 A 
ATOM     33  O   UNL     1      43.937   3.452  13.402  0.00  0.00    +0.000 OA
ATOM     34  C   UNL     1      45.213   5.385  12.917  0.00  0.00    +0.000 A 
ATOM     35  H   UNL     1      42.169   4.494  12.046  0.00  0.00    +0.000 HD
ENDBRANCH  22  25
ENDBRANCH  20  21
ENDBRANCH   4  20
TORSDOF 9
ENDMDL
MODEL 9
REMARK VINA RESULT:    -6.329      3.436      9.907
REMARK INTER + INTRA:         -10.687
REMARK INTER:                  -9.014
REMARK INTRA:                  -1.673
REMARK UNBOUND:                -1.028
REMARK  Name = 
REMARK  9 active torsions:
REMARK  status: ('A' for Active; 'I' for Inactive)
REMARK    1  A    between atoms: C_2  and  C_3
REMARK    2  A    between atoms: C_3  and  C_4
REMARK    3  A    between atoms: C_3  and  N_11
REMARK    4  A    between atoms: C_4  and  C_5
REMARK    5  A    between atoms: N_11  and  C_12
REMARK    6  A    between atoms: C_12  and  C_13
REMARK    7  A    between atoms: C_16  and  C_17
REMARK    8  A    between atoms: C_17  and  N_18
REMARK    9  A    between atoms: C_19  and  C_21
REMARK                            x       y       z     vdW  Elec       q    Type
REMARK                         _______ _______ _______ _____ _____    ______ ____
ROOT
ATOM      1  C   UNL     1      48.898   5.179  17.361  0.00  0.00    +0.000 A 
ATOM      2  C   UNL     1      47.919   4.646  16.509  0.00  0.00    +0.000 A 
ATOM      3  C   UNL     1      47.692   5.210  15.255  0.00  0.00    +0.000 A 
ATOM      4  C   UNL     1      48.435   6.318  14.833  0.00  0.00    +0.000 A 
ATOM      5  C   UNL     1      49.399   6.861  15.689  0.00  0.00    +0.000 A 
ATOM      6  C   UNL     1      49.637   6.289  16.938  0.00  0.00    +0.000 A 
ENDROOT
BRANCH   1   7
ATOM      7  C   UNL     1      49.128   4.591  18.729  0.00  0.00    +0.000 C 
BRANCH   7   8
ATOM      8  N   UNL     1      47.987   4.826  19.610  0.00  0.00    +0.000 NA
ATOM      9  H   UNL     1      47.414   5.576  19.223  0.00  0.00    +0.000 HD
BRANCH   8  10
ATOM     10  C   UNL     1      48.389   5.199  20.975  0.00  0.00    +0.000 C 
BRANCH  10  12
ATOM     11  N   UNL     1      51.136   4.915  21.305  0.00  0.00    +0.000 NA
ATOM     12  C   UNL     1      49.891   5.044  21.155  0.00  0.00    +0.000 C 
ENDBRANCH  10  12
BRANCH  10  13
ATOM     13  C   UNL     1      48.031   6.684  21.296  0.00  0.00    +0.000 C 
BRANCH  13  14
ATOM     14  C   UNL     1      48.367   7.701  20.226  0.00  0.00    +0.000 A 
ATOM     15  C   UNL     1      47.393   8.107  19.307  0.00  0.00    +0.000 A 
ATOM     16  C   UNL     1      47.726   9.061  18.359  0.00  0.00    +0.000 A 
ATOM     17  N   UNL     1      48.943   9.637  18.271  0.00  0.00    +0.000 NA
ATOM     18  C   UNL     1      49.868   9.237  19.168  0.00  0.00    +0.000 A 
ATOM     19  C   UNL     1      49.635   8.283  20.148  0.00  0.00    +0.000 A 
ENDBRANCH  13  14
ENDBRANCH  10  13
ENDBRANCH   8  10
ENDBRANCH   7   8
ENDBRANCH   1   7
BRANCH   4  20
ATOM     20  C   UNL     1      48.159   6.970  13.507  0.00  0.00    +0.000 C 
BRANCH  20  21
ATOM     21  N   UNL     1      47.441   6.070  12.640  0.00  0.00    +0.000 N 
ATOM     22  C   UNL     1      46.402   6.515  11.868  0.00  0.00    +0.000 C 
ATOM     23  O   UNL     1      46.066   7.696  11.851  0.00  0.00    +0.000 OA
ATOM     24  H   UNL     1      47.540   5.075  12.820  0.00  0.00    +0.000 HD
BRANCH  22  25
ATOM     25  C   UNL     1      45.747   5.519  11.014  0.00  0.00    +0.000 A 
ATOM     26  C   UNL     1      45.829   5.642   9.633  0.00  0.00    +0.000 A 
ATOM     27  S   UNL     1      45.031   4.397   8.787  0.00  0.00    +0.000 S 
ATOM     28  C   UNL     1      44.513   3.671  10.235  0.00  0.00    +0.000 A 
ATOM     29  N   UNL     1      43.736   2.553  10.217  0.00  0.00    +0.000 NA
ATOM     30  C   UNL     1      43.394   2.123  11.385  0.00  0.00    +0.000 A 
ATOM     31  N   UNL     1      43.766   2.702  12.571  0.00  0.00    +0.000 N 
ATOM     32  C   UNL     1      44.578   3.810  12.639  0.00  0.00    +0.000 A 
ATOM     33  O   UNL     1      44.942   4.265  13.715  0.00  0.00    +0.000 OA
ATOM     34  C   UNL     1      44.968   4.351  11.350  0.00  0.00    +0.000 A 
ATOM     35  H   UNL     1      43.482   2.303  13.452  0.00  0.00    +0.000 HD
ENDBRANCH  22  25
ENDBRANCH  20  21
ENDBRANCH   4  20
TORSDOF 9
ENDMDL
