MODEL 1
REMARK VINA RESULT:    -7.127      0.000      0.000
REMARK INTER + INTRA:         -10.041
REMARK INTER:                  -9.210
REMARK INTRA:                  -0.831
REMARK UNBOUND:                -0.831
REMARK  Name = 
REMARK  5 active torsions:
REMARK  status: ('A' for Active; 'I' for Inactive)
REMARK    1  A    between atoms: C_2  and  C_4
REMARK    2  A    between atoms: C_8  and  O_9
REMARK    3  A    between atoms: O_9  and  C_10
REMARK    4  A    between atoms: C_10  and  C_11
REMARK    5  A    between atoms: C_15  and  C_16
REMARK                            x       y       z     vdW  Elec       q    Type
REMARK                         _______ _______ _______ _____ _____    ______ ____
ROOT
ATOM      1  C   UNL     1      46.766   6.233  12.996  0.00  0.00    +0.000 C 
ENDROOT
BRANCH   1   2
ATOM      2  C   UNL     1      47.699   6.260  14.181  0.00  0.00    +0.000 A 
ATOM      3  C   UNL     1      48.526   7.366  14.404  0.00  0.00    +0.000 A 
ATOM      4  C   UNL     1      49.332   7.422  15.538  0.00  0.00    +0.000 A 
ATOM      5  C   UNL     1      49.317   6.376  16.462  0.00  0.00    +0.000 A 
ATOM      6  C   UNL     1      48.508   5.250  16.263  0.00  0.00    +0.000 A 
ATOM      7  C   UNL     1      47.718   5.200  15.100  0.00  0.00    +0.000 A 
BRANCH   6   8
ATOM      8  C   UNL     1      48.390   4.122  17.284  0.00  0.00    +0.000 C 
ATOM      9  C   UNL     1      49.621   4.084  18.209  0.00  0.00    +0.000 C 
ATOM     10  C   UNL     1      50.795   3.331  17.585  0.00  0.00    +0.000 C 
ATOM     11  C   UNL     1      50.376   1.957  17.067  0.00  0.00    +0.000 C 
ATOM     12  N   UNL     1      49.266   2.045  16.124  0.00  0.00    +0.000 NA
ATOM     13  C   UNL     1      48.100   2.714  16.714  0.00  0.00    +0.000 C 
ATOM     14  H   UNL     1      49.001   1.110  15.815  0.00  0.00    +0.000 HD
ENDBRANCH   6   8
ENDBRANCH   1   2
BRANCH   1  15
ATOM     15  O   UNL     1      45.495   5.714  13.384  0.00  0.00    +0.000 OA
BRANCH  15  20
ATOM     16  C   UNL     1      44.763   4.101  10.208  0.00  0.00    +0.000 A 
ATOM     17  C   UNL     1      43.906   3.063  10.585  0.00  0.00    +0.000 A 
ATOM     18  C   UNL     1      43.569   2.888  11.925  0.00  0.00    +0.000 A 
ATOM     19  C   UNL     1      44.082   3.754  12.896  0.00  0.00    +0.000 A 
ATOM     20  C   UNL     1      44.930   4.804  12.527  0.00  0.00    +0.000 A 
ATOM     21  C   UNL     1      45.260   4.979  11.180  0.00  0.00    +0.000 A 
BRANCH  16  23
ATOM     22  N   UNL     1      44.382   3.510   7.877  0.00  0.00    +0.000 N 
ATOM     23  C   UNL     1      45.116   4.237   8.772  0.00  0.00    +0.000 C 
ATOM     24  O   UNL     1      45.994   5.003   8.393  0.00  0.00    +0.000 OA
ATOM     25  H   UNL     1      44.552   3.697   6.897  0.00  0.00    +0.000 HD
ATOM     26  H   UNL     1      43.513   3.061   8.126  0.00  0.00    +0.000 HD
ENDBRANCH  16  23
ENDBRANCH  15  20
ENDBRANCH   1  15
TORSDOF 5
ENDMDL
MODEL 2
REMARK VINA RESULT:    -7.074      3.300      4.836
REMARK INTER + INTRA:          -9.973
REMARK INTER:                  -8.980
REMARK INTRA:                  -0.993
REMARK UNBOUND:                -0.831
REMARK  Name = 
REMARK  5 active torsions:
REMARK  status: ('A' for Active; 'I' for Inactive)
REMARK    1  A    between atoms: C_2  and  C_4
REMARK    2  A    between atoms: C_8  and  O_9
REMARK    3  A    between atoms: O_9  and  C_10
REMARK    4  A    between atoms: C_10  and  C_11
REMARK    5  A    between atoms: C_15  and  C_16
REMARK                            x       y       z     vdW  Elec       q    Type
REMARK                         _______ _______ _______ _____ _____    ______ ____
ROOT
ATOM      1  C   UNL     1      44.312   5.493  10.907  0.00  0.00    +0.000 C 
ENDROOT
BRANCH   1   2
ATOM      2  C   UNL     1      45.387   5.480  11.965  0.00  0.00    +0.000 A 
ATOM      3  C   UNL     1      45.328   4.564  13.020  0.00  0.00    +0.000 A 
ATOM      4  C   UNL     1      46.360   4.504  13.954  0.00  0.00    +0.000 A 
ATOM      5  C   UNL     1      47.461   5.353  13.840  0.00  0.00    +0.000 A 
ATOM      6  C   UNL     1      47.545   6.288  12.801  0.00  0.00    +0.000 A 
ATOM      7  C   UNL     1      46.483   6.352  11.879  0.00  0.00    +0.000 A 
BRANCH   6   8
ATOM      8  C   UNL     1      48.766   7.177  12.581  0.00  0.00    +0.000 C 
ATOM      9  C   UNL     1      49.454   7.509  13.919  0.00  0.00    +0.000 C 
ATOM     10  C   UNL     1      48.790   8.680  14.641  0.00  0.00    +0.000 C 
ATOM     11  C   UNL     1      48.622   9.889  13.724  0.00  0.00    +0.000 C 
ATOM     12  N   UNL     1      47.884   9.554  12.509  0.00  0.00    +0.000 NA
ATOM     13  C   UNL     1      48.530   8.468  11.762  0.00  0.00    +0.000 C 
ATOM     14  H   UNL     1      47.809  10.378  11.915  0.00  0.00    +0.000 HD
ENDBRANCH   6   8
ENDBRANCH   1   2
BRANCH   1  15
ATOM     15  O   UNL     1      44.895   5.370   9.611  0.00  0.00    +0.000 OA
BRANCH  15  20
ATOM     16  C   UNL     1      46.433   2.725   7.647  0.00  0.00    +0.000 A 
ATOM     17  C   UNL     1      45.799   1.577   8.133  0.00  0.00    +0.000 A 
ATOM     18  C   UNL     1      44.845   1.682   9.143  0.00  0.00    +0.000 A 
ATOM     19  C   UNL     1      44.514   2.935   9.667  0.00  0.00    +0.000 A 
ATOM     20  C   UNL     1      45.133   4.091   9.177  0.00  0.00    +0.000 A 
ATOM     21  C   UNL     1      46.085   3.981   8.160  0.00  0.00    +0.000 A 
BRANCH  16  23
ATOM     22  N   UNL     1      47.257   3.232   5.412  0.00  0.00    +0.000 N 
ATOM     23  C   UNL     1      47.462   2.565   6.587  0.00  0.00    +0.000 C 
ATOM     24  O   UNL     1      48.477   1.905   6.770  0.00  0.00    +0.000 OA
ATOM     25  H   UNL     1      48.017   3.210   4.744  0.00  0.00    +0.000 HD
ATOM     26  H   UNL     1      46.567   3.962   5.315  0.00  0.00    +0.000 HD
ENDBRANCH  16  23
ENDBRANCH  15  20
ENDBRANCH   1  15
TORSDOF 5
ENDMDL
MODEL 3
REMARK VINA RESULT:    -6.799      2.365      7.870
REMARK INTER + INTRA:          -9.617
REMARK INTER:                  -8.834
REMARK INTRA:                  -0.783
REMARK UNBOUND:                -0.831
REMARK  Name = 
REMARK  5 active torsions:
REMARK  status: ('A' for Active; 'I' for Inactive)
REMARK    1  A    between atoms: C_2  and  C_4
REMARK    2  A    between atoms: C_8  and  O_9
REMARK    3  A    between atoms: O_9  and  C_10
REMARK    4  A    between atoms: C_10  and  C_11
REMARK    5  A    between atoms: C_15  and  C_16
REMARK                            x       y       z     vdW  Elec       q    Type
REMARK                         _______ _______ _______ _____ _____    ______ ____
ROOT
ATOM      1  C   UNL     1      47.125   3.502  14.687  0.00  0.00    +0.000 C 
ENDROOT
BRANCH   1   2
ATOM      2  C   UNL     1      46.626   4.395  13.579  0.00  0.00    +0.000 A 
ATOM      3  C   UNL     1      47.252   5.619  13.321  0.00  0.00    +0.000 A 
ATOM      4  C   UNL     1      46.837   6.407  12.251  0.00  0.00    +0.000 A 
ATOM      5  C   UNL     1      45.796   5.979  11.426  0.00  0.00    +0.000 A 
ATOM      6  C   UNL     1      45.142   4.764  11.663  0.00  0.00    +0.000 A 
ATOM      7  C   UNL     1      45.558   3.991  12.763  0.00  0.00    +0.000 A 
BRANCH   6   8
ATOM      8  C   UNL     1      44.059   4.211  10.741  0.00  0.00    +0.000 C 
ATOM      9  C   UNL     1      44.222   2.691  10.550  0.00  0.00    +0.000 C 
ATOM     10  C   UNL     1      45.249   2.345   9.473  0.00  0.00    +0.000 C 
ATOM     11  C   UNL     1      44.981   3.099   8.172  0.00  0.00    +0.000 C 
ATOM     12  N   UNL     1      44.926   4.543   8.380  0.00  0.00    +0.000 NA
ATOM     13  C   UNL     1      43.907   4.912   9.370  0.00  0.00    +0.000 C 
ATOM     14  H   UNL     1      44.727   5.010   7.497  0.00  0.00    +0.000 HD
ENDBRANCH   6   8
ENDBRANCH   1   2
BRANCH   1  15
ATOM     15  O   UNL     1      46.707   4.010  15.953  0.00  0.00    +0.000 OA
BRANCH  15  20
ATOM     16  C   UNL     1      49.806   3.229  17.686  0.00  0.00    +0.000 A 
ATOM     17  C   UNL     1      49.801   4.142  18.745  0.00  0.00    +0.000 A 
ATOM     18  C   UNL     1      48.749   5.044  18.883  0.00  0.00    +0.000 A 
ATOM     19  C   UNL     1      47.692   5.035  17.967  0.00  0.00    +0.000 A 
ATOM     20  C   UNL     1      47.682   4.115  16.912  0.00  0.00    +0.000 A 
ATOM     21  C   UNL     1      48.737   3.208  16.782  0.00  0.00    +0.000 A 
BRANCH  16  23
ATOM     22  N   UNL     1      52.061   2.568  18.327  0.00  0.00    +0.000 N 
ATOM     23  C   UNL     1      50.960   2.301  17.562  0.00  0.00    +0.000 C 
ATOM     24  O   UNL     1      50.915   1.310  16.844  0.00  0.00    +0.000 OA
ATOM     25  H   UNL     1      52.792   1.868  18.322  0.00  0.00    +0.000 HD
ATOM     26  H   UNL     1      52.043   3.225  19.092  0.00  0.00    +0.000 HD
ENDBRANCH  16  23
ENDBRANCH  15  20
ENDBRANCH   1  15
TORSDOF 5
ENDMDL
MODEL 4
REMARK VINA RESULT:    -6.650      3.928      5.203
REMARK INTER + INTRA:          -9.425
REMARK INTER:                  -8.703
REMARK INTRA:                  -0.722
REMARK UNBOUND:                -0.831
REMARK  Name = 
REMARK  5 active torsions:
REMARK  status: ('A' for Active; 'I' for Inactive)
REMARK    1  A    between atoms: C_2  and  C_4
REMARK    2  A    between atoms: C_8  and  O_9
REMARK    3  A    between atoms: O_9  and  C_10
REMARK    4  A    between atoms: C_10  and  C_11
REMARK    5  A    between atoms: C_15  and  C_16
REMARK                            x       y       z     vdW  Elec       q    Type
REMARK                         _______ _______ _______ _____ _____    ______ ____
ROOT
ATOM      1  C   UNL     1      44.988   5.440  11.022  0.00  0.00    +0.000 C 
ENDROOT
BRANCH   1   2
ATOM      2  C   UNL     1      45.479   6.797  11.463  0.00  0.00    +0.000 A 
ATOM      3  C   UNL     1      44.645   7.915  11.365  0.00  0.00    +0.000 A 
ATOM      4  C   UNL     1      45.073   9.152  11.840  0.00  0.00    +0.000 A 
ATOM      5  C   UNL     1      46.335   9.283  12.422  0.00  0.00    +0.000 A 
ATOM      6  C   UNL     1      47.197   8.185  12.526  0.00  0.00    +0.000 A 
ATOM      7  C   UNL     1      46.758   6.947  12.019  0.00  0.00    +0.000 A 
BRANCH   6   8
ATOM      8  C   UNL     1      48.549   8.255  13.231  0.00  0.00    +0.000 C 
ATOM      9  C   UNL     1      49.186   9.648  13.065  0.00  0.00    +0.000 C 
ATOM     10  C   UNL     1      49.925   9.796  11.736  0.00  0.00    +0.000 C 
ATOM     11  C   UNL     1      50.900   8.645  11.500  0.00  0.00    +0.000 C 
ATOM     12  N   UNL     1      50.240   7.346  11.575  0.00  0.00    +0.000 NA
ATOM     13  C   UNL     1      49.567   7.150  12.864  0.00  0.00    +0.000 C 
ATOM     14  H   UNL     1      50.923   6.603  11.432  0.00  0.00    +0.000 HD
ENDBRANCH   6   8
ENDBRANCH   1   2
BRANCH   1  15
ATOM     15  O   UNL     1      45.058   5.330   9.601  0.00  0.00    +0.000 OA
BRANCH  15  20
ATOM     16  C   UNL     1      46.442   2.812   7.374  0.00  0.00    +0.000 A 
ATOM     17  C   UNL     1      45.944   1.622   7.914  0.00  0.00    +0.000 A 
ATOM     18  C   UNL     1      45.137   1.655   9.049  0.00  0.00    +0.000 A 
ATOM     19  C   UNL     1      44.817   2.878   9.646  0.00  0.00    +0.000 A 
ATOM     20  C   UNL     1      45.300   4.074   9.106  0.00  0.00    +0.000 A 
ATOM     21  C   UNL     1      46.104   4.036   7.963  0.00  0.00    +0.000 A 
BRANCH  16  23
ATOM     22  N   UNL     1      48.653   2.519   6.394  0.00  0.00    +0.000 N 
ATOM     23  C   UNL     1      47.319   2.729   6.178  0.00  0.00    +0.000 C 
ATOM     24  O   UNL     1      46.867   2.797   5.042  0.00  0.00    +0.000 OA
ATOM     25  H   UNL     1      49.220   2.349   5.574  0.00  0.00    +0.000 HD
ATOM     26  H   UNL     1      49.017   2.225   7.289  0.00  0.00    +0.000 HD
ENDBRANCH  16  23
ENDBRANCH  15  20
ENDBRANCH   1  15
TORSDOF 5
ENDMDL
MODEL 5
REMARK VINA RESULT:    -6.587      2.679      7.105
REMARK INTER + INTRA:          -9.343
REMARK INTER:                  -8.302
REMARK INTRA:                  -1.041
REMARK UNBOUND:                -0.831
REMARK  Name = 
REMARK  5 active torsions:
REMARK  status: ('A' for Active; 'I' for Inactive)
REMARK    1  A    between atoms: C_2  and  C_4
REMARK    2  A    between atoms: C_8  and  O_9
REMARK    3  A    between atoms: O_9  and  C_10
REMARK    4  A    between atoms: C_10  and  C_11
REMARK    5  A    between atoms: C_15  and  C_16
REMARK                            x       y       z     vdW  Elec       q    Type
REMARK                         _______ _______ _______ _____ _____    ______ ____
ROOT
ATOM      1  C   UNL     1      48.980   7.833  13.833  0.00  0.00    +0.000 C 
ENDROOT
BRANCH   1   2
ATOM      2  C   UNL     1      47.595   7.841  13.235  0.00  0.00    +0.000 A 
ATOM      3  C   UNL     1      46.868   9.033  13.153  0.00  0.00    +0.000 A 
ATOM      4  C   UNL     1      45.621   9.052  12.534  0.00  0.00    +0.000 A 
ATOM      5  C   UNL     1      45.090   7.882  11.986  0.00  0.00    +0.000 A 
ATOM      6  C   UNL     1      45.788   6.671  12.061  0.00  0.00    +0.000 A 
ATOM      7  C   UNL     1      47.037   6.664  12.711  0.00  0.00    +0.000 A 
BRANCH   6   8
ATOM      8  C   UNL     1      45.293   5.386  11.403  0.00  0.00    +0.000 C 
ATOM      9  C   UNL     1      43.800   5.493  11.039  0.00  0.00    +0.000 C 
ATOM     10  C   UNL     1      42.887   5.182  12.223  0.00  0.00    +0.000 C 
ATOM     11  C   UNL     1      43.260   3.861  12.894  0.00  0.00    +0.000 C 
ATOM     12  N   UNL     1      44.660   3.835  13.307  0.00  0.00    +0.000 NA
ATOM     13  C   UNL     1      45.566   4.075  12.177  0.00  0.00    +0.000 C 
ATOM     14  H   UNL     1      44.877   2.935  13.731  0.00  0.00    +0.000 HD
ENDBRANCH   6   8
ENDBRANCH   1   2
BRANCH   1  15
ATOM     15  O   UNL     1      49.234   6.579  14.467  0.00  0.00    +0.000 OA
BRANCH  15  20
ATOM     16  C   UNL     1      48.016   4.986  17.500  0.00  0.00    +0.000 A 
ATOM     17  C   UNL     1      48.044   6.034  18.426  0.00  0.00    +0.000 A 
ATOM     18  C   UNL     1      48.485   7.297  18.037  0.00  0.00    +0.000 A 
ATOM     19  C   UNL     1      48.894   7.522  16.719  0.00  0.00    +0.000 A 
ATOM     20  C   UNL     1      48.857   6.483  15.782  0.00  0.00    +0.000 A 
ATOM     21  C   UNL     1      48.408   5.219  16.176  0.00  0.00    +0.000 A 
BRANCH  16  23
ATOM     22  N   UNL     1      48.176   3.129  19.067  0.00  0.00    +0.000 N 
ATOM     23  C   UNL     1      47.562   3.650  17.962  0.00  0.00    +0.000 C 
ATOM     24  O   UNL     1      46.644   3.055  17.412  0.00  0.00    +0.000 OA
ATOM     25  H   UNL     1      47.782   2.276  19.441  0.00  0.00    +0.000 HD
ATOM     26  H   UNL     1      48.759   3.684  19.676  0.00  0.00    +0.000 HD
ENDBRANCH  16  23
ENDBRANCH  15  20
ENDBRANCH   1  15
TORSDOF 5
ENDMDL
MODEL 6
REMARK VINA RESULT:    -6.458      2.778      4.249
REMARK INTER + INTRA:          -9.177
REMARK INTER:                  -8.381
REMARK INTRA:                  -0.796
REMARK UNBOUND:                -0.831
REMARK  Name = 
REMARK  5 active torsions:
REMARK  status: ('A' for Active; 'I' for Inactive)
REMARK    1  A    between atoms: C_2  and  C_4
REMARK    2  A    between atoms: C_8  and  O_9
REMARK    3  A    between atoms: O_9  and  C_10
REMARK    4  A    between atoms: C_10  and  C_11
REMARK    5  A    between atoms: C_15  and  C_16
REMARK                            x       y       z     vdW  Elec       q    Type
REMARK                         _______ _______ _______ _____ _____    ______ ____
ROOT
ATOM      1  C   UNL     1      47.252   3.892  15.160  0.00  0.00    +0.000 C 
ENDROOT
BRANCH   1   2
ATOM      2  C   UNL     1      47.765   4.083  16.566  0.00  0.00    +0.000 A 
ATOM      3  C   UNL     1      47.866   2.991  17.435  0.00  0.00    +0.000 A 
ATOM      4  C   UNL     1      48.408   3.156  18.707  0.00  0.00    +0.000 A 
ATOM      5  C   UNL     1      48.859   4.411  19.121  0.00  0.00    +0.000 A 
ATOM      6  C   UNL     1      48.762   5.525  18.279  0.00  0.00    +0.000 A 
ATOM      7  C   UNL     1      48.190   5.346  17.005  0.00  0.00    +0.000 A 
BRANCH   6   8
ATOM      8  C   UNL     1      49.319   6.897  18.650  0.00  0.00    +0.000 C 
ATOM      9  C   UNL     1      49.147   7.173  20.156  0.00  0.00    +0.000 C 
ATOM     10  C   UNL     1      47.754   7.699  20.497  0.00  0.00    +0.000 C 
ATOM     11  C   UNL     1      47.361   8.878  19.610  0.00  0.00    +0.000 C 
ATOM     12  N   UNL     1      47.449   8.548  18.192  0.00  0.00    +0.000 NA
ATOM     13  C   UNL     1      48.794   8.092  17.820  0.00  0.00    +0.000 C 
ATOM     14  H   UNL     1      47.199   9.362  17.632  0.00  0.00    +0.000 HD
ENDBRANCH   6   8
ENDBRANCH   1   2
BRANCH   1  15
ATOM     15  O   UNL     1      47.629   5.000  14.345  0.00  0.00    +0.000 OA
BRANCH  15  20
ATOM     16  C   UNL     1      44.923   4.454  11.979  0.00  0.00    +0.000 A 
ATOM     17  C   UNL     1      45.107   5.494  11.062  0.00  0.00    +0.000 A 
ATOM     18  C   UNL     1      46.147   6.404  11.237  0.00  0.00    +0.000 A 
ATOM     19  C   UNL     1      47.015   6.275  12.326  0.00  0.00    +0.000 A 
ATOM     20  C   UNL     1      46.847   5.229  13.241  0.00  0.00    +0.000 A 
ATOM     21  C   UNL     1      45.806   4.316  13.057  0.00  0.00    +0.000 A 
BRANCH  16  23
ATOM     22  N   UNL     1      43.771   2.376  12.513  0.00  0.00    +0.000 N 
ATOM     23  C   UNL     1      43.787   3.521  11.767  0.00  0.00    +0.000 C 
ATOM     24  O   UNL     1      42.874   3.784  10.994  0.00  0.00    +0.000 OA
ATOM     25  H   UNL     1      42.937   1.807  12.446  0.00  0.00    +0.000 HD
ATOM     26  H   UNL     1      44.368   2.244  13.316  0.00  0.00    +0.000 HD
ENDBRANCH  16  23
ENDBRANCH  15  20
ENDBRANCH   1  15
TORSDOF 5
ENDMDL
MODEL 7
REMARK VINA RESULT:    -6.365      2.467      7.083
REMARK INTER + INTRA:          -9.056
REMARK INTER:                  -8.204
REMARK INTRA:                  -0.852
REMARK UNBOUND:                -0.831
REMARK  Name = 
REMARK  5 active torsions:
REMARK  status: ('A' for Active; 'I' for Inactive)
REMARK    1  A    between atoms: C_2  and  C_4
REMARK    2  A    between atoms: C_8  and  O_9
REMARK    3  A    between atoms: O_9  and  C_10
REMARK    4  A    between atoms: C_10  and  C_11
REMARK    5  A    between atoms: C_15  and  C_16
REMARK                            x       y       z     vdW  Elec       q    Type
REMARK                         _______ _______ _______ _____ _____    ______ ____
ROOT
ATOM      1  C   UNL     1      49.487   6.900  15.234  0.00  0.00    +0.000 C 
ENDROOT
BRANCH   1   2
ATOM      2  C   UNL     1      48.680   7.007  13.964  0.00  0.00    +0.000 A 
ATOM      3  C   UNL     1      49.295   7.383  12.766  0.00  0.00    +0.000 A 
ATOM      4  C   UNL     1      48.563   7.409  11.581  0.00  0.00    +0.000 A 
ATOM      5  C   UNL     1      47.213   7.056  11.581  0.00  0.00    +0.000 A 
ATOM      6  C   UNL     1      46.566   6.685  12.765  0.00  0.00    +0.000 A 
ATOM      7  C   UNL     1      47.313   6.686  13.958  0.00  0.00    +0.000 A 
BRANCH   6   8
ATOM      8  C   UNL     1      45.117   6.206  12.805  0.00  0.00    +0.000 C 
ATOM      9  C   UNL     1      45.033   4.741  13.275  0.00  0.00    +0.000 C 
ATOM     10  C   UNL     1      45.279   3.750  12.139  0.00  0.00    +0.000 C 
ATOM     11  C   UNL     1      44.406   4.053  10.923  0.00  0.00    +0.000 C 
ATOM     12  N   UNL     1      44.584   5.424  10.452  0.00  0.00    +0.000 NA
ATOM     13  C   UNL     1      44.299   6.403  11.507  0.00  0.00    +0.000 C 
ATOM     14  H   UNL     1      43.973   5.595   9.655  0.00  0.00    +0.000 HD
ENDBRANCH   6   8
ENDBRANCH   1   2
BRANCH   1  15
ATOM     15  O   UNL     1      48.635   7.030  16.371  0.00  0.00    +0.000 OA
BRANCH  15  20
ATOM     16  C   UNL     1      49.273   3.660  17.577  0.00  0.00    +0.000 A 
ATOM     17  C   UNL     1      48.817   3.718  18.898  0.00  0.00    +0.000 A 
ATOM     18  C   UNL     1      48.293   4.906  19.403  0.00  0.00    +0.000 A 
ATOM     19  C   UNL     1      48.216   6.040  18.589  0.00  0.00    +0.000 A 
ATOM     20  C   UNL     1      48.657   5.988  17.262  0.00  0.00    +0.000 A 
ATOM     21  C   UNL     1      49.176   4.792  16.758  0.00  0.00    +0.000 A 
BRANCH  16  23
ATOM     22  N   UNL     1      50.876   1.841  17.805  0.00  0.00    +0.000 N 
ATOM     23  C   UNL     1      49.847   2.381  17.086  0.00  0.00    +0.000 C 
ATOM     24  O   UNL     1      49.389   1.803  16.107  0.00  0.00    +0.000 OA
ATOM     25  H   UNL     1      51.180   0.916  17.530  0.00  0.00    +0.000 HD
ATOM     26  H   UNL     1      51.115   2.159  18.732  0.00  0.00    +0.000 HD
ENDBRANCH  16  23
ENDBRANCH  15  20
ENDBRANCH   1  15
TORSDOF 5
ENDMDL
MODEL 8
REMARK VINA RESULT:    -6.304      2.319      3.954
REMARK INTER + INTRA:          -8.977
REMARK INTER:                  -8.197
REMARK INTRA:                  -0.780
REMARK UNBOUND:                -0.831
REMARK  Name = 
REMARK  5 active torsions:
REMARK  status: ('A' for Active; 'I' for Inactive)
REMARK    1  A    between atoms: C_2  and  C_4
REMARK    2  A    between atoms: C_8  and  O_9
REMARK    3  A    between atoms: O_9  and  C_10
REMARK    4  A    between atoms: C_10  and  C_11
REMARK    5  A    between atoms: C_15  and  C_16
REMARK                            x       y       z     vdW  Elec       q    Type
REMARK                         _______ _______ _______ _____ _____    ______ ____
ROOT
ATOM      1  C   UNL     1      47.300   3.596  15.933  0.00  0.00    +0.000 C 
ENDROOT
BRANCH   1   2
ATOM      2  C   UNL     1      48.643   3.453  16.606  0.00  0.00    +0.000 A 
ATOM      3  C   UNL     1      49.259   2.200  16.692  0.00  0.00    +0.000 A 
ATOM      4  C   UNL     1      50.531   2.082  17.247  0.00  0.00    +0.000 A 
ATOM      5  C   UNL     1      51.200   3.213  17.716  0.00  0.00    +0.000 A 
ATOM      6  C   UNL     1      50.607   4.479  17.654  0.00  0.00    +0.000 A 
ATOM      7  C   UNL     1      49.312   4.578  17.112  0.00  0.00    +0.000 A 
BRANCH   6   8
ATOM      8  C   UNL     1      51.330   5.757  18.072  0.00  0.00    +0.000 C 
ATOM      9  C   UNL     1      50.887   6.950  17.204  0.00  0.00    +0.000 C 
ATOM     10  C   UNL     1      51.640   7.015  15.876  0.00  0.00    +0.000 C 
ATOM     11  C   UNL     1      53.152   6.933  16.078  0.00  0.00    +0.000 C 
ATOM     12  N   UNL     1      53.538   5.740  16.825  0.00  0.00    +0.000 NA
ATOM     13  C   UNL     1      52.873   5.677  18.132  0.00  0.00    +0.000 C 
ATOM     14  H   UNL     1      54.548   5.729  16.957  0.00  0.00    +0.000 HD
ENDBRANCH   6   8
ENDBRANCH   1   2
BRANCH   1  15
ATOM     15  O   UNL     1      47.370   3.117  14.591  0.00  0.00    +0.000 OA
BRANCH  15  20
ATOM     16  C   UNL     1      45.151   3.951  11.834  0.00  0.00    +0.000 A 
ATOM     17  C   UNL     1      45.420   5.308  11.627  0.00  0.00    +0.000 A 
ATOM     18  C   UNL     1      46.352   5.964  12.427  0.00  0.00    +0.000 A 
ATOM     19  C   UNL     1      47.027   5.266  13.433  0.00  0.00    +0.000 A 
ATOM     20  C   UNL     1      46.775   3.905  13.639  0.00  0.00    +0.000 A 
ATOM     21  C   UNL     1      45.843   3.250  12.829  0.00  0.00    +0.000 A 
BRANCH  16  23
ATOM     22  N   UNL     1      44.481   3.036   9.679  0.00  0.00    +0.000 N 
ATOM     23  C   UNL     1      44.132   3.297  10.974  0.00  0.00    +0.000 C 
ATOM     24  O   UNL     1      43.040   2.957  11.414  0.00  0.00    +0.000 OA
ATOM     25  H   UNL     1      43.825   2.488   9.137  0.00  0.00    +0.000 HD
ATOM     26  H   UNL     1      45.436   3.082   9.354  0.00  0.00    +0.000 HD
ENDBRANCH  16  23
ENDBRANCH  15  20
ENDBRANCH   1  15
TORSDOF 5
ENDMDL
MODEL 9
REMARK VINA RESULT:    -6.219      2.212      3.076
REMARK INTER + INTRA:          -8.868
REMARK INTER:                  -8.080
REMARK INTRA:                  -0.789
REMARK UNBOUND:                -0.831
REMARK  Name = 
REMARK  5 active torsions:
REMARK  status: ('A' for Active; 'I' for Inactive)
REMARK    1  A    between atoms: C_2  and  C_4
REMARK    2  A    between atoms: C_8  and  O_9
REMARK    3  A    between atoms: O_9  and  C_10
REMARK    4  A    between atoms: C_10  and  C_11
REMARK    5  A    between atoms: C_15  and  C_16
REMARK                            x       y       z     vdW  Elec       q    Type
REMARK                         _______ _______ _______ _____ _____    ______ ____
ROOT
ATOM      1  C   UNL     1      49.262   7.641  14.113  0.00  0.00    +0.000 C 
ENDROOT
BRANCH   1   2
ATOM      2  C   UNL     1      49.211   7.393  15.600  0.00  0.00    +0.000 A 
ATOM      3  C   UNL     1      49.589   8.397  16.497  0.00  0.00    +0.000 A 
ATOM      4  C   UNL     1      49.472   8.192  17.869  0.00  0.00    +0.000 A 
ATOM      5  C   UNL     1      48.972   6.983  18.358  0.00  0.00    +0.000 A 
ATOM      6  C   UNL     1      48.595   5.955  17.487  0.00  0.00    +0.000 A 
ATOM      7  C   UNL     1      48.742   6.170  16.104  0.00  0.00    +0.000 A 
BRANCH   6   8
ATOM      8  C   UNL     1      47.962   4.651  17.966  0.00  0.00    +0.000 C 
ATOM      9  C   UNL     1      49.023   3.715  18.576  0.00  0.00    +0.000 C 
ATOM     10  C   UNL     1      49.768   2.908  17.513  0.00  0.00    +0.000 C 
ATOM     11  C   UNL     1      48.805   2.203  16.561  0.00  0.00    +0.000 C 
ATOM     12  N   UNL     1      47.875   3.137  15.934  0.00  0.00    +0.000 NA
ATOM     13  C   UNL     1      47.103   3.889  16.930  0.00  0.00    +0.000 C 
ATOM     14  H   UNL     1      47.238   2.630  15.322  0.00  0.00    +0.000 HD
ENDBRANCH   6   8
ENDBRANCH   1   2
BRANCH   1  15
ATOM     15  O   UNL     1      48.834   6.478  13.405  0.00  0.00    +0.000 OA
BRANCH  15  20
ATOM     16  C   UNL     1      45.501   5.219  12.680  0.00  0.00    +0.000 A 
ATOM     17  C   UNL     1      44.894   6.310  12.049  0.00  0.00    +0.000 A 
ATOM     18  C   UNL     1      45.605   7.494  11.868  0.00  0.00    +0.000 A 
ATOM     19  C   UNL     1      46.928   7.593  12.310  0.00  0.00    +0.000 A 
ATOM     20  C   UNL     1      47.547   6.502  12.930  0.00  0.00    +0.000 A 
ATOM     21  C   UNL     1      46.832   5.314  13.103  0.00  0.00    +0.000 A 
BRANCH  16  23
ATOM     22  N   UNL     1      45.300   2.794  12.569  0.00  0.00    +0.000 N 
ATOM     23  C   UNL     1      44.700   3.984  12.874  0.00  0.00    +0.000 C 
ATOM     24  O   UNL     1      43.565   4.018  13.335  0.00  0.00    +0.000 OA
ATOM     25  H   UNL     1      44.789   1.956  12.814  0.00  0.00    +0.000 HD
ATOM     26  H   UNL     1      46.295   2.712  12.418  0.00  0.00    +0.000 HD
ENDBRANCH  16  23
ENDBRANCH  15  20
ENDBRANCH   1  15
TORSDOF 5
ENDMDL
