MODEL 1
REMARK VINA RESULT:    -8.001      0.000      0.000
REMARK INTER + INTRA:         -11.673
REMARK INTER:                 -10.808
REMARK INTRA:                  -0.865
REMARK UNBOUND:                -0.865
REMARK  Name = 
REMARK  9 active torsions:
REMARK  status: ('A' for Active; 'I' for Inactive)
REMARK    1  A    between atoms: C_1  and  C_2
REMARK    2  A    between atoms: C_5  and  C_6
REMARK    3  A    between atoms: C_10  and  C_11
REMARK    4  A    between atoms: C_11  and  C_12
REMARK    5  A    between atoms: C_12  and  C_13
REMARK    6  A    between atoms: C_12  and  O_14
REMARK    7  A    between atoms: O_14  and  C_15
REMARK    8  A    between atoms: C_18  and  C_19
REMARK    9  A    between atoms: C_23  and  C_24
REMARK                            x       y       z     vdW  Elec       q    Type
REMARK                         _______ _______ _______ _____ _____    ______ ____
ROOT
ATOM      1  C   UNL     1      44.235   5.036  11.065  0.00  0.00    +0.000 C 
ATOM      2  C   UNL     1      42.944   4.965  11.894  0.00  0.00    +0.000 C 
ENDROOT
BRANCH   1   3
ATOM      3  C   UNL     1      44.858   6.452  11.171  0.00  0.00    +0.000 C 
BRANCH   3   8
ATOM      4  C   UNL     1      47.587   5.936  13.810  0.00  0.00    +0.000 A 
ATOM      5  C   UNL     1      48.549   6.815  13.294  0.00  0.00    +0.000 A 
ATOM      6  C   UNL     1      48.280   7.496  12.122  0.00  0.00    +0.000 A 
ATOM      7  N   UNL     1      47.126   7.380  11.431  0.00  0.00    +0.000 NA
ATOM      8  C   UNL     1      46.195   6.516  11.896  0.00  0.00    +0.000 A 
ATOM      9  C   UNL     1      46.405   5.773  13.061  0.00  0.00    +0.000 A 
BRANCH   4  14
ATOM     10  C   UNL     1      48.454   3.189  18.723  0.00  0.00    +0.000 C 
ATOM     11  C   UNL     1      48.196   3.935  17.452  0.00  0.00    +0.000 A 
ATOM     12  C   UNL     1      48.982   5.013  17.059  0.00  0.00    +0.000 A 
ATOM     13  N   UNL     1      48.799   5.685  15.890  0.00  0.00    +0.000 NA
ATOM     14  C   UNL     1      47.778   5.257  15.107  0.00  0.00    +0.000 A 
ATOM     15  C   UNL     1      46.989   4.179  15.517  0.00  0.00    +0.000 A 
ATOM     16  N   UNL     1      47.174   3.505  16.681  0.00  0.00    +0.000 NA
ENDBRANCH   4  14
ENDBRANCH   3   8
ENDBRANCH   1   3
BRANCH   1  17
ATOM     17  O   UNL     1      43.852   4.701   9.704  0.00  0.00    +0.000 OA
BRANCH  17  18
ATOM     18  C   UNL     1      44.799   3.988   8.993  0.00  0.00    +0.000 A 
ATOM     19  N   UNL     1      45.567   4.676   8.120  0.00  0.00    +0.000 NA
ATOM     20  C   UNL     1      46.470   3.980   7.390  0.00  0.00    +0.000 A 
ATOM     21  C   UNL     1      46.667   2.610   7.499  0.00  0.00    +0.000 A 
ATOM     22  C   UNL     1      45.857   1.922   8.400  0.00  0.00    +0.000 A 
ATOM     23  C   UNL     1      44.876   2.599   9.143  0.00  0.00    +0.000 A 
ATOM     24  C   UNL     1      44.010   1.802  10.071  0.00  0.00    +0.000 C 
BRANCH  21  25
ATOM     25  C   UNL     1      47.659   1.849   6.699  0.00  0.00    +0.000 C 
ATOM     26  N   UNL     1      48.821   2.462   6.320  0.00  0.00    +0.000 N 
ATOM     27  O   UNL     1      47.448   0.691   6.369  0.00  0.00    +0.000 OA
ATOM     28  H   UNL     1      49.062   3.428   6.479  0.00  0.00    +0.000 HD
ATOM     29  H   UNL     1      49.446   1.914   5.746  0.00  0.00    +0.000 HD
ENDBRANCH  21  25
ENDBRANCH  17  18
ENDBRANCH   1  17
TORSDOF 6
ENDMDL
MODEL 2
REMARK VINA RESULT:    -7.432      2.721      8.101
REMARK INTER + INTRA:         -10.904
REMARK INTER:                 -10.167
REMARK INTRA:                  -0.737
REMARK UNBOUND:                -0.865
REMARK  Name = 
REMARK  9 active torsions:
REMARK  status: ('A' for Active; 'I' for Inactive)
REMARK    1  A    between atoms: C_1  and  C_2
REMARK    2  A    between atoms: C_5  and  C_6
REMARK    3  A    between atoms: C_10  and  C_11
REMARK    4  A    between atoms: C_11  and  C_12
REMARK    5  A    between atoms: C_12  and  C_13
REMARK    6  A    between atoms: C_12  and  O_14
REMARK    7  A    between atoms: O_14  and  C_15
REMARK    8  A    between atoms: C_18  and  C_19
REMARK    9  A    between atoms: C_23  and  C_24
REMARK                            x       y       z     vdW  Elec       q    Type
REMARK                         _______ _______ _______ _____ _____    ______ ____
ROOT
ATOM      1  C   UNL     1      47.637   7.043  12.524  0.00  0.00    +0.000 C 
ATOM      2  C   UNL     1      48.517   7.829  11.542  0.00  0.00    +0.000 C 
ENDROOT
BRANCH   1   3
ATOM      3  C   UNL     1      46.148   7.428  12.330  0.00  0.00    +0.000 C 
BRANCH   3   8
ATOM      4  C   UNL     1      45.099   4.627   9.937  0.00  0.00    +0.000 A 
ATOM      5  C   UNL     1      43.716   4.667  10.156  0.00  0.00    +0.000 A 
ATOM      6  C   UNL     1      43.205   5.565  11.074  0.00  0.00    +0.000 A 
ATOM      7  N   UNL     1      43.961   6.433  11.781  0.00  0.00    +0.000 NA
ATOM      8  C   UNL     1      45.302   6.391  11.605  0.00  0.00    +0.000 A 
ATOM      9  C   UNL     1      45.894   5.493  10.712  0.00  0.00    +0.000 A 
BRANCH   4  14
ATOM     10  C   UNL     1      47.206   1.281   5.837  0.00  0.00    +0.000 C 
ATOM     11  C   UNL     1      46.690   2.156   6.936  0.00  0.00    +0.000 A 
ATOM     12  C   UNL     1      46.745   3.543   6.859  0.00  0.00    +0.000 A 
ATOM     13  N   UNL     1      46.246   4.366   7.821  0.00  0.00    +0.000 NA
ATOM     14  C   UNL     1      45.691   3.758   8.899  0.00  0.00    +0.000 A 
ATOM     15  C   UNL     1      45.651   2.363   8.970  0.00  0.00    +0.000 A 
ATOM     16  N   UNL     1      46.143   1.542   8.008  0.00  0.00    +0.000 NA
ENDBRANCH   4  14
ENDBRANCH   3   8
ENDBRANCH   1   3
BRANCH   1  17
ATOM     17  O   UNL     1      48.126   7.376  13.851  0.00  0.00    +0.000 OA
BRANCH  17  18
ATOM     18  C   UNL     1      48.059   6.347  14.771  0.00  0.00    +0.000 A 
ATOM     19  N   UNL     1      47.468   5.199  14.375  0.00  0.00    +0.000 NA
ATOM     20  C   UNL     1      47.362   4.199  15.281  0.00  0.00    +0.000 A 
ATOM     21  C   UNL     1      47.840   4.276  16.582  0.00  0.00    +0.000 A 
ATOM     22  C   UNL     1      48.437   5.473  16.969  0.00  0.00    +0.000 A 
ATOM     23  C   UNL     1      48.527   6.552  16.074  0.00  0.00    +0.000 A 
ATOM     24  C   UNL     1      49.148   7.827  16.556  0.00  0.00    +0.000 C 
BRANCH  21  25
ATOM     25  C   UNL     1      47.724   3.177  17.573  0.00  0.00    +0.000 C 
ATOM     26  N   UNL     1      48.805   2.863  18.349  0.00  0.00    +0.000 N 
ATOM     27  O   UNL     1      46.683   2.548  17.698  0.00  0.00    +0.000 OA
ATOM     28  H   UNL     1      49.724   3.269  18.279  0.00  0.00    +0.000 HD
ATOM     29  H   UNL     1      48.687   2.083  18.981  0.00  0.00    +0.000 HD
ENDBRANCH  21  25
ENDBRANCH  17  18
ENDBRANCH   1  17
TORSDOF 6
ENDMDL
MODEL 3
REMARK VINA RESULT:    -7.384      3.361      7.328
REMARK INTER + INTRA:         -10.839
REMARK INTER:                  -9.661
REMARK INTRA:                  -1.179
REMARK UNBOUND:                -0.865
REMARK  Name = 
REMARK  9 active torsions:
REMARK  status: ('A' for Active; 'I' for Inactive)
REMARK    1  A    between atoms: C_1  and  C_2
REMARK    2  A    between atoms: C_5  and  C_6
REMARK    3  A    between atoms: C_10  and  C_11
REMARK    4  A    between atoms: C_11  and  C_12
REMARK    5  A    between atoms: C_12  and  C_13
REMARK    6  A    between atoms: C_12  and  O_14
REMARK    7  A    between atoms: O_14  and  C_15
REMARK    8  A    between atoms: C_18  and  C_19
REMARK    9  A    between atoms: C_23  and  C_24
REMARK                            x       y       z     vdW  Elec       q    Type
REMARK                         _______ _______ _______ _____ _____    ______ ____
ROOT
ATOM      1  C   UNL     1      44.475   7.658  11.333  0.00  0.00    +0.000 C 
ATOM      2  C   UNL     1      43.976   9.078  11.027  0.00  0.00    +0.000 C 
ENDROOT
BRANCH   1   3
ATOM      3  C   UNL     1      43.277   6.677  11.397  0.00  0.00    +0.000 C 
BRANCH   3   8
ATOM      4  C   UNL     1      44.674   3.421   9.939  0.00  0.00    +0.000 A 
ATOM      5  C   UNL     1      44.097   2.519  10.842  0.00  0.00    +0.000 A 
ATOM      6  C   UNL     1      43.321   3.006  11.877  0.00  0.00    +0.000 A 
ATOM      7  N   UNL     1      43.066   4.317  12.076  0.00  0.00    +0.000 NA
ATOM      8  C   UNL     1      43.637   5.207  11.232  0.00  0.00    +0.000 A 
ATOM      9  C   UNL     1      44.454   4.792  10.176  0.00  0.00    +0.000 A 
BRANCH   4  14
ATOM     10  C   UNL     1      47.764   1.673   5.485  0.00  0.00    +0.000 C 
ATOM     11  C   UNL     1      46.916   2.124   6.632  0.00  0.00    +0.000 A 
ATOM     12  C   UNL     1      46.578   1.272   7.678  0.00  0.00    +0.000 A 
ATOM     13  N   UNL     1      45.845   1.664   8.755  0.00  0.00    +0.000 NA
ATOM     14  C   UNL     1      45.431   2.956   8.759  0.00  0.00    +0.000 A 
ATOM     15  C   UNL     1      45.768   3.800   7.698  0.00  0.00    +0.000 A 
ATOM     16  N   UNL     1      46.504   3.411   6.626  0.00  0.00    +0.000 NA
ENDBRANCH   4  14
ENDBRANCH   3   8
ENDBRANCH   1   3
BRANCH   1  17
ATOM     17  O   UNL     1      45.185   7.749  12.597  0.00  0.00    +0.000 OA
BRANCH  17  18
ATOM     18  C   UNL     1      46.562   7.801  12.488  0.00  0.00    +0.000 A 
ATOM     19  N   UNL     1      47.110   8.975  12.108  0.00  0.00    +0.000 NA
ATOM     20  C   UNL     1      48.455   9.024  11.960  0.00  0.00    +0.000 A 
ATOM     21  C   UNL     1      49.302   7.949  12.194  0.00  0.00    +0.000 A 
ATOM     22  C   UNL     1      48.711   6.747  12.576  0.00  0.00    +0.000 A 
ATOM     23  C   UNL     1      47.316   6.641  12.697  0.00  0.00    +0.000 A 
ATOM     24  C   UNL     1      46.733   5.314  13.078  0.00  0.00    +0.000 C 
BRANCH  21  25
ATOM     25  C   UNL     1      50.776   8.006  12.033  0.00  0.00    +0.000 C 
ATOM     26  N   UNL     1      51.372   7.237  11.072  0.00  0.00    +0.000 N 
ATOM     27  O   UNL     1      51.462   8.720  12.750  0.00  0.00    +0.000 OA
ATOM     28  H   UNL     1      50.911   6.567  10.477  0.00  0.00    +0.000 HD
ATOM     29  H   UNL     1      52.381   7.283  11.028  0.00  0.00    +0.000 HD
ENDBRANCH  21  25
ENDBRANCH  17  18
ENDBRANCH   1  17
TORSDOF 6
ENDMDL
MODEL 4
REMARK VINA RESULT:    -6.944      3.731      6.194
REMARK INTER + INTRA:         -10.245
REMARK INTER:                  -9.086
REMARK INTRA:                  -1.158
REMARK UNBOUND:                -0.865
REMARK  Name = 
REMARK  9 active torsions:
REMARK  status: ('A' for Active; 'I' for Inactive)
REMARK    1  A    between atoms: C_1  and  C_2
REMARK    2  A    between atoms: C_5  and  C_6
REMARK    3  A    between atoms: C_10  and  C_11
REMARK    4  A    between atoms: C_11  and  C_12
REMARK    5  A    between atoms: C_12  and  C_13
REMARK    6  A    between atoms: C_12  and  O_14
REMARK    7  A    between atoms: O_14  and  C_15
REMARK    8  A    between atoms: C_18  and  C_19
REMARK    9  A    between atoms: C_23  and  C_24
REMARK                            x       y       z     vdW  Elec       q    Type
REMARK                         _______ _______ _______ _____ _____    ______ ____
ROOT
ATOM      1  C   UNL     1      48.673   7.205  14.950  0.00  0.00    +0.000 C 
ATOM      2  C   UNL     1      50.117   7.580  14.588  0.00  0.00    +0.000 C 
ENDROOT
BRANCH   1   3
ATOM      3  C   UNL     1      48.540   7.022  16.484  0.00  0.00    +0.000 C 
BRANCH   3   8
ATOM      4  C   UNL     1      49.800   3.548  17.496  0.00  0.00    +0.000 A 
ATOM      5  C   UNL     1      48.563   2.906  17.636  0.00  0.00    +0.000 A 
ATOM      6  C   UNL     1      47.402   3.626  17.426  0.00  0.00    +0.000 A 
ATOM      7  N   UNL     1      47.377   4.931  17.078  0.00  0.00    +0.000 NA
ATOM      8  C   UNL     1      48.560   5.578  16.966  0.00  0.00    +0.000 A 
ATOM      9  C   UNL     1      49.775   4.923  17.186  0.00  0.00    +0.000 A 
BRANCH   4  14
ATOM     10  C   UNL     1      54.655   0.639  18.130  0.00  0.00    +0.000 C 
ATOM     11  C   UNL     1      53.393   1.416  17.924  0.00  0.00    +0.000 A 
ATOM     12  C   UNL     1      52.229   0.818  17.453  0.00  0.00    +0.000 A 
ATOM     13  N   UNL     1      51.055   1.489  17.296  0.00  0.00    +0.000 NA
ATOM     14  C   UNL     1      51.072   2.808  17.611  0.00  0.00    +0.000 A 
ATOM     15  C   UNL     1      52.251   3.399  18.074  0.00  0.00    +0.000 A 
ATOM     16  N   UNL     1      53.420   2.730  18.237  0.00  0.00    +0.000 NA
ENDBRANCH   4  14
ENDBRANCH   3   8
ENDBRANCH   1   3
BRANCH   1  17
ATOM     17  O   UNL     1      48.383   5.983  14.219  0.00  0.00    +0.000 OA
BRANCH  17  18
ATOM     18  C   UNL     1      47.202   6.001  13.501  0.00  0.00    +0.000 A 
ATOM     19  N   UNL     1      46.747   7.203  13.087  0.00  0.00    +0.000 NA
ATOM     20  C   UNL     1      45.571   7.235  12.418  0.00  0.00    +0.000 A 
ATOM     21  C   UNL     1      44.817   6.108  12.116  0.00  0.00    +0.000 A 
ATOM     22  C   UNL     1      45.304   4.881  12.562  0.00  0.00    +0.000 A 
ATOM     23  C   UNL     1      46.497   4.809  13.300  0.00  0.00    +0.000 A 
ATOM     24  C   UNL     1      46.955   3.467  13.784  0.00  0.00    +0.000 C 
BRANCH  21  25
ATOM     25  C   UNL     1      43.529   6.145  11.381  0.00  0.00    +0.000 C 
ATOM     26  N   UNL     1      42.902   7.346  11.194  0.00  0.00    +0.000 N 
ATOM     27  O   UNL     1      43.020   5.121  10.949  0.00  0.00    +0.000 OA
ATOM     28  H   UNL     1      43.198   8.234  11.566  0.00  0.00    +0.000 HD
ATOM     29  H   UNL     1      42.010   7.312  10.721  0.00  0.00    +0.000 HD
ENDBRANCH  21  25
ENDBRANCH  17  18
ENDBRANCH   1  17
TORSDOF 6
ENDMDL
MODEL 5
REMARK VINA RESULT:    -6.910      3.258      7.955
REMARK INTER + INTRA:         -10.199
REMARK INTER:                  -9.147
REMARK INTRA:                  -1.052
REMARK UNBOUND:                -0.865
REMARK  Name = 
REMARK  9 active torsions:
REMARK  status: ('A' for Active; 'I' for Inactive)
REMARK    1  A    between atoms: C_1  and  C_2
REMARK    2  A    between atoms: C_5  and  C_6
REMARK    3  A    between atoms: C_10  and  C_11
REMARK    4  A    between atoms: C_11  and  C_12
REMARK    5  A    between atoms: C_12  and  C_13
REMARK    6  A    between atoms: C_12  and  O_14
REMARK    7  A    between atoms: O_14  and  C_15
REMARK    8  A    between atoms: C_18  and  C_19
REMARK    9  A    between atoms: C_23  and  C_24
REMARK                            x       y       z     vdW  Elec       q    Type
REMARK                         _______ _______ _______ _____ _____    ______ ____
ROOT
ATOM      1  C   UNL     1      49.754   7.790  13.572  0.00  0.00    +0.000 C 
ATOM      2  C   UNL     1      51.178   8.339  13.746  0.00  0.00    +0.000 C 
ENDROOT
BRANCH   1   3
ATOM      3  C   UNL     1      49.065   8.472  12.362  0.00  0.00    +0.000 C 
BRANCH   3   8
ATOM      4  C   UNL     1      45.882   6.587  11.367  0.00  0.00    +0.000 A 
ATOM      5  C   UNL     1      44.945   7.591  11.645  0.00  0.00    +0.000 A 
ATOM      6  C   UNL     1      45.382   8.797  12.159  0.00  0.00    +0.000 A 
ATOM      7  N   UNL     1      46.678   9.085  12.407  0.00  0.00    +0.000 NA
ATOM      8  C   UNL     1      47.597   8.120  12.173  0.00  0.00    +0.000 A 
ATOM      9  C   UNL     1      47.228   6.866  11.676  0.00  0.00    +0.000 A 
BRANCH   4  14
ATOM     10  C   UNL     1      44.542   1.617   8.929  0.00  0.00    +0.000 C 
ATOM     11  C   UNL     1      44.854   2.937   9.559  0.00  0.00    +0.000 A 
ATOM     12  C   UNL     1      44.706   3.155  10.925  0.00  0.00    +0.000 A 
ATOM     13  N   UNL     1      45.021   4.331  11.534  0.00  0.00    +0.000 NA
ATOM     14  C   UNL     1      45.486   5.317  10.726  0.00  0.00    +0.000 A 
ATOM     15  C   UNL     1      45.621   5.090   9.354  0.00  0.00    +0.000 A 
ATOM     16  N   UNL     1      45.312   3.916   8.747  0.00  0.00    +0.000 NA
ENDBRANCH   4  14
ENDBRANCH   3   8
ENDBRANCH   1   3
BRANCH   1  17
ATOM     17  O   UNL     1      49.068   8.060  14.825  0.00  0.00    +0.000 OA
BRANCH  17  18
ATOM     18  C   UNL     1      48.735   6.937  15.559  0.00  0.00    +0.000 A 
ATOM     19  N   UNL     1      48.126   5.925  14.903  0.00  0.00    +0.000 NA
ATOM     20  C   UNL     1      47.761   4.838  15.622  0.00  0.00    +0.000 A 
ATOM     21  C   UNL     1      47.992   4.693  16.983  0.00  0.00    +0.000 A 
ATOM     22  C   UNL     1      48.614   5.754  17.638  0.00  0.00    +0.000 A 
ATOM     23  C   UNL     1      48.968   6.919  16.939  0.00  0.00    +0.000 A 
ATOM     24  C   UNL     1      49.602   8.042  17.701  0.00  0.00    +0.000 C 
BRANCH  21  25
ATOM     25  C   UNL     1      47.592   3.499  17.768  0.00  0.00    +0.000 C 
ATOM     26  N   UNL     1      48.333   3.140  18.860  0.00  0.00    +0.000 N 
ATOM     27  O   UNL     1      46.620   2.830  17.449  0.00  0.00    +0.000 OA
ATOM     28  H   UNL     1      49.187   3.579  19.168  0.00  0.00    +0.000 HD
ATOM     29  H   UNL     1      48.042   2.299  19.338  0.00  0.00    +0.000 HD
ENDBRANCH  21  25
ENDBRANCH  17  18
ENDBRANCH   1  17
TORSDOF 6
ENDMDL
MODEL 6
REMARK VINA RESULT:    -6.872      2.861      7.963
REMARK INTER + INTRA:         -10.147
REMARK INTER:                  -9.079
REMARK INTRA:                  -1.068
REMARK UNBOUND:                -0.865
REMARK  Name = 
REMARK  9 active torsions:
REMARK  status: ('A' for Active; 'I' for Inactive)
REMARK    1  A    between atoms: C_1  and  C_2
REMARK    2  A    between atoms: C_5  and  C_6
REMARK    3  A    between atoms: C_10  and  C_11
REMARK    4  A    between atoms: C_11  and  C_12
REMARK    5  A    between atoms: C_12  and  C_13
REMARK    6  A    between atoms: C_12  and  O_14
REMARK    7  A    between atoms: O_14  and  C_15
REMARK    8  A    between atoms: C_18  and  C_19
REMARK    9  A    between atoms: C_23  and  C_24
REMARK                            x       y       z     vdW  Elec       q    Type
REMARK                         _______ _______ _______ _____ _____    ______ ____
ROOT
ATOM      1  C   UNL     1      46.369   5.273  13.876  0.00  0.00    +0.000 C 
ATOM      2  C   UNL     1      47.345   4.951  15.018  0.00  0.00    +0.000 C 
ENDROOT
BRANCH   1   3
ATOM      3  C   UNL     1      45.638   3.984  13.422  0.00  0.00    +0.000 C 
BRANCH   3   8
ATOM      4  C   UNL     1      45.053   3.627   9.653  0.00  0.00    +0.000 A 
ATOM      5  C   UNL     1      43.888   4.397   9.545  0.00  0.00    +0.000 A 
ATOM      6  C   UNL     1      43.344   4.959  10.685  0.00  0.00    +0.000 A 
ATOM      7  N   UNL     1      43.875   4.825  11.919  0.00  0.00    +0.000 NA
ATOM      8  C   UNL     1      44.985   4.062  12.050  0.00  0.00    +0.000 A 
ATOM      9  C   UNL     1      45.578   3.441  10.947  0.00  0.00    +0.000 A 
BRANCH   4  14
ATOM     10  C   UNL     1      47.493   1.491   4.971  0.00  0.00    +0.000 C 
ATOM     11  C   UNL     1      46.892   2.058   6.218  0.00  0.00    +0.000 A 
ATOM     12  C   UNL     1      46.533   3.397   6.319  0.00  0.00    +0.000 A 
ATOM     13  N   UNL     1      45.945   3.933   7.424  0.00  0.00    +0.000 NA
ATOM     14  C   UNL     1      45.733   3.084   8.460  0.00  0.00    +0.000 A 
ATOM     15  C   UNL     1      46.107   1.742   8.351  0.00  0.00    +0.000 A 
ATOM     16  N   UNL     1      46.688   1.206   7.247  0.00  0.00    +0.000 NA
ENDBRANCH   4  14
ENDBRANCH   3   8
ENDBRANCH   1   3
BRANCH   1  17
ATOM     17  O   UNL     1      47.175   5.856  12.816  0.00  0.00    +0.000 OA
BRANCH  17  18
ATOM     18  C   UNL     1      46.934   7.194  12.571  0.00  0.00    +0.000 A 
ATOM     19  N   UNL     1      45.663   7.630  12.706  0.00  0.00    +0.000 NA
ATOM     20  C   UNL     1      45.409   8.931  12.429  0.00  0.00    +0.000 A 
ATOM     21  C   UNL     1      46.378   9.844  12.036  0.00  0.00    +0.000 A 
ATOM     22  C   UNL     1      47.680   9.368  11.896  0.00  0.00    +0.000 A 
ATOM     23  C   UNL     1      47.977   8.015  12.129  0.00  0.00    +0.000 A 
ATOM     24  C   UNL     1      49.388   7.552  11.929  0.00  0.00    +0.000 C 
BRANCH  21  25
ATOM     25  C   UNL     1      46.098  11.270  11.735  0.00  0.00    +0.000 C 
ATOM     26  N   UNL     1      47.073  12.033  11.154  0.00  0.00    +0.000 N 
ATOM     27  O   UNL     1      45.017  11.771  12.007  0.00  0.00    +0.000 OA
ATOM     28  H   UNL     1      48.016  11.739  10.953  0.00  0.00    +0.000 HD
ATOM     29  H   UNL     1      46.846  13.006  11.005  0.00  0.00    +0.000 HD
ENDBRANCH  21  25
ENDBRANCH  17  18
ENDBRANCH   1  17
TORSDOF 6
ENDMDL
MODEL 7
REMARK VINA RESULT:    -6.684      3.835      7.050
REMARK INTER + INTRA:          -9.894
REMARK INTER:                  -8.907
REMARK INTRA:                  -0.987
REMARK UNBOUND:                -0.865
REMARK  Name = 
REMARK  9 active torsions:
REMARK  status: ('A' for Active; 'I' for Inactive)
REMARK    1  A    between atoms: C_1  and  C_2
REMARK    2  A    between atoms: C_5  and  C_6
REMARK    3  A    between atoms: C_10  and  C_11
REMARK    4  A    between atoms: C_11  and  C_12
REMARK    5  A    between atoms: C_12  and  C_13
REMARK    6  A    between atoms: C_12  and  O_14
REMARK    7  A    between atoms: O_14  and  C_15
REMARK    8  A    between atoms: C_18  and  C_19
REMARK    9  A    between atoms: C_23  and  C_24
REMARK                            x       y       z     vdW  Elec       q    Type
REMARK                         _______ _______ _______ _____ _____    ______ ____
ROOT
ATOM      1  C   UNL     1      48.289   7.873  12.145  0.00  0.00    +0.000 C 
ATOM      2  C   UNL     1      49.721   7.425  11.819  0.00  0.00    +0.000 C 
ENDROOT
BRANCH   1   3
ATOM      3  C   UNL     1      48.299   9.318  12.708  0.00  0.00    +0.000 C 
BRANCH   3   8
ATOM      4  C   UNL     1      45.226  11.058  11.223  0.00  0.00    +0.000 A 
ATOM      5  C   UNL     1      45.883  11.990  10.408  0.00  0.00    +0.000 A 
ATOM      6  C   UNL     1      47.264  12.026  10.404  0.00  0.00    +0.000 A 
ATOM      7  N   UNL     1      48.042  11.199  11.137  0.00  0.00    +0.000 NA
ATOM      8  C   UNL     1      47.428  10.311  11.952  0.00  0.00    +0.000 A 
ATOM      9  C   UNL     1      46.034  10.232  12.028  0.00  0.00    +0.000 A 
BRANCH   4  14
ATOM     10  C   UNL     1      39.569  10.396  11.301  0.00  0.00    +0.000 C 
ATOM     11  C   UNL     1      41.052  10.585  11.240  0.00  0.00    +0.000 A 
ATOM     12  C   UNL     1      41.670  11.729  11.733  0.00  0.00    +0.000 A 
ATOM     13  N   UNL     1      43.018  11.912  11.730  0.00  0.00    +0.000 NA
ATOM     14  C   UNL     1      43.757  10.908  11.195  0.00  0.00    +0.000 A 
ATOM     15  C   UNL     1      43.125   9.767  10.693  0.00  0.00    +0.000 A 
ATOM     16  N   UNL     1      41.780   9.582  10.701  0.00  0.00    +0.000 NA
ENDBRANCH   4  14
ENDBRANCH   3   8
ENDBRANCH   1   3
BRANCH   1  17
ATOM     17  O   UNL     1      47.778   6.909  13.104  0.00  0.00    +0.000 OA
BRANCH  17  18
ATOM     18  C   UNL     1      46.869   6.003  12.590  0.00  0.00    +0.000 A 
ATOM     19  N   UNL     1      46.338   6.277  11.379  0.00  0.00    +0.000 NA
ATOM     20  C   UNL     1      45.418   5.416  10.885  0.00  0.00    +0.000 A 
ATOM     21  C   UNL     1      45.003   4.263  11.538  0.00  0.00    +0.000 A 
ATOM     22  C   UNL     1      45.559   4.007  12.789  0.00  0.00    +0.000 A 
ATOM     23  C   UNL     1      46.484   4.899  13.358  0.00  0.00    +0.000 A 
ATOM     24  C   UNL     1      47.022   4.591  14.722  0.00  0.00    +0.000 C 
BRANCH  21  25
ATOM     25  C   UNL     1      43.995   3.320  10.993  0.00  0.00    +0.000 C 
ATOM     26  N   UNL     1      44.401   2.326  10.146  0.00  0.00    +0.000 N 
ATOM     27  O   UNL     1      42.812   3.425  11.283  0.00  0.00    +0.000 OA
ATOM     28  H   UNL     1      45.334   2.194   9.791  0.00  0.00    +0.000 HD
ATOM     29  H   UNL     1      43.671   1.734   9.774  0.00  0.00    +0.000 HD
ENDBRANCH  21  25
ENDBRANCH  17  18
ENDBRANCH   1  17
TORSDOF 6
ENDMDL
MODEL 8
REMARK VINA RESULT:    -6.504      4.108      7.970
REMARK INTER + INTRA:          -9.651
REMARK INTER:                  -8.700
REMARK INTRA:                  -0.951
REMARK UNBOUND:                -0.865
REMARK  Name = 
REMARK  9 active torsions:
REMARK  status: ('A' for Active; 'I' for Inactive)
REMARK    1  A    between atoms: C_1  and  C_2
REMARK    2  A    between atoms: C_5  and  C_6
REMARK    3  A    between atoms: C_10  and  C_11
REMARK    4  A    between atoms: C_11  and  C_12
REMARK    5  A    between atoms: C_12  and  C_13
REMARK    6  A    between atoms: C_12  and  O_14
REMARK    7  A    between atoms: O_14  and  C_15
REMARK    8  A    between atoms: C_18  and  C_19
REMARK    9  A    between atoms: C_23  and  C_24
REMARK                            x       y       z     vdW  Elec       q    Type
REMARK                         _______ _______ _______ _____ _____    ______ ____
ROOT
ATOM      1  C   UNL     1      49.565   7.123  16.957  0.00  0.00    +0.000 C 
ATOM      2  C   UNL     1      48.569   8.283  17.102  0.00  0.00    +0.000 C 
ENDROOT
BRANCH   1   3
ATOM      3  C   UNL     1      50.116   7.072  15.509  0.00  0.00    +0.000 C 
BRANCH   3   8
ATOM      4  C   UNL     1      47.251   6.729  12.989  0.00  0.00    +0.000 A 
ATOM      5  C   UNL     1      47.419   7.943  12.310  0.00  0.00    +0.000 A 
ATOM      6  C   UNL     1      48.417   8.810  12.716  0.00  0.00    +0.000 A 
ATOM      7  N   UNL     1      49.266   8.557  13.735  0.00  0.00    +0.000 NA
ATOM      8  C   UNL     1      49.103   7.403  14.422  0.00  0.00    +0.000 A 
ATOM      9  C   UNL     1      48.101   6.488  14.086  0.00  0.00    +0.000 A 
BRANCH   4  14
ATOM     10  C   UNL     1      43.596   2.782  11.118  0.00  0.00    +0.000 C 
ATOM     11  C   UNL     1      44.525   3.834  11.637  0.00  0.00    +0.000 A 
ATOM     12  C   UNL     1      45.446   3.570  12.645  0.00  0.00    +0.000 A 
ATOM     13  N   UNL     1      46.333   4.493  13.108  0.00  0.00    +0.000 NA
ATOM     14  C   UNL     1      46.268   5.723  12.540  0.00  0.00    +0.000 A 
ATOM     15  C   UNL     1      45.332   5.979  11.534  0.00  0.00    +0.000 A 
ATOM     16  N   UNL     1      44.452   5.057  11.068  0.00  0.00    +0.000 NA
ENDBRANCH   4  14
ENDBRANCH   3   8
ENDBRANCH   1   3
BRANCH   1  17
ATOM     17  O   UNL     1      48.831   5.921  17.313  0.00  0.00    +0.000 OA
BRANCH  17  18
ATOM     18  C   UNL     1      49.602   4.779  17.424  0.00  0.00    +0.000 A 
ATOM     19  N   UNL     1      50.877   4.931  17.843  0.00  0.00    +0.000 NA
ATOM     20  C   UNL     1      51.652   3.824  17.917  0.00  0.00    +0.000 A 
ATOM     21  C   UNL     1      51.211   2.544  17.607  0.00  0.00    +0.000 A 
ATOM     22  C   UNL     1      49.895   2.415  17.169  0.00  0.00    +0.000 A 
ATOM     23  C   UNL     1      49.071   3.545  17.035  0.00  0.00    +0.000 A 
ATOM     24  C   UNL     1      47.675   3.351  16.526  0.00  0.00    +0.000 C 
BRANCH  21  25
ATOM     25  C   UNL     1      52.062   1.332  17.691  0.00  0.00    +0.000 C 
ATOM     26  N   UNL     1      51.517   0.165  18.150  0.00  0.00    +0.000 N 
ATOM     27  O   UNL     1      53.240   1.364  17.365  0.00  0.00    +0.000 OA
ATOM     28  H   UNL     1      50.582   0.046  18.506  0.00  0.00    +0.000 HD
ATOM     29  H   UNL     1      52.147  -0.622  18.223  0.00  0.00    +0.000 HD
ENDBRANCH  21  25
ENDBRANCH  17  18
ENDBRANCH   1  17
TORSDOF 6
ENDMDL
MODEL 9
REMARK VINA RESULT:    -6.499      3.952      8.119
REMARK INTER + INTRA:          -9.643
REMARK INTER:                  -8.252
REMARK INTRA:                  -1.391
REMARK UNBOUND:                -0.865
REMARK  Name = 
REMARK  9 active torsions:
REMARK  status: ('A' for Active; 'I' for Inactive)
REMARK    1  A    between atoms: C_1  and  C_2
REMARK    2  A    between atoms: C_5  and  C_6
REMARK    3  A    between atoms: C_10  and  C_11
REMARK    4  A    between atoms: C_11  and  C_12
REMARK    5  A    between atoms: C_12  and  C_13
REMARK    6  A    between atoms: C_12  and  O_14
REMARK    7  A    between atoms: O_14  and  C_15
REMARK    8  A    between atoms: C_18  and  C_19
REMARK    9  A    between atoms: C_23  and  C_24
REMARK                            x       y       z     vdW  Elec       q    Type
REMARK                         _______ _______ _______ _____ _____    ______ ____
ROOT
ATOM      1  C   UNL     1      50.186   8.316  17.747  0.00  0.00    +0.000 C 
ATOM      2  C   UNL     1      50.709   9.538  18.516  0.00  0.00    +0.000 C 
ENDROOT
BRANCH   1   3
ATOM      3  C   UNL     1      48.978   8.721  16.864  0.00  0.00    +0.000 C 
BRANCH   3   8
ATOM      4  C   UNL     1      48.123   6.792  13.667  0.00  0.00    +0.000 A 
ATOM      5  C   UNL     1      49.247   7.135  12.905  0.00  0.00    +0.000 A 
ATOM      6  C   UNL     1      50.195   7.982  13.447  0.00  0.00    +0.000 A 
ATOM      7  N   UNL     1      50.117   8.505  14.690  0.00  0.00    +0.000 NA
ATOM      8  C   UNL     1      49.025   8.210  15.431  0.00  0.00    +0.000 A 
ATOM      9  C   UNL     1      48.012   7.379  14.943  0.00  0.00    +0.000 A 
BRANCH   4  14
ATOM     10  C   UNL     1      44.140   3.136  11.875  0.00  0.00    +0.000 C 
ATOM     11  C   UNL     1      45.216   4.070  12.329  0.00  0.00    +0.000 A 
ATOM     12  C   UNL     1      45.584   5.186  11.585  0.00  0.00    +0.000 A 
ATOM     13  N   UNL     1      46.529   6.078  11.990  0.00  0.00    +0.000 NA
ATOM     14  C   UNL     1      47.128   5.816  13.179  0.00  0.00    +0.000 A 
ATOM     15  C   UNL     1      46.757   4.686  13.913  0.00  0.00    +0.000 A 
ATOM     16  N   UNL     1      45.810   3.800  13.512  0.00  0.00    +0.000 NA
ENDBRANCH   4  14
ENDBRANCH   3   8
ENDBRANCH   1   3
BRANCH   1  17
ATOM     17  O   UNL     1      49.831   7.333  18.756  0.00  0.00    +0.000 OA
BRANCH  17  18
ATOM     18  C   UNL     1      49.942   6.017  18.350  0.00  0.00    +0.000 A 
ATOM     19  N   UNL     1      51.170   5.577  17.998  0.00  0.00    +0.000 NA
ATOM     20  C   UNL     1      51.281   4.301  17.562  0.00  0.00    +0.000 A 
ATOM     21  C   UNL     1      50.217   3.415  17.472  0.00  0.00    +0.000 A 
ATOM     22  C   UNL     1      48.959   3.894  17.832  0.00  0.00    +0.000 A 
ATOM     23  C   UNL     1      48.792   5.226  18.247  0.00  0.00    +0.000 A 
ATOM     24  C   UNL     1      47.411   5.697  18.588  0.00  0.00    +0.000 C 
BRANCH  21  25
ATOM     25  C   UNL     1      50.342   2.015  16.995  0.00  0.00    +0.000 C 
ATOM     26  N   UNL     1      51.146   1.146  17.679  0.00  0.00    +0.000 N 
ATOM     27  O   UNL     1      49.746   1.633  15.997  0.00  0.00    +0.000 OA
ATOM     28  H   UNL     1      51.731   1.375  18.468  0.00  0.00    +0.000 HD
ATOM     29  H   UNL     1      51.227   0.216  17.292  0.00  0.00    +0.000 HD
ENDBRANCH  21  25
ENDBRANCH  17  18
ENDBRANCH   1  17
TORSDOF 6
ENDMDL
