MODEL 1
REMARK VINA RESULT:    -8.471      0.000      0.000
REMARK INTER + INTRA:         -12.788
REMARK INTER:                 -11.442
REMARK INTRA:                  -1.346
REMARK UNBOUND:                -1.346
REMARK  Name = 
REMARK  7 active torsions:
REMARK  status: ('A' for Active; 'I' for Inactive)
REMARK    1  A    between atoms: C_1  and  C_2
REMARK    2  A    between atoms: C_2  and  C_3
REMARK    3  A    between atoms: C_3  and  N_4
REMARK    4  A    between atoms: C_3  and  C_17
REMARK    5  A    between atoms: C_5  and  C_7
REMARK    6  A    between atoms: C_20  and  C_21
REMARK    7  A    between atoms: C_21  and  C_22
REMARK                            x       y       z     vdW  Elec       q    Type
REMARK                         _______ _______ _______ _____ _____    ______ ____
ROOT
ATOM      1  C   UNL     1      44.767   3.605   9.772  0.00  0.00    +0.000 C 
ENDROOT
BRANCH   1   2
ATOM      2  C   UNL     1      45.587   3.106   8.585  0.00  0.00    +0.000 A 
ATOM      3  C   UNL     1      45.936   1.751   8.495  0.00  0.00    +0.000 A 
ATOM      4  C   UNL     1      46.658   1.266   7.397  0.00  0.00    +0.000 A 
ATOM      5  C   UNL     1      47.043   2.120   6.356  0.00  0.00    +0.000 A 
ATOM      6  C   UNL     1      46.691   3.474   6.439  0.00  0.00    +0.000 A 
ATOM      7  C   UNL     1      45.978   3.960   7.540  0.00  0.00    +0.000 A 
BRANCH   5   8
ATOM      8  C   UNL     1      47.814   1.593   5.165  0.00  0.00    +0.000 C 
BRANCH   8   9
ATOM      9  C   UNL     1      46.990   0.781   4.190  0.00  0.00    +0.000 A 
ATOM     10  C   UNL     1      47.108  -0.615   4.143  0.00  0.00    +0.000 A 
ATOM     11  C   UNL     1      46.346  -1.365   3.243  0.00  0.00    +0.000 A 
ATOM     12  C   UNL     1      45.458  -0.729   2.379  0.00  0.00    +0.000 A 
ATOM     13  C   UNL     1      45.328   0.659   2.418  0.00  0.00    +0.000 A 
ATOM     14  C   UNL     1      46.092   1.410   3.314  0.00  0.00    +0.000 A 
ENDBRANCH   8   9
ENDBRANCH   5   8
ENDBRANCH   1   2
BRANCH   1  15
ATOM     15  N   UNL     1      45.655   4.280  10.705  0.00  0.00    +0.000 N 
ATOM     16  C   UNL     1      45.548   5.597  11.062  0.00  0.00    +0.000 C 
ATOM     17  O   UNL     1      44.656   6.327  10.643  0.00  0.00    +0.000 OA
ATOM     18  H   UNL     1      46.465   3.751  11.006  0.00  0.00    +0.000 HD
BRANCH  16  19
ATOM     19  C   UNL     1      46.553   6.080  12.021  0.00  0.00    +0.000 A 
ATOM     20  C   UNL     1      47.425   7.102  11.673  0.00  0.00    +0.000 A 
ATOM     21  S   UNL     1      48.517   7.521  12.918  0.00  0.00    +0.000 S 
ATOM     22  C   UNL     1      47.895   6.314  13.947  0.00  0.00    +0.000 A 
ATOM     23  N   UNL     1      48.425   6.098  15.181  0.00  0.00    +0.000 NA
ATOM     24  C   UNL     1      47.884   5.123  15.833  0.00  0.00    +0.000 A 
ATOM     25  N   UNL     1      46.850   4.356  15.365  0.00  0.00    +0.000 N 
ATOM     26  C   UNL     1      46.227   4.598  14.172  0.00  0.00    +0.000 A 
ATOM     27  O   UNL     1      45.203   4.003  13.865  0.00  0.00    +0.000 OA
ATOM     28  C   UNL     1      46.842   5.637  13.365  0.00  0.00    +0.000 A 
ATOM     29  H   UNL     1      46.435   3.631  15.941  0.00  0.00    +0.000 HD
ENDBRANCH  16  19
ENDBRANCH   1  15
BRANCH   1  31
ATOM     30  C   UNL     1      43.229   2.958  11.721  0.00  0.00    +0.000 C 
ATOM     31  C   UNL     1      44.004   2.481  10.500  0.00  0.00    +0.000 C 
ENDBRANCH   1  31
TORSDOF 6
ENDMDL
MODEL 2
REMARK VINA RESULT:    -8.247      2.659      4.776
REMARK INTER + INTRA:         -12.485
REMARK INTER:                 -11.237
REMARK INTRA:                  -1.248
REMARK UNBOUND:                -1.346
REMARK  Name = 
REMARK  7 active torsions:
REMARK  status: ('A' for Active; 'I' for Inactive)
REMARK    1  A    between atoms: C_1  and  C_2
REMARK    2  A    between atoms: C_2  and  C_3
REMARK    3  A    between atoms: C_3  and  N_4
REMARK    4  A    between atoms: C_3  and  C_17
REMARK    5  A    between atoms: C_5  and  C_7
REMARK    6  A    between atoms: C_20  and  C_21
REMARK    7  A    between atoms: C_21  and  C_22
REMARK                            x       y       z     vdW  Elec       q    Type
REMARK                         _______ _______ _______ _____ _____    ______ ____
ROOT
ATOM      1  C   UNL     1      46.441   7.868  12.611  0.00  0.00    +0.000 C 
ENDROOT
BRANCH   1   2
ATOM      2  C   UNL     1      45.924   6.697  11.781  0.00  0.00    +0.000 A 
ATOM      3  C   UNL     1      44.916   5.867  12.292  0.00  0.00    +0.000 A 
ATOM      4  C   UNL     1      44.403   4.808  11.533  0.00  0.00    +0.000 A 
ATOM      5  C   UNL     1      44.877   4.554  10.240  0.00  0.00    +0.000 A 
ATOM      6  C   UNL     1      45.880   5.384   9.723  0.00  0.00    +0.000 A 
ATOM      7  C   UNL     1      46.399   6.437  10.485  0.00  0.00    +0.000 A 
BRANCH   5   8
ATOM      8  C   UNL     1      44.315   3.416   9.417  0.00  0.00    +0.000 C 
BRANCH   8   9
ATOM      9  C   UNL     1      45.289   2.809   8.431  0.00  0.00    +0.000 A 
ATOM     10  C   UNL     1      45.684   3.516   7.287  0.00  0.00    +0.000 A 
ATOM     11  C   UNL     1      46.585   2.956   6.377  0.00  0.00    +0.000 A 
ATOM     12  C   UNL     1      47.101   1.682   6.600  0.00  0.00    +0.000 A 
ATOM     13  C   UNL     1      46.719   0.968   7.735  0.00  0.00    +0.000 A 
ATOM     14  C   UNL     1      45.816   1.526   8.643  0.00  0.00    +0.000 A 
ENDBRANCH   8   9
ENDBRANCH   5   8
ENDBRANCH   1   2
BRANCH   1  15
ATOM     15  N   UNL     1      46.979   7.357  13.861  0.00  0.00    +0.000 N 
ATOM     16  C   UNL     1      48.258   6.899  14.026  0.00  0.00    +0.000 C 
ATOM     17  O   UNL     1      49.088   6.912  13.122  0.00  0.00    +0.000 OA
ATOM     18  H   UNL     1      46.311   7.234  14.613  0.00  0.00    +0.000 HD
BRANCH  16  19
ATOM     19  C   UNL     1      48.596   6.423  15.376  0.00  0.00    +0.000 A 
ATOM     20  C   UNL     1      49.508   7.114  16.159  0.00  0.00    +0.000 A 
ATOM     21  S   UNL     1      49.769   6.405  17.691  0.00  0.00    +0.000 S 
ATOM     22  C   UNL     1      48.708   5.120  17.339  0.00  0.00    +0.000 A 
ATOM     23  N   UNL     1      48.504   4.109  18.227  0.00  0.00    +0.000 NA
ATOM     24  C   UNL     1      47.710   3.181  17.809  0.00  0.00    +0.000 A 
ATOM     25  N   UNL     1      47.089   3.182  16.588  0.00  0.00    +0.000 N 
ATOM     26  C   UNL     1      47.193   4.220  15.704  0.00  0.00    +0.000 A 
ATOM     27  O   UNL     1      46.494   4.264  14.700  0.00  0.00    +0.000 OA
ATOM     28  C   UNL     1      48.132   5.258  16.092  0.00  0.00    +0.000 A 
ATOM     29  H   UNL     1      46.440   2.445  16.331  0.00  0.00    +0.000 HD
ENDBRANCH  16  19
ENDBRANCH   1  15
BRANCH   1  31
ATOM     30  C   UNL     1      45.170   9.936  11.777  0.00  0.00    +0.000 C 
ATOM     31  C   UNL     1      45.362   8.930  12.904  0.00  0.00    +0.000 C 
ENDBRANCH   1  31
TORSDOF 6
ENDMDL
MODEL 3
REMARK VINA RESULT:    -7.812      2.723      4.859
REMARK INTER + INTRA:         -11.897
REMARK INTER:                 -10.746
REMARK INTRA:                  -1.152
REMARK UNBOUND:                -1.346
REMARK  Name = 
REMARK  7 active torsions:
REMARK  status: ('A' for Active; 'I' for Inactive)
REMARK    1  A    between atoms: C_1  and  C_2
REMARK    2  A    between atoms: C_2  and  C_3
REMARK    3  A    between atoms: C_3  and  N_4
REMARK    4  A    between atoms: C_3  and  C_17
REMARK    5  A    between atoms: C_5  and  C_7
REMARK    6  A    between atoms: C_20  and  C_21
REMARK    7  A    between atoms: C_21  and  C_22
REMARK                            x       y       z     vdW  Elec       q    Type
REMARK                         _______ _______ _______ _____ _____    ______ ____
ROOT
ATOM      1  C   UNL     1      46.319   7.198  12.529  0.00  0.00    +0.000 C 
ENDROOT
BRANCH   1   2
ATOM      2  C   UNL     1      45.817   6.171  11.519  0.00  0.00    +0.000 A 
ATOM      3  C   UNL     1      46.245   6.232  10.185  0.00  0.00    +0.000 A 
ATOM      4  C   UNL     1      45.824   5.277   9.250  0.00  0.00    +0.000 A 
ATOM      5  C   UNL     1      44.970   4.232   9.625  0.00  0.00    +0.000 A 
ATOM      6  C   UNL     1      44.546   4.163  10.958  0.00  0.00    +0.000 A 
ATOM      7  C   UNL     1      44.959   5.122  11.890  0.00  0.00    +0.000 A 
BRANCH   5   8
ATOM      8  C   UNL     1      44.525   3.195   8.617  0.00  0.00    +0.000 C 
BRANCH   8   9
ATOM      9  C   UNL     1      45.637   2.627   7.763  0.00  0.00    +0.000 A 
ATOM     10  C   UNL     1      46.071   3.300   6.612  0.00  0.00    +0.000 A 
ATOM     11  C   UNL     1      47.099   2.776   5.824  0.00  0.00    +0.000 A 
ATOM     12  C   UNL     1      47.705   1.572   6.176  0.00  0.00    +0.000 A 
ATOM     13  C   UNL     1      47.286   0.894   7.321  0.00  0.00    +0.000 A 
ATOM     14  C   UNL     1      46.256   1.416   8.106  0.00  0.00    +0.000 A 
ENDBRANCH   8   9
ENDBRANCH   5   8
ENDBRANCH   1   2
BRANCH   1  15
ATOM     15  N   UNL     1      46.586   6.526  13.790  0.00  0.00    +0.000 N 
ATOM     16  C   UNL     1      47.799   6.005  14.150  0.00  0.00    +0.000 C 
ATOM     17  O   UNL     1      48.795   6.092  13.438  0.00  0.00    +0.000 OA
ATOM     18  H   UNL     1      45.778   6.341  14.373  0.00  0.00    +0.000 HD
BRANCH  16  19
ATOM     19  C   UNL     1      47.850   5.363  15.472  0.00  0.00    +0.000 A 
ATOM     20  C   UNL     1      47.227   4.142  15.687  0.00  0.00    +0.000 A 
ATOM     21  S   UNL     1      47.397   3.561  17.285  0.00  0.00    +0.000 S 
ATOM     22  C   UNL     1      48.267   4.948  17.757  0.00  0.00    +0.000 A 
ATOM     23  N   UNL     1      48.685   5.116  19.041  0.00  0.00    +0.000 NA
ATOM     24  C   UNL     1      49.293   6.233  19.264  0.00  0.00    +0.000 A 
ATOM     25  N   UNL     1      49.533   7.189  18.314  0.00  0.00    +0.000 N 
ATOM     26  C   UNL     1      49.214   7.022  16.995  0.00  0.00    +0.000 A 
ATOM     27  O   UNL     1      49.593   7.820  16.149  0.00  0.00    +0.000 OA
ATOM     28  C   UNL     1      48.462   5.815  16.700  0.00  0.00    +0.000 A 
ATOM     29  H   UNL     1      50.056   8.030  18.539  0.00  0.00    +0.000 HD
ENDBRANCH  16  19
ENDBRANCH   1  15
BRANCH   1  31
ATOM     30  C   UNL     1      45.628   9.591  11.912  0.00  0.00    +0.000 C 
ATOM     31  C   UNL     1      45.331   8.360  12.757  0.00  0.00    +0.000 C 
ENDBRANCH   1  31
TORSDOF 6
ENDMDL
MODEL 4
REMARK VINA RESULT:    -7.540      2.556      4.433
REMARK INTER + INTRA:         -11.530
REMARK INTER:                 -10.063
REMARK INTRA:                  -1.467
REMARK UNBOUND:                -1.346
REMARK  Name = 
REMARK  7 active torsions:
REMARK  status: ('A' for Active; 'I' for Inactive)
REMARK    1  A    between atoms: C_1  and  C_2
REMARK    2  A    between atoms: C_2  and  C_3
REMARK    3  A    between atoms: C_3  and  N_4
REMARK    4  A    between atoms: C_3  and  C_17
REMARK    5  A    between atoms: C_5  and  C_7
REMARK    6  A    between atoms: C_20  and  C_21
REMARK    7  A    between atoms: C_21  and  C_22
REMARK                            x       y       z     vdW  Elec       q    Type
REMARK                         _______ _______ _______ _____ _____    ______ ____
ROOT
ATOM      1  C   UNL     1      45.901   5.796  13.294  0.00  0.00    +0.000 C 
ENDROOT
BRANCH   1   2
ATOM      2  C   UNL     1      45.548   5.261  11.908  0.00  0.00    +0.000 A 
ATOM      3  C   UNL     1      46.071   5.881  10.765  0.00  0.00    +0.000 A 
ATOM      4  C   UNL     1      45.788   5.384   9.485  0.00  0.00    +0.000 A 
ATOM      5  C   UNL     1      44.983   4.251   9.316  0.00  0.00    +0.000 A 
ATOM      6  C   UNL     1      44.464   3.625  10.457  0.00  0.00    +0.000 A 
ATOM      7  C   UNL     1      44.739   4.126  11.734  0.00  0.00    +0.000 A 
BRANCH   5   8
ATOM      8  C   UNL     1      44.687   3.709   7.934  0.00  0.00    +0.000 C 
BRANCH   8   9
ATOM      9  C   UNL     1      45.809   2.902   7.319  0.00  0.00    +0.000 A 
ATOM     10  C   UNL     1      46.408   3.309   6.119  0.00  0.00    +0.000 A 
ATOM     11  C   UNL     1      47.446   2.564   5.552  0.00  0.00    +0.000 A 
ATOM     12  C   UNL     1      47.896   1.404   6.177  0.00  0.00    +0.000 A 
ATOM     13  C   UNL     1      47.311   0.990   7.374  0.00  0.00    +0.000 A 
ATOM     14  C   UNL     1      46.271   1.732   7.939  0.00  0.00    +0.000 A 
ENDBRANCH   8   9
ENDBRANCH   5   8
ENDBRANCH   1   2
BRANCH   1  15
ATOM     15  N   UNL     1      47.089   6.628  13.188  0.00  0.00    +0.000 N 
ATOM     16  C   UNL     1      47.087   7.995  13.252  0.00  0.00    +0.000 C 
ATOM     17  O   UNL     1      46.066   8.648  13.442  0.00  0.00    +0.000 OA
ATOM     18  H   UNL     1      47.944   6.147  12.934  0.00  0.00    +0.000 HD
BRANCH  16  19
ATOM     19  C   UNL     1      48.402   8.640  13.119  0.00  0.00    +0.000 A 
ATOM     20  C   UNL     1      48.580   9.703  12.246  0.00  0.00    +0.000 A 
ATOM     21  S   UNL     1      50.175  10.316  12.232  0.00  0.00    +0.000 S 
ATOM     22  C   UNL     1      50.694   9.146  13.356  0.00  0.00    +0.000 A 
ATOM     23  N   UNL     1      51.994   9.076  13.753  0.00  0.00    +0.000 NA
ATOM     24  C   UNL     1      52.253   8.113  14.573  0.00  0.00    +0.000 A 
ATOM     25  N   UNL     1      51.323   7.223  15.044  0.00  0.00    +0.000 N 
ATOM     26  C   UNL     1      49.992   7.312  14.744  0.00  0.00    +0.000 A 
ATOM     27  O   UNL     1      49.170   6.607  15.313  0.00  0.00    +0.000 OA
ATOM     28  C   UNL     1      49.656   8.333  13.767  0.00  0.00    +0.000 A 
ATOM     29  H   UNL     1      51.577   6.513  15.722  0.00  0.00    +0.000 HD
ENDBRANCH  16  19
ENDBRANCH   1  15
BRANCH   1  31
ATOM     30  C   UNL     1      47.345   3.809  14.035  0.00  0.00    +0.000 C 
ATOM     31  C   UNL     1      46.135   4.683  14.335  0.00  0.00    +0.000 C 
ENDBRANCH   1  31
TORSDOF 6
ENDMDL
MODEL 5
REMARK VINA RESULT:    -7.369      3.483      6.458
REMARK INTER + INTRA:         -11.299
REMARK INTER:                  -9.832
REMARK INTRA:                  -1.467
REMARK UNBOUND:                -1.346
REMARK  Name = 
REMARK  7 active torsions:
REMARK  status: ('A' for Active; 'I' for Inactive)
REMARK    1  A    between atoms: C_1  and  C_2
REMARK    2  A    between atoms: C_2  and  C_3
REMARK    3  A    between atoms: C_3  and  N_4
REMARK    4  A    between atoms: C_3  and  C_17
REMARK    5  A    between atoms: C_5  and  C_7
REMARK    6  A    between atoms: C_20  and  C_21
REMARK    7  A    between atoms: C_21  and  C_22
REMARK                            x       y       z     vdW  Elec       q    Type
REMARK                         _______ _______ _______ _____ _____    ______ ____
ROOT
ATOM      1  C   UNL     1      48.052   7.427  13.974  0.00  0.00    +0.000 C 
ENDROOT
BRANCH   1   2
ATOM      2  C   UNL     1      47.083   6.669  13.072  0.00  0.00    +0.000 A 
ATOM      3  C   UNL     1      46.619   7.261  11.888  0.00  0.00    +0.000 A 
ATOM      4  C   UNL     1      45.757   6.568  11.028  0.00  0.00    +0.000 A 
ATOM      5  C   UNL     1      45.341   5.264  11.324  0.00  0.00    +0.000 A 
ATOM      6  C   UNL     1      45.807   4.667  12.503  0.00  0.00    +0.000 A 
ATOM      7  C   UNL     1      46.661   5.362  13.366  0.00  0.00    +0.000 A 
BRANCH   5   8
ATOM      8  C   UNL     1      44.418   4.514  10.389  0.00  0.00    +0.000 C 
BRANCH   8   9
ATOM      9  C   UNL     1      45.122   3.696   9.329  0.00  0.00    +0.000 A 
ATOM     10  C   UNL     1      45.749   4.322   8.242  0.00  0.00    +0.000 A 
ATOM     11  C   UNL     1      46.401   3.567   7.263  0.00  0.00    +0.000 A 
ATOM     12  C   UNL     1      46.434   2.178   7.358  0.00  0.00    +0.000 A 
ATOM     13  C   UNL     1      45.818   1.543   8.436  0.00  0.00    +0.000 A 
ATOM     14  C   UNL     1      45.163   2.296   9.413  0.00  0.00    +0.000 A 
ENDBRANCH   8   9
ENDBRANCH   5   8
ENDBRANCH   1   2
BRANCH   1  15
ATOM     15  N   UNL     1      48.027   6.827  15.299  0.00  0.00    +0.000 N 
ATOM     16  C   UNL     1      49.138   6.424  15.989  0.00  0.00    +0.000 C 
ATOM     17  O   UNL     1      50.276   6.568  15.554  0.00  0.00    +0.000 OA
ATOM     18  H   UNL     1      47.110   6.598  15.663  0.00  0.00    +0.000 HD
BRANCH  16  19
ATOM     19  C   UNL     1      48.887   5.839  17.314  0.00  0.00    +0.000 A 
ATOM     20  C   UNL     1      49.092   4.485  17.538  0.00  0.00    +0.000 A 
ATOM     21  S   UNL     1      48.745   3.996  19.137  0.00  0.00    +0.000 S 
ATOM     22  C   UNL     1      48.257   5.569  19.572  0.00  0.00    +0.000 A 
ATOM     23  N   UNL     1      47.787   5.843  20.819  0.00  0.00    +0.000 NA
ATOM     24  C   UNL     1      47.413   7.067  20.994  0.00  0.00    +0.000 A 
ATOM     25  N   UNL     1      47.482   8.044  20.036  0.00  0.00    +0.000 N 
ATOM     26  C   UNL     1      48.032   7.836  18.802  0.00  0.00    +0.000 A 
ATOM     27  O   UNL     1      48.231   8.769  18.036  0.00  0.00    +0.000 OA
ATOM     28  C   UNL     1      48.403   6.459  18.526  0.00  0.00    +0.000 A 
ATOM     29  H   UNL     1      47.214   9.000  20.245  0.00  0.00    +0.000 HD
ENDBRANCH  16  19
ENDBRANCH   1  15
BRANCH   1  31
ATOM     30  C   UNL     1      48.973   9.821  14.060  0.00  0.00    +0.000 C 
ATOM     31  C   UNL     1      47.736   8.933  14.079  0.00  0.00    +0.000 C 
ENDBRANCH   1  31
TORSDOF 6
ENDMDL
MODEL 6
REMARK VINA RESULT:    -7.282      4.687      9.564
REMARK INTER + INTRA:         -11.181
REMARK INTER:                  -9.756
REMARK INTRA:                  -1.425
REMARK UNBOUND:                -1.346
REMARK  Name = 
REMARK  7 active torsions:
REMARK  status: ('A' for Active; 'I' for Inactive)
REMARK    1  A    between atoms: C_1  and  C_2
REMARK    2  A    between atoms: C_2  and  C_3
REMARK    3  A    between atoms: C_3  and  N_4
REMARK    4  A    between atoms: C_3  and  C_17
REMARK    5  A    between atoms: C_5  and  C_7
REMARK    6  A    between atoms: C_20  and  C_21
REMARK    7  A    between atoms: C_21  and  C_22
REMARK                            x       y       z     vdW  Elec       q    Type
REMARK                         _______ _______ _______ _____ _____    ______ ____
ROOT
ATOM      1  C   UNL     1      48.411   7.543  12.942  0.00  0.00    +0.000 C 
ENDROOT
BRANCH   1   2
ATOM      2  C   UNL     1      48.781   6.939  14.293  0.00  0.00    +0.000 A 
ATOM      3  C   UNL     1      47.945   5.982  14.886  0.00  0.00    +0.000 A 
ATOM      4  C   UNL     1      48.284   5.390  16.109  0.00  0.00    +0.000 A 
ATOM      5  C   UNL     1      49.471   5.732  16.769  0.00  0.00    +0.000 A 
ATOM      6  C   UNL     1      50.313   6.683  16.178  0.00  0.00    +0.000 A 
ATOM      7  C   UNL     1      49.970   7.281  14.960  0.00  0.00    +0.000 A 
BRANCH   5   8
ATOM      8  C   UNL     1      49.841   5.083  18.085  0.00  0.00    +0.000 C 
BRANCH   8   9
ATOM      9  C   UNL     1      50.749   3.880  17.963  0.00  0.00    +0.000 A 
ATOM     10  C   UNL     1      52.080   3.941  18.398  0.00  0.00    +0.000 A 
ATOM     11  C   UNL     1      52.919   2.829  18.286  0.00  0.00    +0.000 A 
ATOM     12  C   UNL     1      52.438   1.643  17.737  0.00  0.00    +0.000 A 
ATOM     13  C   UNL     1      51.114   1.567  17.303  0.00  0.00    +0.000 A 
ATOM     14  C   UNL     1      50.277   2.679  17.412  0.00  0.00    +0.000 A 
ENDBRANCH   8   9
ENDBRANCH   5   8
ENDBRANCH   1   2
BRANCH   1  15
ATOM     15  N   UNL     1      47.610   6.582  12.201  0.00  0.00    +0.000 N 
ATOM     16  C   UNL     1      46.367   6.839  11.689  0.00  0.00    +0.000 C 
ATOM     17  O   UNL     1      45.825   7.935  11.784  0.00  0.00    +0.000 OA
ATOM     18  H   UNL     1      47.967   5.634  12.177  0.00  0.00    +0.000 HD
BRANCH  16  19
ATOM     19  C   UNL     1      45.729   5.722  10.975  0.00  0.00    +0.000 A 
ATOM     20  C   UNL     1      45.853   5.603   9.599  0.00  0.00    +0.000 A 
ATOM     21  S   UNL     1      45.042   4.245   8.955  0.00  0.00    +0.000 S 
ATOM     22  C   UNL     1      44.453   3.798  10.489  0.00  0.00    +0.000 A 
ATOM     23  N   UNL     1      43.633   2.724  10.646  0.00  0.00    +0.000 NA
ATOM     24  C   UNL     1      43.228   2.531  11.857  0.00  0.00    +0.000 A 
ATOM     25  N   UNL     1      43.584   3.307  12.928  0.00  0.00    +0.000 N 
ATOM     26  C   UNL     1      44.477   4.338  12.832  0.00  0.00    +0.000 A 
ATOM     27  O   UNL     1      44.899   4.900  13.834  0.00  0.00    +0.000 OA
ATOM     28  C   UNL     1      44.908   4.646  11.480  0.00  0.00    +0.000 A 
ATOM     29  H   UNL     1      43.269   3.080  13.865  0.00  0.00    +0.000 HD
ENDBRANCH  16  19
ENDBRANCH   1  15
BRANCH   1  31
ATOM     30  C   UNL     1      49.502   9.323  11.450  0.00  0.00    +0.000 C 
ATOM     31  C   UNL     1      49.638   7.954  12.103  0.00  0.00    +0.000 C 
ENDBRANCH   1  31
TORSDOF 6
ENDMDL
MODEL 7
REMARK VINA RESULT:    -7.270      5.607     11.855
REMARK INTER + INTRA:         -11.165
REMARK INTER:                  -9.626
REMARK INTRA:                  -1.539
REMARK UNBOUND:                -1.346
REMARK  Name = 
REMARK  7 active torsions:
REMARK  status: ('A' for Active; 'I' for Inactive)
REMARK    1  A    between atoms: C_1  and  C_2
REMARK    2  A    between atoms: C_2  and  C_3
REMARK    3  A    between atoms: C_3  and  N_4
REMARK    4  A    between atoms: C_3  and  C_17
REMARK    5  A    between atoms: C_5  and  C_7
REMARK    6  A    between atoms: C_20  and  C_21
REMARK    7  A    between atoms: C_21  and  C_22
REMARK                            x       y       z     vdW  Elec       q    Type
REMARK                         _______ _______ _______ _____ _____    ______ ____
ROOT
ATOM      1  C   UNL     1      48.292   4.609  16.204  0.00  0.00    +0.000 C 
ENDROOT
BRANCH   1   2
ATOM      2  C   UNL     1      48.245   5.489  17.450  0.00  0.00    +0.000 A 
ATOM      3  C   UNL     1      47.213   5.325  18.385  0.00  0.00    +0.000 A 
ATOM      4  C   UNL     1      47.172   6.098  19.552  0.00  0.00    +0.000 A 
ATOM      5  C   UNL     1      48.164   7.049  19.821  0.00  0.00    +0.000 A 
ATOM      6  C   UNL     1      49.201   7.211  18.893  0.00  0.00    +0.000 A 
ATOM      7  C   UNL     1      49.237   6.446  17.722  0.00  0.00    +0.000 A 
BRANCH   5   8
ATOM      8  C   UNL     1      48.124   7.876  21.087  0.00  0.00    +0.000 C 
BRANCH   8   9
ATOM      9  C   UNL     1      47.192   9.067  21.034  0.00  0.00    +0.000 A 
ATOM     10  C   UNL     1      47.073   9.830  19.864  0.00  0.00    +0.000 A 
ATOM     11  C   UNL     1      46.211  10.929  19.814  0.00  0.00    +0.000 A 
ATOM     12  C   UNL     1      45.459  11.278  20.933  0.00  0.00    +0.000 A 
ATOM     13  C   UNL     1      45.564  10.525  22.102  0.00  0.00    +0.000 A 
ATOM     14  C   UNL     1      46.428   9.429  22.154  0.00  0.00    +0.000 A 
ENDBRANCH   8   9
ENDBRANCH   5   8
ENDBRANCH   1   2
BRANCH   1  15
ATOM     15  N   UNL     1      47.326   5.110  15.239  0.00  0.00    +0.000 N 
ATOM     16  C   UNL     1      47.647   5.837  14.126  0.00  0.00    +0.000 C 
ATOM     17  O   UNL     1      48.804   6.107  13.821  0.00  0.00    +0.000 OA
ATOM     18  H   UNL     1      46.351   4.999  15.492  0.00  0.00    +0.000 HD
BRANCH  16  19
ATOM     19  C   UNL     1      46.512   6.247  13.284  0.00  0.00    +0.000 A 
ATOM     20  C   UNL     1      46.316   7.583  12.968  0.00  0.00    +0.000 A 
ATOM     21  S   UNL     1      44.947   7.858  11.983  0.00  0.00    +0.000 S 
ATOM     22  C   UNL     1      44.541   6.204  11.989  0.00  0.00    +0.000 A 
ATOM     23  N   UNL     1      43.425   5.749  11.357  0.00  0.00    +0.000 NA
ATOM     24  C   UNL     1      43.218   4.480  11.482  0.00  0.00    +0.000 A 
ATOM     25  N   UNL     1      44.038   3.624  12.169  0.00  0.00    +0.000 N 
ATOM     26  C   UNL     1      45.215   4.021  12.739  0.00  0.00    +0.000 A 
ATOM     27  O   UNL     1      46.002   3.202  13.196  0.00  0.00    +0.000 OA
ATOM     28  C   UNL     1      45.462   5.452  12.692  0.00  0.00    +0.000 A 
ATOM     29  H   UNL     1      43.848   2.628  12.196  0.00  0.00    +0.000 HD
ENDBRANCH  16  19
ENDBRANCH   1  15
BRANCH   1  31
ATOM     30  C   UNL     1      49.218   2.367  17.040  0.00  0.00    +0.000 C 
ATOM     31  C   UNL     1      48.012   3.122  16.497  0.00  0.00    +0.000 C 
ENDBRANCH   1  31
TORSDOF 6
ENDMDL
MODEL 8
REMARK VINA RESULT:    -7.169      2.630      4.953
REMARK INTER + INTRA:         -11.029
REMARK INTER:                 -10.685
REMARK INTRA:                  -0.345
REMARK UNBOUND:                -1.346
REMARK  Name = 
REMARK  7 active torsions:
REMARK  status: ('A' for Active; 'I' for Inactive)
REMARK    1  A    between atoms: C_1  and  C_2
REMARK    2  A    between atoms: C_2  and  C_3
REMARK    3  A    between atoms: C_3  and  N_4
REMARK    4  A    between atoms: C_3  and  C_17
REMARK    5  A    between atoms: C_5  and  C_7
REMARK    6  A    between atoms: C_20  and  C_21
REMARK    7  A    between atoms: C_21  and  C_22
REMARK                            x       y       z     vdW  Elec       q    Type
REMARK                         _______ _______ _______ _____ _____    ______ ____
ROOT
ATOM      1  C   UNL     1      46.202   5.361  13.978  0.00  0.00    +0.000 C 
ENDROOT
BRANCH   1   2
ATOM      2  C   UNL     1      45.822   4.916  12.568  0.00  0.00    +0.000 A 
ATOM      3  C   UNL     1      45.398   3.600  12.339  0.00  0.00    +0.000 A 
ATOM      4  C   UNL     1      45.011   3.182  11.059  0.00  0.00    +0.000 A 
ATOM      5  C   UNL     1      45.029   4.070   9.976  0.00  0.00    +0.000 A 
ATOM      6  C   UNL     1      45.446   5.388  10.202  0.00  0.00    +0.000 A 
ATOM      7  C   UNL     1      45.842   5.803  11.479  0.00  0.00    +0.000 A 
BRANCH   5   8
ATOM      8  C   UNL     1      44.601   3.620   8.597  0.00  0.00    +0.000 C 
BRANCH   8   9
ATOM      9  C   UNL     1      45.657   2.861   7.825  0.00  0.00    +0.000 A 
ATOM     10  C   UNL     1      46.277   3.436   6.707  0.00  0.00    +0.000 A 
ATOM     11  C   UNL     1      47.255   2.735   5.994  0.00  0.00    +0.000 A 
ATOM     12  C   UNL     1      47.623   1.451   6.390  0.00  0.00    +0.000 A 
ATOM     13  C   UNL     1      47.016   0.869   7.503  0.00  0.00    +0.000 A 
ATOM     14  C   UNL     1      46.037   1.567   8.213  0.00  0.00    +0.000 A 
ENDBRANCH   8   9
ENDBRANCH   5   8
ENDBRANCH   1   2
BRANCH   1  15
ATOM     15  N   UNL     1      46.917   6.624  13.895  0.00  0.00    +0.000 N 
ATOM     16  C   UNL     1      48.190   6.766  13.413  0.00  0.00    +0.000 C 
ATOM     17  O   UNL     1      48.839   5.824  12.969  0.00  0.00    +0.000 OA
ATOM     18  H   UNL     1      46.465   7.417  14.336  0.00  0.00    +0.000 HD
BRANCH  16  19
ATOM     19  C   UNL     1      48.725   8.136  13.421  0.00  0.00    +0.000 A 
ATOM     20  C   UNL     1      49.988   8.396  13.931  0.00  0.00    +0.000 A 
ATOM     21  S   UNL     1      50.431  10.044  13.854  0.00  0.00    +0.000 S 
ATOM     22  C   UNL     1      48.925  10.474  13.182  0.00  0.00    +0.000 A 
ATOM     23  N   UNL     1      48.620  11.772  12.907  0.00  0.00    +0.000 NA
ATOM     24  C   UNL     1      47.429  11.955  12.444  0.00  0.00    +0.000 A 
ATOM     25  N   UNL     1      46.522  10.954  12.215  0.00  0.00    +0.000 N 
ATOM     26  C   UNL     1      46.819   9.630  12.389  0.00  0.00    +0.000 A 
ATOM     27  O   UNL     1      46.046   8.757  12.016  0.00  0.00    +0.000 OA
ATOM     28  C   UNL     1      48.120   9.371  12.979  0.00  0.00    +0.000 A 
ATOM     29  H   UNL     1      45.615  11.154  11.807  0.00  0.00    +0.000 HD
ENDBRANCH  16  19
ENDBRANCH   1  15
BRANCH   1  31
ATOM     30  C   UNL     1      47.304   4.679  16.193  0.00  0.00    +0.000 C 
ATOM     31  C   UNL     1      47.061   4.325  14.732  0.00  0.00    +0.000 C 
ENDBRANCH   1  31
TORSDOF 6
ENDMDL
MODEL 9
REMARK VINA RESULT:    -7.119      3.602      6.403
REMARK INTER + INTRA:         -10.961
REMARK INTER:                  -9.667
REMARK INTRA:                  -1.294
REMARK UNBOUND:                -1.346
REMARK  Name = 
REMARK  7 active torsions:
REMARK  status: ('A' for Active; 'I' for Inactive)
REMARK    1  A    between atoms: C_1  and  C_2
REMARK    2  A    between atoms: C_2  and  C_3
REMARK    3  A    between atoms: C_3  and  N_4
REMARK    4  A    between atoms: C_3  and  C_17
REMARK    5  A    between atoms: C_5  and  C_7
REMARK    6  A    between atoms: C_20  and  C_21
REMARK    7  A    between atoms: C_21  and  C_22
REMARK                            x       y       z     vdW  Elec       q    Type
REMARK                         _______ _______ _______ _____ _____    ______ ____
ROOT
ATOM      1  C   UNL     1      48.202   7.993  13.757  0.00  0.00    +0.000 C 
ENDROOT
BRANCH   1   2
ATOM      2  C   UNL     1      47.173   7.138  13.023  0.00  0.00    +0.000 A 
ATOM      3  C   UNL     1      46.307   7.729  12.092  0.00  0.00    +0.000 A 
ATOM      4  C   UNL     1      45.379   6.957  11.381  0.00  0.00    +0.000 A 
ATOM      5  C   UNL     1      45.297   5.572  11.576  0.00  0.00    +0.000 A 
ATOM      6  C   UNL     1      46.164   4.977  12.501  0.00  0.00    +0.000 A 
ATOM      7  C   UNL     1      47.085   5.749  13.217  0.00  0.00    +0.000 A 
BRANCH   5   8
ATOM      8  C   UNL     1      44.301   4.738  10.800  0.00  0.00    +0.000 C 
BRANCH   8   9
ATOM      9  C   UNL     1      44.909   3.882   9.711  0.00  0.00    +0.000 A 
ATOM     10  C   UNL     1      44.808   2.484   9.760  0.00  0.00    +0.000 A 
ATOM     11  C   UNL     1      45.368   1.693   8.753  0.00  0.00    +0.000 A 
ATOM     12  C   UNL     1      46.036   2.289   7.686  0.00  0.00    +0.000 A 
ATOM     13  C   UNL     1      46.141   3.678   7.623  0.00  0.00    +0.000 A 
ATOM     14  C   UNL     1      45.584   4.470   8.631  0.00  0.00    +0.000 A 
ENDBRANCH   8   9
ENDBRANCH   5   8
ENDBRANCH   1   2
BRANCH   1  15
ATOM     15  N   UNL     1      48.081   7.748  15.185  0.00  0.00    +0.000 N 
ATOM     16  C   UNL     1      49.035   7.134  15.951  0.00  0.00    +0.000 C 
ATOM     17  O   UNL     1      50.111   6.759  15.495  0.00  0.00    +0.000 OA
ATOM     18  H   UNL     1      47.176   7.951  15.594  0.00  0.00    +0.000 HD
BRANCH  16  19
ATOM     19  C   UNL     1      48.709   6.985  17.377  0.00  0.00    +0.000 A 
ATOM     20  C   UNL     1      48.358   8.090  18.139  0.00  0.00    +0.000 A 
ATOM     21  S   UNL     1      48.017   7.715  19.771  0.00  0.00    +0.000 S 
ATOM     22  C   UNL     1      48.377   6.068  19.525  0.00  0.00    +0.000 A 
ATOM     23  N   UNL     1      48.329   5.174  20.551  0.00  0.00    +0.000 NA
ATOM     24  C   UNL     1      48.670   3.971  20.229  0.00  0.00    +0.000 A 
ATOM     25  N   UNL     1      49.039   3.579  18.969  0.00  0.00    +0.000 N 
ATOM     26  C   UNL     1      49.012   4.421  17.893  0.00  0.00    +0.000 A 
ATOM     27  O   UNL     1      49.184   3.998  16.757  0.00  0.00    +0.000 OA
ATOM     28  C   UNL     1      48.707   5.805  18.210  0.00  0.00    +0.000 A 
ATOM     29  H   UNL     1      49.255   2.609  18.766  0.00  0.00    +0.000 HD
ENDBRANCH  16  19
ENDBRANCH   1  15
BRANCH   1  31
ATOM     30  C   UNL     1      49.120  10.053  12.534  0.00  0.00    +0.000 C 
ATOM     31  C   UNL     1      48.056   9.501  13.472  0.00  0.00    +0.000 C 
ENDBRANCH   1  31
TORSDOF 6
ENDMDL
