MODEL 1
REMARK VINA RESULT:    -6.951      0.000      0.000
REMARK INTER + INTRA:         -11.074
REMARK INTER:                  -9.796
REMARK INTRA:                  -1.279
REMARK UNBOUND:                -1.279
REMARK  Name = 
REMARK  8 active torsions:
REMARK  status: ('A' for Active; 'I' for Inactive)
REMARK    1  A    between atoms: C_1  and  N_2
REMARK    2  A    between atoms: N_2  and  C_3
REMARK    3  A    between atoms: C_3  and  C_4
REMARK    4  A    between atoms: C_7  and  C_8
REMARK    5  A    between atoms: C_8  and  C_9
REMARK    6  A    between atoms: C_9  and  C_10
REMARK    7  A    between atoms: C_10  and  N_11
REMARK    8  A    between atoms: C_19  and  C_21
REMARK                            x       y       z     vdW  Elec       q    Type
REMARK                         _______ _______ _______ _____ _____    ______ ____
ROOT
ATOM      1  C   UNL     1      47.244   6.232  12.318  0.00  0.00    +0.000 C 
ENDROOT
BRANCH   1   2
ATOM      2  C   UNL     1      47.576   5.887  13.745  0.00  0.00    +0.000 A 
ATOM      3  C   UNL     1      48.435   6.716  14.482  0.00  0.00    +0.000 A 
ATOM      4  C   UNL     1      48.705   6.433  15.816  0.00  0.00    +0.000 A 
ATOM      5  C   UNL     1      48.097   5.337  16.445  0.00  0.00    +0.000 A 
ATOM      6  C   UNL     1      47.281   4.482  15.699  0.00  0.00    +0.000 A 
ATOM      7  C   UNL     1      47.025   4.755  14.356  0.00  0.00    +0.000 A 
BRANCH   5   8
ATOM      8  C   UNL     1      48.307   5.114  17.919  0.00  0.00    +0.000 C 
BRANCH   8   9
ATOM      9  C   UNL     1      49.231   3.903  18.159  0.00  0.00    +0.000 C 
BRANCH   9  10
ATOM     10  C   UNL     1      50.644   4.286  18.612  0.00  0.00    +0.000 C 
BRANCH  10  11
ATOM     11  N   UNL     1      51.560   3.293  18.119  0.00  0.00    +0.000 NA
ATOM     12  C   UNL     1      51.072   2.155  17.356  0.00  0.00    +0.000 C 
ATOM     13  C   UNL     1      52.023   0.968  17.589  0.00  0.00    +0.000 C 
ATOM     14  O   UNL     1      53.383   1.311  17.277  0.00  0.00    +0.000 OA
ATOM     15  C   UNL     1      53.815   2.424  18.077  0.00  0.00    +0.000 C 
ATOM     16  C   UNL     1      52.936   3.662  17.843  0.00  0.00    +0.000 C 
ENDBRANCH  10  11
ENDBRANCH   9  10
ENDBRANCH   8   9
ENDBRANCH   5   8
ENDBRANCH   1   2
BRANCH   1  18
ATOM     17  C   UNL     1      46.314   8.589  12.162  0.00  0.00    +0.000 C 
ATOM     18  N   UNL     1      46.124   7.147  12.077  0.00  0.00    +0.000 N 
ATOM     19  C   UNL     1      44.856   6.721  11.640  0.00  0.00    +0.000 C 
ATOM     20  O   UNL     1      43.981   7.541  11.363  0.00  0.00    +0.000 OA
BRANCH  19  21
ATOM     21  C   UNL     1      44.556   5.287  11.553  0.00  0.00    +0.000 A 
ATOM     22  C   UNL     1      43.834   4.572  12.495  0.00  0.00    +0.000 A 
ATOM     23  S   UNL     1      43.568   2.941  12.065  0.00  0.00    +0.000 S 
ATOM     24  C   UNL     1      44.287   3.175  10.541  0.00  0.00    +0.000 A 
ATOM     25  N   UNL     1      44.286   2.184   9.607  0.00  0.00    +0.000 NA
ATOM     26  C   UNL     1      44.794   2.535   8.469  0.00  0.00    +0.000 A 
ATOM     27  N   UNL     1      45.337   3.763   8.196  0.00  0.00    +0.000 N 
ATOM     28  C   UNL     1      45.485   4.745   9.155  0.00  0.00    +0.000 A 
ATOM     29  O   UNL     1      46.192   5.724   8.948  0.00  0.00    +0.000 OA
ATOM     30  C   UNL     1      44.809   4.446  10.406  0.00  0.00    +0.000 A 
ATOM     31  H   UNL     1      45.779   3.948   7.310  0.00  0.00    +0.000 HD
ENDBRANCH  19  21
ENDBRANCH   1  18
TORSDOF 7
ENDMDL
MODEL 2
REMARK VINA RESULT:    -6.786      1.423      2.422
REMARK INTER + INTRA:         -10.842
REMARK INTER:                  -9.744
REMARK INTRA:                  -1.098
REMARK UNBOUND:                -1.279
REMARK  Name = 
REMARK  8 active torsions:
REMARK  status: ('A' for Active; 'I' for Inactive)
REMARK    1  A    between atoms: C_1  and  N_2
REMARK    2  A    between atoms: N_2  and  C_3
REMARK    3  A    between atoms: C_3  and  C_4
REMARK    4  A    between atoms: C_7  and  C_8
REMARK    5  A    between atoms: C_8  and  C_9
REMARK    6  A    between atoms: C_9  and  C_10
REMARK    7  A    between atoms: C_10  and  N_11
REMARK    8  A    between atoms: C_19  and  C_21
REMARK                            x       y       z     vdW  Elec       q    Type
REMARK                         _______ _______ _______ _____ _____    ______ ____
ROOT
ATOM      1  C   UNL     1      47.396   6.247  12.709  0.00  0.00    +0.000 C 
ENDROOT
BRANCH   1   2
ATOM      2  C   UNL     1      47.610   5.737  14.109  0.00  0.00    +0.000 A 
ATOM      3  C   UNL     1      46.982   4.554  14.526  0.00  0.00    +0.000 A 
ATOM      4  C   UNL     1      47.218   4.049  15.799  0.00  0.00    +0.000 A 
ATOM      5  C   UNL     1      48.107   4.699  16.666  0.00  0.00    +0.000 A 
ATOM      6  C   UNL     1      48.693   5.905  16.271  0.00  0.00    +0.000 A 
ATOM      7  C   UNL     1      48.443   6.421  15.001  0.00  0.00    +0.000 A 
BRANCH   5   8
ATOM      8  C   UNL     1      48.440   4.076  17.996  0.00  0.00    +0.000 C 
BRANCH   8   9
ATOM      9  C   UNL     1      49.943   3.746  18.080  0.00  0.00    +0.000 C 
BRANCH   9  10
ATOM     10  C   UNL     1      50.332   2.453  17.356  0.00  0.00    +0.000 C 
BRANCH  10  11
ATOM     11  N   UNL     1      51.720   2.187  17.622  0.00  0.00    +0.000 NA
ATOM     12  C   UNL     1      52.536   3.165  18.323  0.00  0.00    +0.000 C 
ATOM     13  C   UNL     1      53.992   3.015  17.849  0.00  0.00    +0.000 C 
ATOM     14  O   UNL     1      54.466   1.668  18.013  0.00  0.00    +0.000 OA
ATOM     15  C   UNL     1      53.636   0.753  17.280  0.00  0.00    +0.000 C 
ATOM     16  C   UNL     1      52.174   0.815  17.751  0.00  0.00    +0.000 C 
ENDBRANCH  10  11
ENDBRANCH   9  10
ENDBRANCH   8   9
ENDBRANCH   5   8
ENDBRANCH   1   2
BRANCH   1  18
ATOM     17  C   UNL     1      46.593   8.599  13.221  0.00  0.00    +0.000 C 
ATOM     18  N   UNL     1      46.433   7.336  12.516  0.00  0.00    +0.000 N 
ATOM     19  C   UNL     1      45.388   7.287  11.574  0.00  0.00    +0.000 C 
ATOM     20  O   UNL     1      44.667   8.266  11.388  0.00  0.00    +0.000 OA
BRANCH  19  21
ATOM     21  C   UNL     1      45.126   6.046  10.836  0.00  0.00    +0.000 A 
ATOM     22  C   UNL     1      45.676   5.727   9.605  0.00  0.00    +0.000 A 
ATOM     23  S   UNL     1      45.255   4.169   9.047  0.00  0.00    +0.000 S 
ATOM     24  C   UNL     1      44.440   3.815  10.498  0.00  0.00    +0.000 A 
ATOM     25  N   UNL     1      43.931   2.574  10.731  0.00  0.00    +0.000 NA
ATOM     26  C   UNL     1      43.414   2.432  11.909  0.00  0.00    +0.000 A 
ATOM     27  N   UNL     1      43.322   3.421  12.852  0.00  0.00    +0.000 N 
ATOM     28  C   UNL     1      43.697   4.727  12.604  0.00  0.00    +0.000 A 
ATOM     29  O   UNL     1      43.374   5.628  13.369  0.00  0.00    +0.000 OA
ATOM     30  C   UNL     1      44.405   4.903  11.349  0.00  0.00    +0.000 A 
ATOM     31  H   UNL     1      42.845   3.261  13.725  0.00  0.00    +0.000 HD
ENDBRANCH  19  21
ENDBRANCH   1  18
TORSDOF 7
ENDMDL
MODEL 3
REMARK VINA RESULT:    -6.741      2.673      3.556
REMARK INTER + INTRA:         -10.778
REMARK INTER:                  -9.210
REMARK INTRA:                  -1.568
REMARK UNBOUND:                -1.279
REMARK  Name = 
REMARK  8 active torsions:
REMARK  status: ('A' for Active; 'I' for Inactive)
REMARK    1  A    between atoms: C_1  and  N_2
REMARK    2  A    between atoms: N_2  and  C_3
REMARK    3  A    between atoms: C_3  and  C_4
REMARK    4  A    between atoms: C_7  and  C_8
REMARK    5  A    between atoms: C_8  and  C_9
REMARK    6  A    between atoms: C_9  and  C_10
REMARK    7  A    between atoms: C_10  and  N_11
REMARK    8  A    between atoms: C_19  and  C_21
REMARK                            x       y       z     vdW  Elec       q    Type
REMARK                         _______ _______ _______ _____ _____    ______ ____
ROOT
ATOM      1  C   UNL     1      47.167   6.294  12.273  0.00  0.00    +0.000 C 
ENDROOT
BRANCH   1   2
ATOM      2  C   UNL     1      47.524   5.992  13.704  0.00  0.00    +0.000 A 
ATOM      3  C   UNL     1      46.957   4.882  14.346  0.00  0.00    +0.000 A 
ATOM      4  C   UNL     1      47.322   4.566  15.650  0.00  0.00    +0.000 A 
ATOM      5  C   UNL     1      48.282   5.335  16.323  0.00  0.00    +0.000 A 
ATOM      6  C   UNL     1      48.810   6.471  15.703  0.00  0.00    +0.000 A 
ATOM      7  C   UNL     1      48.430   6.798  14.402  0.00  0.00    +0.000 A 
BRANCH   5   8
ATOM      8  C   UNL     1      48.751   4.911  17.689  0.00  0.00    +0.000 C 
BRANCH   8   9
ATOM      9  C   UNL     1      47.646   5.141  18.739  0.00  0.00    +0.000 C 
BRANCH   9  10
ATOM     10  C   UNL     1      48.080   6.037  19.904  0.00  0.00    +0.000 C 
BRANCH  10  11
ATOM     11  N   UNL     1      48.455   7.319  19.372  0.00  0.00    +0.000 NA
ATOM     12  C   UNL     1      47.438   8.307  19.048  0.00  0.00    +0.000 C 
ATOM     13  C   UNL     1      47.961   9.187  17.900  0.00  0.00    +0.000 C 
ATOM     14  O   UNL     1      49.233   9.775  18.221  0.00  0.00    +0.000 OA
ATOM     15  C   UNL     1      50.200   8.751  18.507  0.00  0.00    +0.000 C 
ATOM     16  C   UNL     1      49.758   7.873  19.689  0.00  0.00    +0.000 C 
ENDBRANCH  10  11
ENDBRANCH   9  10
ENDBRANCH   8   9
ENDBRANCH   5   8
ENDBRANCH   1   2
BRANCH   1  18
ATOM     17  C   UNL     1      46.191   8.630  12.095  0.00  0.00    +0.000 C 
ATOM     18  N   UNL     1      46.029   7.185  12.024  0.00  0.00    +0.000 N 
ATOM     19  C   UNL     1      44.770   6.729  11.591  0.00  0.00    +0.000 C 
ATOM     20  O   UNL     1      43.879   7.528  11.307  0.00  0.00    +0.000 OA
BRANCH  19  21
ATOM     21  C   UNL     1      44.499   5.289  11.518  0.00  0.00    +0.000 A 
ATOM     22  C   UNL     1      43.774   4.572  12.457  0.00  0.00    +0.000 A 
ATOM     23  S   UNL     1      43.547   2.931  12.043  0.00  0.00    +0.000 S 
ATOM     24  C   UNL     1      44.287   3.159  10.528  0.00  0.00    +0.000 A 
ATOM     25  N   UNL     1      44.321   2.157   9.607  0.00  0.00    +0.000 NA
ATOM     26  C   UNL     1      44.841   2.504   8.474  0.00  0.00    +0.000 A 
ATOM     27  N   UNL     1      45.365   3.738   8.194  0.00  0.00    +0.000 N 
ATOM     28  C   UNL     1      45.479   4.734   9.143  0.00  0.00    +0.000 A 
ATOM     29  O   UNL     1      46.170   5.724   8.934  0.00  0.00    +0.000 OA
ATOM     30  C   UNL     1      44.787   4.439  10.385  0.00  0.00    +0.000 A 
ATOM     31  H   UNL     1      45.818   3.920   7.313  0.00  0.00    +0.000 HD
ENDBRANCH  19  21
ENDBRANCH   1  18
TORSDOF 7
ENDMDL
MODEL 4
REMARK VINA RESULT:    -6.615      3.635      8.962
REMARK INTER + INTRA:         -10.600
REMARK INTER:                  -9.493
REMARK INTRA:                  -1.107
REMARK UNBOUND:                -1.279
REMARK  Name = 
REMARK  8 active torsions:
REMARK  status: ('A' for Active; 'I' for Inactive)
REMARK    1  A    between atoms: C_1  and  N_2
REMARK    2  A    between atoms: N_2  and  C_3
REMARK    3  A    between atoms: C_3  and  C_4
REMARK    4  A    between atoms: C_7  and  C_8
REMARK    5  A    between atoms: C_8  and  C_9
REMARK    6  A    between atoms: C_9  and  C_10
REMARK    7  A    between atoms: C_10  and  N_11
REMARK    8  A    between atoms: C_19  and  C_21
REMARK                            x       y       z     vdW  Elec       q    Type
REMARK                         _______ _______ _______ _____ _____    ______ ____
ROOT
ATOM      1  C   UNL     1      47.269   7.366  13.734  0.00  0.00    +0.000 C 
ENDROOT
BRANCH   1   2
ATOM      2  C   UNL     1      46.561   6.360  12.867  0.00  0.00    +0.000 A 
ATOM      3  C   UNL     1      46.128   5.145  13.418  0.00  0.00    +0.000 A 
ATOM      4  C   UNL     1      45.427   4.234  12.636  0.00  0.00    +0.000 A 
ATOM      5  C   UNL     1      45.118   4.535  11.302  0.00  0.00    +0.000 A 
ATOM      6  C   UNL     1      45.593   5.722  10.738  0.00  0.00    +0.000 A 
ATOM      7  C   UNL     1      46.312   6.627  11.516  0.00  0.00    +0.000 A 
BRANCH   5   8
ATOM      8  C   UNL     1      44.258   3.590  10.506  0.00  0.00    +0.000 C 
BRANCH   8   9
ATOM      9  C   UNL     1      44.845   3.378   9.096  0.00  0.00    +0.000 C 
BRANCH   9  10
ATOM     10  C   UNL     1      45.456   1.988   8.885  0.00  0.00    +0.000 C 
BRANCH  10  11
ATOM     11  N   UNL     1      46.282   2.033   7.709  0.00  0.00    +0.000 NA
ATOM     12  C   UNL     1      46.702   3.309   7.152  0.00  0.00    +0.000 C 
ATOM     13  C   UNL     1      46.893   3.140   5.635  0.00  0.00    +0.000 C 
ATOM     14  O   UNL     1      47.803   2.069   5.332  0.00  0.00    +0.000 OA
ATOM     15  C   UNL     1      47.324   0.833   5.887  0.00  0.00    +0.000 C 
ATOM     16  C   UNL     1      47.168   0.922   7.413  0.00  0.00    +0.000 C 
ENDBRANCH  10  11
ENDBRANCH   9  10
ENDBRANCH   8   9
ENDBRANCH   5   8
ENDBRANCH   1   2
BRANCH   1  18
ATOM     17  C   UNL     1      49.474   7.710  12.524  0.00  0.00    +0.000 C 
ATOM     18  N   UNL     1      48.735   7.363  13.731  0.00  0.00    +0.000 N 
ATOM     19  C   UNL     1      49.511   7.150  14.884  0.00  0.00    +0.000 C 
ATOM     20  O   UNL     1      50.737   7.251  14.843  0.00  0.00    +0.000 OA
BRANCH  19  21
ATOM     21  C   UNL     1      48.862   6.763  16.142  0.00  0.00    +0.000 A 
ATOM     22  C   UNL     1      48.740   5.461  16.601  0.00  0.00    +0.000 A 
ATOM     23  S   UNL     1      48.020   5.340  18.145  0.00  0.00    +0.000 S 
ATOM     24  C   UNL     1      47.978   7.033  18.312  0.00  0.00    +0.000 A 
ATOM     25  N   UNL     1      47.575   7.612  19.476  0.00  0.00    +0.000 NA
ATOM     26  C   UNL     1      47.675   8.903  19.482  0.00  0.00    +0.000 A 
ATOM     27  N   UNL     1      48.098   9.664  18.424  0.00  0.00    +0.000 N 
ATOM     28  C   UNL     1      48.379   9.127  17.184  0.00  0.00    +0.000 A 
ATOM     29  O   UNL     1      48.509   9.850  16.202  0.00  0.00    +0.000 OA
ATOM     30  C   UNL     1      48.412   7.675  17.168  0.00  0.00    +0.000 A 
ATOM     31  H   UNL     1      48.086  10.669  18.473  0.00  0.00    +0.000 HD
ENDBRANCH  19  21
ENDBRANCH   1  18
TORSDOF 7
ENDMDL
MODEL 5
REMARK VINA RESULT:    -6.567      2.621      8.487
REMARK INTER + INTRA:         -10.533
REMARK INTER:                  -9.371
REMARK INTRA:                  -1.162
REMARK UNBOUND:                -1.279
REMARK  Name = 
REMARK  8 active torsions:
REMARK  status: ('A' for Active; 'I' for Inactive)
REMARK    1  A    between atoms: C_1  and  N_2
REMARK    2  A    between atoms: N_2  and  C_3
REMARK    3  A    between atoms: C_3  and  C_4
REMARK    4  A    between atoms: C_7  and  C_8
REMARK    5  A    between atoms: C_8  and  C_9
REMARK    6  A    between atoms: C_9  and  C_10
REMARK    7  A    between atoms: C_10  and  N_11
REMARK    8  A    between atoms: C_19  and  C_21
REMARK                            x       y       z     vdW  Elec       q    Type
REMARK                         _______ _______ _______ _____ _____    ______ ____
ROOT
ATOM      1  C   UNL     1      49.411   6.932  15.391  0.00  0.00    +0.000 C 
ENDROOT
BRANCH   1   2
ATOM      2  C   UNL     1      48.256   6.923  14.427  0.00  0.00    +0.000 A 
ATOM      3  C   UNL     1      47.669   5.706  14.050  0.00  0.00    +0.000 A 
ATOM      4  C   UNL     1      46.568   5.693  13.202  0.00  0.00    +0.000 A 
ATOM      5  C   UNL     1      46.014   6.897  12.742  0.00  0.00    +0.000 A 
ATOM      6  C   UNL     1      46.628   8.107  13.074  0.00  0.00    +0.000 A 
ATOM      7  C   UNL     1      47.744   8.119  13.910  0.00  0.00    +0.000 A 
BRANCH   5   8
ATOM      8  C   UNL     1      44.753   6.869  11.921  0.00  0.00    +0.000 C 
BRANCH   8   9
ATOM      9  C   UNL     1      44.075   5.487  12.011  0.00  0.00    +0.000 C 
BRANCH   9  10
ATOM     10  C   UNL     1      43.341   5.076  10.731  0.00  0.00    +0.000 C 
BRANCH  10  11
ATOM     11  N   UNL     1      44.197   4.195   9.983  0.00  0.00    +0.000 NA
ATOM     12  C   UNL     1      45.303   4.729   9.205  0.00  0.00    +0.000 C 
ATOM     13  C   UNL     1      45.557   3.792   8.011  0.00  0.00    +0.000 C 
ATOM     14  O   UNL     1      45.774   2.437   8.439  0.00  0.00    +0.000 OA
ATOM     15  C   UNL     1      44.640   1.958   9.180  0.00  0.00    +0.000 C 
ATOM     16  C   UNL     1      44.371   2.823  10.422  0.00  0.00    +0.000 C 
ENDBRANCH  10  11
ENDBRANCH   9  10
ENDBRANCH   8   9
ENDBRANCH   5   8
ENDBRANCH   1   2
BRANCH   1  18
ATOM     17  C   UNL     1      49.368   8.976  16.895  0.00  0.00    +0.000 C 
ATOM     18  N   UNL     1      49.201   7.541  16.708  0.00  0.00    +0.000 N 
ATOM     19  C   UNL     1      48.722   6.829  17.822  0.00  0.00    +0.000 C 
ATOM     20  O   UNL     1      48.475   7.411  18.879  0.00  0.00    +0.000 OA
BRANCH  19  21
ATOM     21  C   UNL     1      48.553   5.373  17.743  0.00  0.00    +0.000 A 
ATOM     22  C   UNL     1      47.349   4.729  17.506  0.00  0.00    +0.000 A 
ATOM     23  S   UNL     1      47.491   3.033  17.374  0.00  0.00    +0.000 S 
ATOM     24  C   UNL     1      49.187   3.117  17.489  0.00  0.00    +0.000 A 
ATOM     25  N   UNL     1      49.956   2.005  17.331  0.00  0.00    +0.000 NA
ATOM     26  C   UNL     1      51.229   2.238  17.362  0.00  0.00    +0.000 A 
ATOM     27  N   UNL     1      51.799   3.465  17.577  0.00  0.00    +0.000 N 
ATOM     28  C   UNL     1      51.058   4.589  17.882  0.00  0.00    +0.000 A 
ATOM     29  O   UNL     1      51.600   5.601  18.311  0.00  0.00    +0.000 OA
ATOM     30  C   UNL     1      49.625   4.405  17.724  0.00  0.00    +0.000 A 
ATOM     31  H   UNL     1      52.797   3.564  17.658  0.00  0.00    +0.000 HD
ENDBRANCH  19  21
ENDBRANCH   1  18
TORSDOF 7
ENDMDL
MODEL 6
REMARK VINA RESULT:    -6.504      3.029      8.664
REMARK INTER + INTRA:         -10.444
REMARK INTER:                  -9.547
REMARK INTRA:                  -0.897
REMARK UNBOUND:                -1.279
REMARK  Name = 
REMARK  8 active torsions:
REMARK  status: ('A' for Active; 'I' for Inactive)
REMARK    1  A    between atoms: C_1  and  N_2
REMARK    2  A    between atoms: N_2  and  C_3
REMARK    3  A    between atoms: C_3  and  C_4
REMARK    4  A    between atoms: C_7  and  C_8
REMARK    5  A    between atoms: C_8  and  C_9
REMARK    6  A    between atoms: C_9  and  C_10
REMARK    7  A    between atoms: C_10  and  N_11
REMARK    8  A    between atoms: C_19  and  C_21
REMARK                            x       y       z     vdW  Elec       q    Type
REMARK                         _______ _______ _______ _____ _____    ______ ____
ROOT
ATOM      1  C   UNL     1      48.470   6.491  13.585  0.00  0.00    +0.000 C 
ENDROOT
BRANCH   1   2
ATOM      2  C   UNL     1      47.242   6.035  12.846  0.00  0.00    +0.000 A 
ATOM      3  C   UNL     1      46.946   6.571  11.583  0.00  0.00    +0.000 A 
ATOM      4  C   UNL     1      45.842   6.116  10.872  0.00  0.00    +0.000 A 
ATOM      5  C   UNL     1      45.033   5.097  11.394  0.00  0.00    +0.000 A 
ATOM      6  C   UNL     1      45.296   4.599  12.673  0.00  0.00    +0.000 A 
ATOM      7  C   UNL     1      46.393   5.068  13.395  0.00  0.00    +0.000 A 
BRANCH   5   8
ATOM      8  C   UNL     1      43.912   4.536  10.561  0.00  0.00    +0.000 C 
BRANCH   8   9
ATOM      9  C   UNL     1      44.390   3.302   9.769  0.00  0.00    +0.000 C 
BRANCH   9  10
ATOM     10  C   UNL     1      44.595   3.570   8.274  0.00  0.00    +0.000 C 
BRANCH  10  11
ATOM     11  N   UNL     1      45.775   2.867   7.848  0.00  0.00    +0.000 NA
ATOM     12  C   UNL     1      46.908   3.595   7.299  0.00  0.00    +0.000 C 
ATOM     13  C   UNL     1      47.643   2.678   6.306  0.00  0.00    +0.000 C 
ATOM     14  O   UNL     1      48.018   1.432   6.916  0.00  0.00    +0.000 OA
ATOM     15  C   UNL     1      46.857   0.749   7.417  0.00  0.00    +0.000 C 
ATOM     16  C   UNL     1      46.112   1.596   8.460  0.00  0.00    +0.000 C 
ENDBRANCH  10  11
ENDBRANCH   9  10
ENDBRANCH   8   9
ENDBRANCH   5   8
ENDBRANCH   1   2
BRANCH   1  18
ATOM     17  C   UNL     1      47.949   8.966  13.801  0.00  0.00    +0.000 C 
ATOM     18  N   UNL     1      48.370   7.707  14.399  0.00  0.00    +0.000 N 
ATOM     19  C   UNL     1      48.548   7.720  15.794  0.00  0.00    +0.000 C 
ATOM     20  O   UNL     1      48.360   8.751  16.440  0.00  0.00    +0.000 OA
BRANCH  19  21
ATOM     21  C   UNL     1      49.003   6.508  16.486  0.00  0.00    +0.000 A 
ATOM     22  C   UNL     1      48.194   5.431  16.809  0.00  0.00    +0.000 A 
ATOM     23  S   UNL     1      49.036   4.129  17.525  0.00  0.00    +0.000 S 
ATOM     24  C   UNL     1      50.532   4.906  17.295  0.00  0.00    +0.000 A 
ATOM     25  N   UNL     1      51.701   4.275  17.590  0.00  0.00    +0.000 NA
ATOM     26  C   UNL     1      52.758   4.958  17.286  0.00  0.00    +0.000 A 
ATOM     27  N   UNL     1      52.752   6.222  16.758  0.00  0.00    +0.000 N 
ATOM     28  C   UNL     1      51.593   6.950  16.577  0.00  0.00    +0.000 A 
ATOM     29  O   UNL     1      51.637   8.152  16.342  0.00  0.00    +0.000 OA
ATOM     30  C   UNL     1      50.380   6.177  16.776  0.00  0.00    +0.000 A 
ATOM     31  H   UNL     1      53.612   6.724  16.609  0.00  0.00    +0.000 HD
ENDBRANCH  19  21
ENDBRANCH   1  18
TORSDOF 7
ENDMDL
MODEL 7
REMARK VINA RESULT:    -6.492      3.471      8.357
REMARK INTER + INTRA:         -10.427
REMARK INTER:                  -8.947
REMARK INTRA:                  -1.480
REMARK UNBOUND:                -1.279
REMARK  Name = 
REMARK  8 active torsions:
REMARK  status: ('A' for Active; 'I' for Inactive)
REMARK    1  A    between atoms: C_1  and  N_2
REMARK    2  A    between atoms: N_2  and  C_3
REMARK    3  A    between atoms: C_3  and  C_4
REMARK    4  A    between atoms: C_7  and  C_8
REMARK    5  A    between atoms: C_8  and  C_9
REMARK    6  A    between atoms: C_9  and  C_10
REMARK    7  A    between atoms: C_10  and  N_11
REMARK    8  A    between atoms: C_19  and  C_21
REMARK                            x       y       z     vdW  Elec       q    Type
REMARK                         _______ _______ _______ _____ _____    ______ ____
ROOT
ATOM      1  C   UNL     1      49.338   8.284  17.423  0.00  0.00    +0.000 C 
ENDROOT
BRANCH   1   2
ATOM      2  C   UNL     1      48.889   8.124  15.996  0.00  0.00    +0.000 A 
ATOM      3  C   UNL     1      49.297   7.004  15.256  0.00  0.00    +0.000 A 
ATOM      4  C   UNL     1      48.843   6.823  13.955  0.00  0.00    +0.000 A 
ATOM      5  C   UNL     1      47.949   7.739  13.382  0.00  0.00    +0.000 A 
ATOM      6  C   UNL     1      47.582   8.880  14.099  0.00  0.00    +0.000 A 
ATOM      7  C   UNL     1      48.052   9.072  15.398  0.00  0.00    +0.000 A 
BRANCH   5   8
ATOM      8  C   UNL     1      47.377   7.465  12.017  0.00  0.00    +0.000 C 
BRANCH   8   9
ATOM      9  C   UNL     1      46.517   6.186  12.034  0.00  0.00    +0.000 C 
BRANCH   9  10
ATOM     10  C   UNL     1      45.019   6.447  11.850  0.00  0.00    +0.000 C 
BRANCH  10  11
ATOM     11  N   UNL     1      44.363   5.185  11.639  0.00  0.00    +0.000 NA
ATOM     12  C   UNL     1      43.511   4.616  12.672  0.00  0.00    +0.000 C 
ATOM     13  C   UNL     1      43.551   3.084  12.547  0.00  0.00    +0.000 C 
ATOM     14  O   UNL     1      43.194   2.651  11.224  0.00  0.00    +0.000 OA
ATOM     15  C   UNL     1      44.083   3.225  10.252  0.00  0.00    +0.000 C 
ATOM     16  C   UNL     1      44.043   4.761  10.289  0.00  0.00    +0.000 C 
ENDBRANCH  10  11
ENDBRANCH   9  10
ENDBRANCH   8   9
ENDBRANCH   5   8
ENDBRANCH   1   2
BRANCH   1  18
ATOM     17  C   UNL     1      47.358   8.699  18.956  0.00  0.00    +0.000 C 
ATOM     18  N   UNL     1      48.430   7.834  18.483  0.00  0.00    +0.000 N 
ATOM     19  C   UNL     1      48.449   6.533  19.018  0.00  0.00    +0.000 C 
ATOM     20  O   UNL     1      47.603   6.181  19.839  0.00  0.00    +0.000 OA
BRANCH  19  21
ATOM     21  C   UNL     1      49.510   5.597  18.628  0.00  0.00    +0.000 A 
ATOM     22  C   UNL     1      50.798   5.606  19.137  0.00  0.00    +0.000 A 
ATOM     23  S   UNL     1      51.775   4.330  18.559  0.00  0.00    +0.000 S 
ATOM     24  C   UNL     1      50.465   3.642  17.719  0.00  0.00    +0.000 A 
ATOM     25  N   UNL     1      50.590   2.442  17.088  0.00  0.00    +0.000 NA
ATOM     26  C   UNL     1      49.489   2.008  16.564  0.00  0.00    +0.000 A 
ATOM     27  N   UNL     1      48.294   2.678  16.577  0.00  0.00    +0.000 N 
ATOM     28  C   UNL     1      48.160   3.956  17.080  0.00  0.00    +0.000 A 
ATOM     29  O   UNL     1      47.154   4.618  16.853  0.00  0.00    +0.000 OA
ATOM     30  C   UNL     1      49.332   4.428  17.798  0.00  0.00    +0.000 A 
ATOM     31  H   UNL     1      47.492   2.313  16.089  0.00  0.00    +0.000 HD
ENDBRANCH  19  21
ENDBRANCH   1  18
TORSDOF 7
ENDMDL
MODEL 8
REMARK VINA RESULT:    -6.471      3.897      8.656
REMARK INTER + INTRA:         -10.398
REMARK INTER:                  -9.162
REMARK INTRA:                  -1.235
REMARK UNBOUND:                -1.279
REMARK  Name = 
REMARK  8 active torsions:
REMARK  status: ('A' for Active; 'I' for Inactive)
REMARK    1  A    between atoms: C_1  and  N_2
REMARK    2  A    between atoms: N_2  and  C_3
REMARK    3  A    between atoms: C_3  and  C_4
REMARK    4  A    between atoms: C_7  and  C_8
REMARK    5  A    between atoms: C_8  and  C_9
REMARK    6  A    between atoms: C_9  and  C_10
REMARK    7  A    between atoms: C_10  and  N_11
REMARK    8  A    between atoms: C_19  and  C_21
REMARK                            x       y       z     vdW  Elec       q    Type
REMARK                         _______ _______ _______ _____ _____    ______ ____
ROOT
ATOM      1  C   UNL     1      47.328   8.436  13.316  0.00  0.00    +0.000 C 
ENDROOT
BRANCH   1   2
ATOM      2  C   UNL     1      46.286   7.458  12.847  0.00  0.00    +0.000 A 
ATOM      3  C   UNL     1      45.326   7.857  11.905  0.00  0.00    +0.000 A 
ATOM      4  C   UNL     1      44.393   6.944  11.427  0.00  0.00    +0.000 A 
ATOM      5  C   UNL     1      44.423   5.610  11.858  0.00  0.00    +0.000 A 
ATOM      6  C   UNL     1      45.345   5.223  12.833  0.00  0.00    +0.000 A 
ATOM      7  C   UNL     1      46.269   6.143  13.326  0.00  0.00    +0.000 A 
BRANCH   5   8
ATOM      8  C   UNL     1      43.481   4.609  11.243  0.00  0.00    +0.000 C 
BRANCH   8   9
ATOM      9  C   UNL     1      44.028   4.108   9.891  0.00  0.00    +0.000 C 
BRANCH   9  10
ATOM     10  C   UNL     1      44.876   2.837  10.001  0.00  0.00    +0.000 C 
BRANCH  10  11
ATOM     11  N   UNL     1      45.517   2.611   8.734  0.00  0.00    +0.000 NA
ATOM     12  C   UNL     1      45.859   1.261   8.312  0.00  0.00    +0.000 C 
ATOM     13  C   UNL     1      47.092   1.335   7.396  0.00  0.00    +0.000 C 
ATOM     14  O   UNL     1      46.881   2.231   6.293  0.00  0.00    +0.000 OA
ATOM     15  C   UNL     1      46.571   3.550   6.772  0.00  0.00    +0.000 C 
ATOM     16  C   UNL     1      45.308   3.550   7.648  0.00  0.00    +0.000 C 
ENDBRANCH  10  11
ENDBRANCH   9  10
ENDBRANCH   8   9
ENDBRANCH   5   8
ENDBRANCH   1   2
BRANCH   1  18
ATOM     17  C   UNL     1      49.125   7.663  11.699  0.00  0.00    +0.000 C 
ATOM     18  N   UNL     1      48.732   8.138  13.019  0.00  0.00    +0.000 N 
ATOM     19  C   UNL     1      49.785   8.394  13.916  0.00  0.00    +0.000 C 
ATOM     20  O   UNL     1      50.955   8.211  13.579  0.00  0.00    +0.000 OA
BRANCH  19  21
ATOM     21  C   UNL     1      49.489   8.844  15.282  0.00  0.00    +0.000 A 
ATOM     22  C   UNL     1      49.480  10.167  15.694  0.00  0.00    +0.000 A 
ATOM     23  S   UNL     1      49.004  10.377  17.320  0.00  0.00    +0.000 S 
ATOM     24  C   UNL     1      48.657   8.719  17.484  0.00  0.00    +0.000 A 
ATOM     25  N   UNL     1      48.091   8.231  18.622  0.00  0.00    +0.000 NA
ATOM     26  C   UNL     1      47.809   6.969  18.569  0.00  0.00    +0.000 A 
ATOM     27  N   UNL     1      48.080   6.147  17.506  0.00  0.00    +0.000 N 
ATOM     28  C   UNL     1      48.781   6.570  16.394  0.00  0.00    +0.000 A 
ATOM     29  O   UNL     1      49.221   5.763  15.585  0.00  0.00    +0.000 OA
ATOM     30  C   UNL     1      48.996   8.006  16.351  0.00  0.00    +0.000 A 
ATOM     31  H   UNL     1      47.898   5.158  17.558  0.00  0.00    +0.000 HD
ENDBRANCH  19  21
ENDBRANCH   1  18
TORSDOF 7
ENDMDL
MODEL 9
REMARK VINA RESULT:    -6.350      2.796      8.228
REMARK INTER + INTRA:         -10.227
REMARK INTER:                  -8.721
REMARK INTRA:                  -1.506
REMARK UNBOUND:                -1.279
REMARK  Name = 
REMARK  8 active torsions:
REMARK  status: ('A' for Active; 'I' for Inactive)
REMARK    1  A    between atoms: C_1  and  N_2
REMARK    2  A    between atoms: N_2  and  C_3
REMARK    3  A    between atoms: C_3  and  C_4
REMARK    4  A    between atoms: C_7  and  C_8
REMARK    5  A    between atoms: C_8  and  C_9
REMARK    6  A    between atoms: C_9  and  C_10
REMARK    7  A    between atoms: C_10  and  N_11
REMARK    8  A    between atoms: C_19  and  C_21
REMARK                            x       y       z     vdW  Elec       q    Type
REMARK                         _______ _______ _______ _____ _____    ______ ____
ROOT
ATOM      1  C   UNL     1      49.976   7.347  17.114  0.00  0.00    +0.000 C 
ENDROOT
BRANCH   1   2
ATOM      2  C   UNL     1      49.151   7.576  15.876  0.00  0.00    +0.000 A 
ATOM      3  C   UNL     1      48.434   8.771  15.724  0.00  0.00    +0.000 A 
ATOM      4  C   UNL     1      47.713   9.011  14.560  0.00  0.00    +0.000 A 
ATOM      5  C   UNL     1      47.722   8.076  13.516  0.00  0.00    +0.000 A 
ATOM      6  C   UNL     1      48.394   6.863  13.686  0.00  0.00    +0.000 A 
ATOM      7  C   UNL     1      49.102   6.614  14.860  0.00  0.00    +0.000 A 
BRANCH   5   8
ATOM      8  C   UNL     1      47.033   8.404  12.218  0.00  0.00    +0.000 C 
BRANCH   8   9
ATOM      9  C   UNL     1      46.126   7.238  11.775  0.00  0.00    +0.000 C 
BRANCH   9  10
ATOM     10  C   UNL     1      44.920   7.013  12.692  0.00  0.00    +0.000 C 
BRANCH  10  11
ATOM     11  N   UNL     1      44.619   5.606  12.704  0.00  0.00    +0.000 NA
ATOM     12  C   UNL     1      45.554   4.658  13.289  0.00  0.00    +0.000 C 
ATOM     13  C   UNL     1      45.397   3.310  12.565  0.00  0.00    +0.000 C 
ATOM     14  O   UNL     1      44.037   2.848  12.596  0.00  0.00    +0.000 OA
ATOM     15  C   UNL     1      43.166   3.813  11.984  0.00  0.00    +0.000 C 
ATOM     16  C   UNL     1      43.235   5.170  12.703  0.00  0.00    +0.000 C 
ENDBRANCH  10  11
ENDBRANCH   9  10
ENDBRANCH   8   9
ENDBRANCH   5   8
ENDBRANCH   1   2
BRANCH   1  18
ATOM     17  C   UNL     1      49.296   8.583  19.224  0.00  0.00    +0.000 C 
ATOM     18  N   UNL     1      49.290   7.376  18.410  0.00  0.00    +0.000 N 
ATOM     19  C   UNL     1      48.500   6.316  18.890  0.00  0.00    +0.000 C 
ATOM     20  O   UNL     1      47.871   6.430  19.942  0.00  0.00    +0.000 OA
BRANCH  19  21
ATOM     21  C   UNL     1      48.455   5.046  18.157  0.00  0.00    +0.000 A 
ATOM     22  C   UNL     1      47.437   4.665  17.298  0.00  0.00    +0.000 A 
ATOM     23  S   UNL     1      47.717   3.171  16.519  0.00  0.00    +0.000 S 
ATOM     24  C   UNL     1      49.274   3.054  17.196  0.00  0.00    +0.000 A 
ATOM     25  N   UNL     1      50.118   2.047  16.842  0.00  0.00    +0.000 NA
ATOM     26  C   UNL     1      51.294   2.136  17.375  0.00  0.00    +0.000 A 
ATOM     27  N   UNL     1      51.687   3.109  18.257  0.00  0.00    +0.000 N 
ATOM     28  C   UNL     1      50.819   4.063  18.750  0.00  0.00    +0.000 A 
ATOM     29  O   UNL     1      51.129   4.755  19.714  0.00  0.00    +0.000 OA
ATOM     30  C   UNL     1      49.531   4.085  18.079  0.00  0.00    +0.000 A 
ATOM     31  H   UNL     1      52.596   3.080  18.688  0.00  0.00    +0.000 HD
ENDBRANCH  19  21
ENDBRANCH   1  18
TORSDOF 7
ENDMDL
