MODEL 1
REMARK VINA RESULT:    -8.659      0.000      0.000
REMARK INTER + INTRA:         -14.250
REMARK INTER:                 -13.215
REMARK INTRA:                  -1.035
REMARK UNBOUND:                -1.035
REMARK  Name = 
REMARK  10 active torsions:
REMARK  status: ('A' for Active; 'I' for Inactive)
REMARK    1  A    between atoms: N_1  and  C_2
REMARK    2  A    between atoms: C_2  and  N_3
REMARK    3  A    between atoms: C_2  and  C_21
REMARK    4  A    between atoms: N_3  and  C_4
REMARK    5  A    between atoms: C_4  and  C_5
REMARK    6  A    between atoms: C_8  and  C_9
REMARK    7  A    between atoms: C_9  and  N_10
REMARK    8  A    between atoms: N_10  and  C_11
REMARK    9  A    between atoms: C_11  and  C_12
REMARK   10  A    between atoms: C_28  and  O_29
REMARK                            x       y       z     vdW  Elec       q    Type
REMARK                         _______ _______ _______ _____ _____    ______ ____
ROOT
ATOM      1  C   UNL     1      47.579   5.150  14.691  0.00  0.00    +0.000 C 
ENDROOT
BRANCH   1   2
ATOM      2  C   UNL     1      46.565   4.964  13.580  0.00  0.00    +0.000 A 
ATOM      3  C   UNL     1      46.209   3.682  13.143  0.00  0.00    +0.000 A 
ATOM      4  C   UNL     1      45.246   3.512  12.140  0.00  0.00    +0.000 A 
ATOM      5  C   UNL     1      44.607   4.618  11.564  0.00  0.00    +0.000 A 
ATOM      6  C   UNL     1      44.962   5.899  11.998  0.00  0.00    +0.000 A 
ATOM      7  C   UNL     1      45.934   6.070  12.994  0.00  0.00    +0.000 A 
BRANCH   5   8
ATOM      8  C   UNL     1      43.550   4.420  10.501  0.00  0.00    +0.000 C 
BRANCH   8   9
ATOM      9  N   UNL     1      43.987   3.417   9.534  0.00  0.00    +0.000 NA
ATOM     10  H   UNL     1      43.163   2.979   9.124  0.00  0.00    +0.000 HD
BRANCH   9  11
ATOM     11  C   UNL     1      44.799   3.996   8.465  0.00  0.00    +0.000 C 
BRANCH  11  12
ATOM     12  C   UNL     1      45.757   2.959   7.932  0.00  0.00    +0.000 A 
ATOM     13  C   UNL     1      45.753   1.653   8.445  0.00  0.00    +0.000 A 
ATOM     14  C   UNL     1      46.590   0.673   7.905  0.00  0.00    +0.000 A 
ATOM     15  C   UNL     1      47.449   0.991   6.853  0.00  0.00    +0.000 A 
ATOM     16  C   UNL     1      47.482   2.292   6.354  0.00  0.00    +0.000 A 
ATOM     17  C   UNL     1      46.643   3.263   6.897  0.00  0.00    +0.000 A 
ATOM     18  F   UNL     1      46.687   4.505   6.391  0.00  0.00    +0.000 F 
ENDBRANCH  11  12
ENDBRANCH   9  11
ENDBRANCH   8   9
ENDBRANCH   5   8
ENDBRANCH   1   2
BRANCH   1  19
ATOM     19  N   UNL     1      47.024   4.807  16.000  0.00  0.00    +0.000 NA
ATOM     20  H   UNL     1      47.198   5.595  16.624  0.00  0.00    +0.000 HD
BRANCH  19  21
ATOM     21  C   UNL     1      47.632   3.646  16.623  0.00  0.00    +0.000 C 
BRANCH  21  22
ATOM     22  C   UNL     1      48.772   4.130  17.489  0.00  0.00    +0.000 A 
ATOM     23  C   UNL     1      48.721   5.292  18.254  0.00  0.00    +0.000 A 
ATOM     24  S   UNL     1      50.139   5.596  19.139  0.00  0.00    +0.000 S 
ATOM     25  C   UNL     1      50.881   4.195  18.527  0.00  0.00    +0.000 A 
ATOM     26  N   UNL     1      52.140   3.890  18.904  0.00  0.00    +0.000 NA
ATOM     27  C   UNL     1      52.624   2.759  18.362  0.00  0.00    +0.000 A 
ATOM     28  C   UNL     1      51.939   1.935  17.492  0.00  0.00    +0.000 A 
ATOM     29  C   UNL     1      50.640   2.295  17.131  0.00  0.00    +0.000 A 
ATOM     30  C   UNL     1      50.064   3.475  17.656  0.00  0.00    +0.000 A 
BRANCH  29  31
ATOM     31  O   UNL     1      49.938   1.495  16.263  0.00  0.00    +0.000 OA
ATOM     32  H   UNL     1      49.020   1.421  16.575  0.00  0.00    +0.000 HD
ENDBRANCH  29  31
ENDBRANCH  21  22
BRANCH  21  33
ATOM     33  N   UNL     1      46.644   3.069  17.499  0.00  0.00    +0.000 NA
ATOM     34  H   UNL     1      47.100   2.401  18.109  0.00  0.00    +0.000 HD
ATOM     35  H   UNL     1      46.029   2.519  16.904  0.00  0.00    +0.000 HD
ENDBRANCH  21  33
ENDBRANCH  19  21
ENDBRANCH   1  19
TORSDOF 10
ENDMDL
MODEL 2
REMARK VINA RESULT:    -8.536      1.868      2.767
REMARK INTER + INTRA:         -14.062
REMARK INTER:                 -12.899
REMARK INTRA:                  -1.163
REMARK UNBOUND:                -1.035
REMARK  Name = 
REMARK  10 active torsions:
REMARK  status: ('A' for Active; 'I' for Inactive)
REMARK    1  A    between atoms: N_1  and  C_2
REMARK    2  A    between atoms: C_2  and  N_3
REMARK    3  A    between atoms: C_2  and  C_21
REMARK    4  A    between atoms: N_3  and  C_4
REMARK    5  A    between atoms: C_4  and  C_5
REMARK    6  A    between atoms: C_8  and  C_9
REMARK    7  A    between atoms: C_9  and  N_10
REMARK    8  A    between atoms: N_10  and  C_11
REMARK    9  A    between atoms: C_11  and  C_12
REMARK   10  A    between atoms: C_28  and  O_29
REMARK                            x       y       z     vdW  Elec       q    Type
REMARK                         _______ _______ _______ _____ _____    ______ ____
ROOT
ATOM      1  C   UNL     1      47.738   5.145  15.160  0.00  0.00    +0.000 C 
ENDROOT
BRANCH   1   2
ATOM      2  C   UNL     1      46.953   5.171  13.864  0.00  0.00    +0.000 A 
ATOM      3  C   UNL     1      46.115   4.107  13.512  0.00  0.00    +0.000 A 
ATOM      4  C   UNL     1      45.364   4.149  12.330  0.00  0.00    +0.000 A 
ATOM      5  C   UNL     1      45.423   5.263  11.483  0.00  0.00    +0.000 A 
ATOM      6  C   UNL     1      46.261   6.328  11.831  0.00  0.00    +0.000 A 
ATOM      7  C   UNL     1      47.021   6.279  13.008  0.00  0.00    +0.000 A 
BRANCH   5   8
ATOM      8  C   UNL     1      44.587   5.308  10.223  0.00  0.00    +0.000 C 
BRANCH   8   9
ATOM      9  N   UNL     1      45.404   4.968   9.062  0.00  0.00    +0.000 NA
ATOM     10  H   UNL     1      46.278   4.558   9.388  0.00  0.00    +0.000 HD
BRANCH   9  11
ATOM     11  C   UNL     1      44.737   4.019   8.173  0.00  0.00    +0.000 C 
BRANCH  11  12
ATOM     12  C   UNL     1      45.747   3.053   7.606  0.00  0.00    +0.000 A 
ATOM     13  C   UNL     1      46.551   3.419   6.515  0.00  0.00    +0.000 A 
ATOM     14  C   UNL     1      47.536   2.553   6.033  0.00  0.00    +0.000 A 
ATOM     15  C   UNL     1      47.720   1.305   6.629  0.00  0.00    +0.000 A 
ATOM     16  C   UNL     1      46.909   0.919   7.694  0.00  0.00    +0.000 A 
ATOM     17  C   UNL     1      45.930   1.789   8.171  0.00  0.00    +0.000 A 
ATOM     18  F   UNL     1      45.170   1.398   9.204  0.00  0.00    +0.000 F 
ENDBRANCH  11  12
ENDBRANCH   9  11
ENDBRANCH   8   9
ENDBRANCH   5   8
ENDBRANCH   1   2
BRANCH   1  19
ATOM     19  N   UNL     1      46.984   4.514  16.242  0.00  0.00    +0.000 NA
ATOM     20  H   UNL     1      46.830   5.220  16.962  0.00  0.00    +0.000 HD
BRANCH  19  21
ATOM     21  C   UNL     1      47.672   3.410  16.887  0.00  0.00    +0.000 C 
BRANCH  21  22
ATOM     22  C   UNL     1      48.785   3.990  17.730  0.00  0.00    +0.000 A 
ATOM     23  C   UNL     1      50.121   3.617  17.607  0.00  0.00    +0.000 A 
ATOM     24  S   UNL     1      51.163   4.431  18.675  0.00  0.00    +0.000 S 
ATOM     25  C   UNL     1      49.871   5.304  19.349  0.00  0.00    +0.000 A 
ATOM     26  N   UNL     1      50.111   6.184  20.345  0.00  0.00    +0.000 NA
ATOM     27  C   UNL     1      49.017   6.820  20.799  0.00  0.00    +0.000 A 
ATOM     28  C   UNL     1      47.733   6.635  20.327  0.00  0.00    +0.000 A 
ATOM     29  C   UNL     1      47.538   5.713  19.298  0.00  0.00    +0.000 A 
ATOM     30  C   UNL     1      48.640   5.000  18.771  0.00  0.00    +0.000 A 
BRANCH  29  31
ATOM     31  O   UNL     1      46.269   5.507  18.813  0.00  0.00    +0.000 OA
ATOM     32  H   UNL     1      46.330   5.040  17.962  0.00  0.00    +0.000 HD
ENDBRANCH  29  31
ENDBRANCH  21  22
BRANCH  21  33
ATOM     33  N   UNL     1      46.732   2.792  17.787  0.00  0.00    +0.000 NA
ATOM     34  H   UNL     1      45.796   2.926  17.423  0.00  0.00    +0.000 HD
ATOM     35  H   UNL     1      46.771   3.333  18.647  0.00  0.00    +0.000 HD
ENDBRANCH  21  33
ENDBRANCH  19  21
ENDBRANCH   1  19
TORSDOF 10
ENDMDL
MODEL 3
REMARK VINA RESULT:    -8.083      1.908      2.502
REMARK INTER + INTRA:         -13.371
REMARK INTER:                 -12.294
REMARK INTRA:                  -1.077
REMARK UNBOUND:                -1.035
REMARK  Name = 
REMARK  10 active torsions:
REMARK  status: ('A' for Active; 'I' for Inactive)
REMARK    1  A    between atoms: N_1  and  C_2
REMARK    2  A    between atoms: C_2  and  N_3
REMARK    3  A    between atoms: C_2  and  C_21
REMARK    4  A    between atoms: N_3  and  C_4
REMARK    5  A    between atoms: C_4  and  C_5
REMARK    6  A    between atoms: C_8  and  C_9
REMARK    7  A    between atoms: C_9  and  N_10
REMARK    8  A    between atoms: N_10  and  C_11
REMARK    9  A    between atoms: C_11  and  C_12
REMARK   10  A    between atoms: C_28  and  O_29
REMARK                            x       y       z     vdW  Elec       q    Type
REMARK                         _______ _______ _______ _____ _____    ______ ____
ROOT
ATOM      1  C   UNL     1      47.323   3.861  14.609  0.00  0.00    +0.000 C 
ENDROOT
BRANCH   1   2
ATOM      2  C   UNL     1      46.457   4.121  13.393  0.00  0.00    +0.000 A 
ATOM      3  C   UNL     1      45.698   3.093  12.821  0.00  0.00    +0.000 A 
ATOM      4  C   UNL     1      44.872   3.344  11.718  0.00  0.00    +0.000 A 
ATOM      5  C   UNL     1      44.773   4.631  11.174  0.00  0.00    +0.000 A 
ATOM      6  C   UNL     1      45.532   5.660  11.743  0.00  0.00    +0.000 A 
ATOM      7  C   UNL     1      46.368   5.405  12.839  0.00  0.00    +0.000 A 
BRANCH   5   8
ATOM      8  C   UNL     1      43.857   4.895  10.000  0.00  0.00    +0.000 C 
BRANCH   8   9
ATOM      9  N   UNL     1      44.275   4.106   8.846  0.00  0.00    +0.000 NA
ATOM     10  H   UNL     1      43.639   4.297   8.073  0.00  0.00    +0.000 HD
BRANCH   9  11
ATOM     11  C   UNL     1      45.639   4.419   8.424  0.00  0.00    +0.000 C 
BRANCH  11  12
ATOM     12  C   UNL     1      46.184   3.294   7.580  0.00  0.00    +0.000 A 
ATOM     13  C   UNL     1      46.637   3.536   6.273  0.00  0.00    +0.000 A 
ATOM     14  C   UNL     1      47.207   2.511   5.515  0.00  0.00    +0.000 A 
ATOM     15  C   UNL     1      47.321   1.227   6.049  0.00  0.00    +0.000 A 
ATOM     16  C   UNL     1      46.849   0.968   7.335  0.00  0.00    +0.000 A 
ATOM     17  C   UNL     1      46.283   1.996   8.086  0.00  0.00    +0.000 A 
ATOM     18  F   UNL     1      45.846   1.722   9.324  0.00  0.00    +0.000 F 
ENDBRANCH  11  12
ENDBRANCH   9  11
ENDBRANCH   8   9
ENDBRANCH   5   8
ENDBRANCH   1   2
BRANCH   1  19
ATOM     19  N   UNL     1      46.915   4.675  15.754  0.00  0.00    +0.000 NA
ATOM     20  H   UNL     1      47.445   5.546  15.716  0.00  0.00    +0.000 HD
BRANCH  19  21
ATOM     21  C   UNL     1      47.197   4.075  17.046  0.00  0.00    +0.000 C 
BRANCH  21  22
ATOM     22  C   UNL     1      48.698   4.047  17.224  0.00  0.00    +0.000 A 
ATOM     23  C   UNL     1      49.421   2.890  17.504  0.00  0.00    +0.000 A 
ATOM     24  S   UNL     1      51.095   3.144  17.648  0.00  0.00    +0.000 S 
ATOM     25  C   UNL     1      50.919   4.808  17.353  0.00  0.00    +0.000 A 
ATOM     26  N   UNL     1      52.010   5.603  17.352  0.00  0.00    +0.000 NA
ATOM     27  C   UNL     1      51.754   6.898  17.104  0.00  0.00    +0.000 A 
ATOM     28  C   UNL     1      50.504   7.431  16.860  0.00  0.00    +0.000 A 
ATOM     29  C   UNL     1      49.408   6.569  16.873  0.00  0.00    +0.000 A 
ATOM     30  C   UNL     1      49.597   5.191  17.133  0.00  0.00    +0.000 A 
BRANCH  29  31
ATOM     31  O   UNL     1      48.152   7.074  16.637  0.00  0.00    +0.000 OA
ATOM     32  H   UNL     1      47.601   6.377  16.245  0.00  0.00    +0.000 HD
ENDBRANCH  29  31
ENDBRANCH  21  22
BRANCH  21  33
ATOM     33  N   UNL     1      46.663   4.961  18.050  0.00  0.00    +0.000 NA
ATOM     34  H   UNL     1      47.149   4.794  18.923  0.00  0.00    +0.000 HD
ATOM     35  H   UNL     1      45.705   4.658  18.208  0.00  0.00    +0.000 HD
ENDBRANCH  21  33
ENDBRANCH  19  21
ENDBRANCH   1  19
TORSDOF 10
ENDMDL
MODEL 4
REMARK VINA RESULT:    -7.987      2.537      3.364
REMARK INTER + INTRA:         -13.224
REMARK INTER:                 -11.552
REMARK INTRA:                  -1.673
REMARK UNBOUND:                -1.035
REMARK  Name = 
REMARK  10 active torsions:
REMARK  status: ('A' for Active; 'I' for Inactive)
REMARK    1  A    between atoms: N_1  and  C_2
REMARK    2  A    between atoms: C_2  and  N_3
REMARK    3  A    between atoms: C_2  and  C_21
REMARK    4  A    between atoms: N_3  and  C_4
REMARK    5  A    between atoms: C_4  and  C_5
REMARK    6  A    between atoms: C_8  and  C_9
REMARK    7  A    between atoms: C_9  and  N_10
REMARK    8  A    between atoms: N_10  and  C_11
REMARK    9  A    between atoms: C_11  and  C_12
REMARK   10  A    between atoms: C_28  and  O_29
REMARK                            x       y       z     vdW  Elec       q    Type
REMARK                         _______ _______ _______ _____ _____    ______ ____
ROOT
ATOM      1  C   UNL     1      48.602   7.408  13.556  0.00  0.00    +0.000 C 
ENDROOT
BRANCH   1   2
ATOM      2  C   UNL     1      47.532   6.507  12.972  0.00  0.00    +0.000 A 
ATOM      3  C   UNL     1      47.103   5.364  13.658  0.00  0.00    +0.000 A 
ATOM      4  C   UNL     1      46.091   4.552  13.133  0.00  0.00    +0.000 A 
ATOM      5  C   UNL     1      45.473   4.874  11.917  0.00  0.00    +0.000 A 
ATOM      6  C   UNL     1      45.900   6.014  11.228  0.00  0.00    +0.000 A 
ATOM      7  C   UNL     1      46.923   6.820  11.749  0.00  0.00    +0.000 A 
BRANCH   5   8
ATOM      8  C   UNL     1      44.362   4.004  11.372  0.00  0.00    +0.000 C 
BRANCH   8   9
ATOM      9  N   UNL     1      44.900   2.731  10.905  0.00  0.00    +0.000 NA
ATOM     10  H   UNL     1      44.644   2.004  11.571  0.00  0.00    +0.000 HD
BRANCH   9  11
ATOM     11  C   UNL     1      44.390   2.364   9.585  0.00  0.00    +0.000 C 
BRANCH  11  12
ATOM     12  C   UNL     1      45.503   2.431   8.569  0.00  0.00    +0.000 A 
ATOM     13  C   UNL     1      46.208   1.273   8.204  0.00  0.00    +0.000 A 
ATOM     14  C   UNL     1      47.191   1.320   7.212  0.00  0.00    +0.000 A 
ATOM     15  C   UNL     1      47.490   2.528   6.582  0.00  0.00    +0.000 A 
ATOM     16  C   UNL     1      46.817   3.690   6.957  0.00  0.00    +0.000 A 
ATOM     17  C   UNL     1      45.837   3.635   7.945  0.00  0.00    +0.000 A 
ATOM     18  F   UNL     1      45.198   4.766   8.280  0.00  0.00    +0.000 F 
ENDBRANCH  11  12
ENDBRANCH   9  11
ENDBRANCH   8   9
ENDBRANCH   5   8
ENDBRANCH   1   2
BRANCH   1  19
ATOM     19  N   UNL     1      49.588   6.654  14.329  0.00  0.00    +0.000 NA
ATOM     20  H   UNL     1      49.078   6.012  14.935  0.00  0.00    +0.000 HD
BRANCH  19  21
ATOM     21  C   UNL     1      50.418   7.469  15.197  0.00  0.00    +0.000 C 
BRANCH  21  22
ATOM     22  C   UNL     1      49.571   7.904  16.372  0.00  0.00    +0.000 A 
ATOM     23  C   UNL     1      49.398   9.234  16.748  0.00  0.00    +0.000 A 
ATOM     24  S   UNL     1      48.390   9.439  18.100  0.00  0.00    +0.000 S 
ATOM     25  C   UNL     1      48.152   7.763  18.241  0.00  0.00    +0.000 A 
ATOM     26  N   UNL     1      47.374   7.282  19.234  0.00  0.00    +0.000 NA
ATOM     27  C   UNL     1      47.254   5.944  19.247  0.00  0.00    +0.000 A 
ATOM     28  C   UNL     1      47.847   5.081  18.347  0.00  0.00    +0.000 A 
ATOM     29  C   UNL     1      48.643   5.627  17.340  0.00  0.00    +0.000 A 
ATOM     30  C   UNL     1      48.823   7.028  17.265  0.00  0.00    +0.000 A 
BRANCH  29  31
ATOM     31  O   UNL     1      49.249   4.790  16.435  0.00  0.00    +0.000 OA
ATOM     32  H   UNL     1      48.960   3.878  16.605  0.00  0.00    +0.000 HD
ENDBRANCH  29  31
ENDBRANCH  21  22
BRANCH  21  33
ATOM     33  N   UNL     1      51.458   6.615  15.714  0.00  0.00    +0.000 NA
ATOM     34  H   UNL     1      52.357   7.027  15.494  0.00  0.00    +0.000 HD
ATOM     35  H   UNL     1      51.411   5.757  15.169  0.00  0.00    +0.000 HD
ENDBRANCH  21  33
ENDBRANCH  19  21
ENDBRANCH   1  19
TORSDOF 10
ENDMDL
MODEL 5
REMARK VINA RESULT:    -7.926      2.413      3.117
REMARK INTER + INTRA:         -13.131
REMARK INTER:                 -11.696
REMARK INTRA:                  -1.434
REMARK UNBOUND:                -1.035
REMARK  Name = 
REMARK  10 active torsions:
REMARK  status: ('A' for Active; 'I' for Inactive)
REMARK    1  A    between atoms: N_1  and  C_2
REMARK    2  A    between atoms: C_2  and  N_3
REMARK    3  A    between atoms: C_2  and  C_21
REMARK    4  A    between atoms: N_3  and  C_4
REMARK    5  A    between atoms: C_4  and  C_5
REMARK    6  A    between atoms: C_8  and  C_9
REMARK    7  A    between atoms: C_9  and  N_10
REMARK    8  A    between atoms: N_10  and  C_11
REMARK    9  A    between atoms: C_11  and  C_12
REMARK   10  A    between atoms: C_28  and  O_29
REMARK                            x       y       z     vdW  Elec       q    Type
REMARK                         _______ _______ _______ _____ _____    ______ ____
ROOT
ATOM      1  C   UNL     1      47.601   7.215  12.996  0.00  0.00    +0.000 C 
ENDROOT
BRANCH   1   2
ATOM      2  C   UNL     1      46.645   6.171  12.457  0.00  0.00    +0.000 A 
ATOM      3  C   UNL     1      46.354   5.016  13.193  0.00  0.00    +0.000 A 
ATOM      4  C   UNL     1      45.444   4.069  12.708  0.00  0.00    +0.000 A 
ATOM      5  C   UNL     1      44.792   4.263  11.483  0.00  0.00    +0.000 A 
ATOM      6  C   UNL     1      45.082   5.415  10.744  0.00  0.00    +0.000 A 
ATOM      7  C   UNL     1      46.002   6.357  11.225  0.00  0.00    +0.000 A 
BRANCH   5   8
ATOM      8  C   UNL     1      43.791   3.246  10.982  0.00  0.00    +0.000 C 
BRANCH   8   9
ATOM      9  N   UNL     1      43.939   3.058   9.542  0.00  0.00    +0.000 NA
ATOM     10  H   UNL     1      44.451   3.853   9.161  0.00  0.00    +0.000 HD
BRANCH   9  11
ATOM     11  C   UNL     1      44.660   1.830   9.215  0.00  0.00    +0.000 C 
BRANCH  11  12
ATOM     12  C   UNL     1      45.750   2.127   8.215  0.00  0.00    +0.000 A 
ATOM     13  C   UNL     1      45.993   3.443   7.793  0.00  0.00    +0.000 A 
ATOM     14  C   UNL     1      47.047   3.730   6.922  0.00  0.00    +0.000 A 
ATOM     15  C   UNL     1      47.864   2.701   6.453  0.00  0.00    +0.000 A 
ATOM     16  C   UNL     1      47.614   1.386   6.842  0.00  0.00    +0.000 A 
ATOM     17  C   UNL     1      46.562   1.108   7.712  0.00  0.00    +0.000 A 
ATOM     18  F   UNL     1      46.351  -0.164   8.079  0.00  0.00    +0.000 F 
ENDBRANCH  11  12
ENDBRANCH   9  11
ENDBRANCH   8   9
ENDBRANCH   5   8
ENDBRANCH   1   2
BRANCH   1  19
ATOM     19  N   UNL     1      47.751   7.121  14.448  0.00  0.00    +0.000 NA
ATOM     20  H   UNL     1      46.962   7.609  14.871  0.00  0.00    +0.000 HD
BRANCH  19  21
ATOM     21  C   UNL     1      48.952   7.748  14.968  0.00  0.00    +0.000 C 
BRANCH  21  22
ATOM     22  C   UNL     1      48.845   7.770  16.476  0.00  0.00    +0.000 A 
ATOM     23  C   UNL     1      48.911   8.935  17.237  0.00  0.00    +0.000 A 
ATOM     24  S   UNL     1      48.756   8.673  18.909  0.00  0.00    +0.000 S 
ATOM     25  C   UNL     1      48.604   6.996  18.683  0.00  0.00    +0.000 A 
ATOM     26  N   UNL     1      48.451   6.191  19.755  0.00  0.00    +0.000 NA
ATOM     27  C   UNL     1      48.337   4.885  19.458  0.00  0.00    +0.000 A 
ATOM     28  C   UNL     1      48.365   4.351  18.185  0.00  0.00    +0.000 A 
ATOM     29  C   UNL     1      48.528   5.224  17.110  0.00  0.00    +0.000 A 
ATOM     30  C   UNL     1      48.660   6.614  17.343  0.00  0.00    +0.000 A 
BRANCH  29  31
ATOM     31  O   UNL     1      48.563   4.719  15.833  0.00  0.00    +0.000 OA
ATOM     32  H   UNL     1      47.911   5.191  15.289  0.00  0.00    +0.000 HD
ENDBRANCH  29  31
ENDBRANCH  21  22
BRANCH  21  33
ATOM     33  N   UNL     1      50.059   6.889  14.631  0.00  0.00    +0.000 NA
ATOM     34  H   UNL     1      50.864   7.162  15.182  0.00  0.00    +0.000 HD
ATOM     35  H   UNL     1      50.301   7.109  13.667  0.00  0.00    +0.000 HD
ENDBRANCH  21  33
ENDBRANCH  19  21
ENDBRANCH   1  19
TORSDOF 10
ENDMDL
MODEL 6
REMARK VINA RESULT:    -7.628      2.671      3.793
REMARK INTER + INTRA:         -12.677
REMARK INTER:                 -11.536
REMARK INTRA:                  -1.140
REMARK UNBOUND:                -1.035
REMARK  Name = 
REMARK  10 active torsions:
REMARK  status: ('A' for Active; 'I' for Inactive)
REMARK    1  A    between atoms: N_1  and  C_2
REMARK    2  A    between atoms: C_2  and  N_3
REMARK    3  A    between atoms: C_2  and  C_21
REMARK    4  A    between atoms: N_3  and  C_4
REMARK    5  A    between atoms: C_4  and  C_5
REMARK    6  A    between atoms: C_8  and  C_9
REMARK    7  A    between atoms: C_9  and  N_10
REMARK    8  A    between atoms: N_10  and  C_11
REMARK    9  A    between atoms: C_11  and  C_12
REMARK   10  A    between atoms: C_28  and  O_29
REMARK                            x       y       z     vdW  Elec       q    Type
REMARK                         _______ _______ _______ _____ _____    ______ ____
ROOT
ATOM      1  C   UNL     1      48.283   6.628  13.317  0.00  0.00    +0.000 C 
ENDROOT
BRANCH   1   2
ATOM      2  C   UNL     1      47.053   5.964  12.732  0.00  0.00    +0.000 A 
ATOM      3  C   UNL     1      46.501   6.412  11.526  0.00  0.00    +0.000 A 
ATOM      4  C   UNL     1      45.384   5.774  10.970  0.00  0.00    +0.000 A 
ATOM      5  C   UNL     1      44.806   4.664  11.599  0.00  0.00    +0.000 A 
ATOM      6  C   UNL     1      45.354   4.215  12.805  0.00  0.00    +0.000 A 
ATOM      7  C   UNL     1      46.465   4.861  13.367  0.00  0.00    +0.000 A 
BRANCH   5   8
ATOM      8  C   UNL     1      43.617   3.967  10.976  0.00  0.00    +0.000 C 
BRANCH   8   9
ATOM      9  N   UNL     1      43.894   3.649   9.578  0.00  0.00    +0.000 NA
ATOM     10  H   UNL     1      44.495   4.376   9.191  0.00  0.00    +0.000 HD
BRANCH   9  11
ATOM     11  C   UNL     1      44.556   2.355   9.424  0.00  0.00    +0.000 C 
BRANCH  11  12
ATOM     12  C   UNL     1      45.640   2.456   8.380  0.00  0.00    +0.000 A 
ATOM     13  C   UNL     1      46.045   3.707   7.890  0.00  0.00    +0.000 A 
ATOM     14  C   UNL     1      47.097   3.808   6.976  0.00  0.00    +0.000 A 
ATOM     15  C   UNL     1      47.748   2.657   6.531  0.00  0.00    +0.000 A 
ATOM     16  C   UNL     1      47.335   1.407   6.989  0.00  0.00    +0.000 A 
ATOM     17  C   UNL     1      46.287   1.315   7.902  0.00  0.00    +0.000 A 
ATOM     18  F   UNL     1      45.916   0.100   8.334  0.00  0.00    +0.000 F 
ENDBRANCH  11  12
ENDBRANCH   9  11
ENDBRANCH   8   9
ENDBRANCH   5   8
ENDBRANCH   1   2
BRANCH   1  19
ATOM     19  N   UNL     1      48.576   6.144  14.665  0.00  0.00    +0.000 NA
ATOM     20  H   UNL     1      47.687   6.039  15.154  0.00  0.00    +0.000 HD
BRANCH  19  21
ATOM     21  C   UNL     1      49.383   7.047  15.464  0.00  0.00    +0.000 C 
BRANCH  21  22
ATOM     22  C   UNL     1      49.385   6.531  16.885  0.00  0.00    +0.000 A 
ATOM     23  C   UNL     1      50.066   5.385  17.289  0.00  0.00    +0.000 A 
ATOM     24  S   UNL     1      49.904   5.038  18.944  0.00  0.00    +0.000 S 
ATOM     25  C   UNL     1      48.912   6.396  19.184  0.00  0.00    +0.000 A 
ATOM     26  N   UNL     1      48.423   6.654  20.415  0.00  0.00    +0.000 NA
ATOM     27  C   UNL     1      47.655   7.754  20.489  0.00  0.00    +0.000 A 
ATOM     28  C   UNL     1      47.357   8.591  19.431  0.00  0.00    +0.000 A 
ATOM     29  C   UNL     1      47.884   8.280  18.178  0.00  0.00    +0.000 A 
ATOM     30  C   UNL     1      48.698   7.133  18.020  0.00  0.00    +0.000 A 
BRANCH  29  31
ATOM     31  O   UNL     1      47.599   9.093  17.108  0.00  0.00    +0.000 OA
ATOM     32  H   UNL     1      46.652   9.024  16.904  0.00  0.00    +0.000 HD
ENDBRANCH  29  31
ENDBRANCH  21  22
BRANCH  21  33
ATOM     33  N   UNL     1      50.736   6.954  14.973  0.00  0.00    +0.000 NA
ATOM     34  H   UNL     1      51.034   7.871  14.663  0.00  0.00    +0.000 HD
ATOM     35  H   UNL     1      50.689   6.383  14.132  0.00  0.00    +0.000 HD
ENDBRANCH  21  33
ENDBRANCH  19  21
ENDBRANCH   1  19
TORSDOF 10
ENDMDL
MODEL 7
REMARK VINA RESULT:    -7.455      4.147      9.014
REMARK INTER + INTRA:         -12.412
REMARK INTER:                 -10.888
REMARK INTRA:                  -1.524
REMARK UNBOUND:                -1.035
REMARK  Name = 
REMARK  10 active torsions:
REMARK  status: ('A' for Active; 'I' for Inactive)
REMARK    1  A    between atoms: N_1  and  C_2
REMARK    2  A    between atoms: C_2  and  N_3
REMARK    3  A    between atoms: C_2  and  C_21
REMARK    4  A    between atoms: N_3  and  C_4
REMARK    5  A    between atoms: C_4  and  C_5
REMARK    6  A    between atoms: C_8  and  C_9
REMARK    7  A    between atoms: C_9  and  N_10
REMARK    8  A    between atoms: N_10  and  C_11
REMARK    9  A    between atoms: C_11  and  C_12
REMARK   10  A    between atoms: C_28  and  O_29
REMARK                            x       y       z     vdW  Elec       q    Type
REMARK                         _______ _______ _______ _____ _____    ______ ____
ROOT
ATOM      1  C   UNL     1      45.709   8.441  12.967  0.00  0.00    +0.000 C 
ENDROOT
BRANCH   1   2
ATOM      2  C   UNL     1      47.124   8.274  13.483  0.00  0.00    +0.000 A 
ATOM      3  C   UNL     1      47.630   9.122  14.476  0.00  0.00    +0.000 A 
ATOM      4  C   UNL     1      48.926   8.943  14.976  0.00  0.00    +0.000 A 
ATOM      5  C   UNL     1      49.738   7.903  14.506  0.00  0.00    +0.000 A 
ATOM      6  C   UNL     1      49.237   7.055  13.513  0.00  0.00    +0.000 A 
ATOM      7  C   UNL     1      47.943   7.242  13.004  0.00  0.00    +0.000 A 
BRANCH   5   8
ATOM      8  C   UNL     1      51.127   7.704  15.072  0.00  0.00    +0.000 C 
BRANCH   8   9
ATOM      9  N   UNL     1      51.208   6.426  15.773  0.00  0.00    +0.000 NA
ATOM     10  H   UNL     1      52.184   6.240  16.001  0.00  0.00    +0.000 HD
BRANCH   9  11
ATOM     11  C   UNL     1      50.424   6.418  17.007  0.00  0.00    +0.000 C 
BRANCH  11  12
ATOM     12  C   UNL     1      49.560   5.183  17.056  0.00  0.00    +0.000 A 
ATOM     13  C   UNL     1      48.220   5.231  16.639  0.00  0.00    +0.000 A 
ATOM     14  C   UNL     1      47.439   4.073  16.617  0.00  0.00    +0.000 A 
ATOM     15  C   UNL     1      47.984   2.855  17.024  0.00  0.00    +0.000 A 
ATOM     16  C   UNL     1      49.304   2.801  17.468  0.00  0.00    +0.000 A 
ATOM     17  C   UNL     1      50.078   3.959  17.485  0.00  0.00    +0.000 A 
ATOM     18  F   UNL     1      51.348   3.877  17.907  0.00  0.00    +0.000 F 
ENDBRANCH  11  12
ENDBRANCH   9  11
ENDBRANCH   8   9
ENDBRANCH   5   8
ENDBRANCH   1   2
BRANCH   1  19
ATOM     19  N   UNL     1      45.029   7.156  12.811  0.00  0.00    +0.000 NA
ATOM     20  H   UNL     1      45.664   6.430  13.144  0.00  0.00    +0.000 HD
BRANCH  19  21
ATOM     21  C   UNL     1      44.696   6.817  11.439  0.00  0.00    +0.000 C 
BRANCH  21  22
ATOM     22  C   UNL     1      44.375   5.340  11.394  0.00  0.00    +0.000 A 
ATOM     23  C   UNL     1      43.697   4.667  12.407  0.00  0.00    +0.000 A 
ATOM     24  S   UNL     1      43.463   3.013  12.094  0.00  0.00    +0.000 S 
ATOM     25  C   UNL     1      44.265   3.129  10.601  0.00  0.00    +0.000 A 
ATOM     26  N   UNL     1      44.410   2.028   9.835  0.00  0.00    +0.000 NA
ATOM     27  C   UNL     1      45.056   2.237   8.676  0.00  0.00    +0.000 A 
ATOM     28  C   UNL     1      45.550   3.453   8.247  0.00  0.00    +0.000 A 
ATOM     29  C   UNL     1      45.377   4.562   9.075  0.00  0.00    +0.000 A 
ATOM     30  C   UNL     1      44.711   4.419  10.316  0.00  0.00    +0.000 A 
BRANCH  29  31
ATOM     31  O   UNL     1      45.863   5.783   8.675  0.00  0.00    +0.000 OA
ATOM     32  H   UNL     1      45.392   6.483   9.158  0.00  0.00    +0.000 HD
ENDBRANCH  29  31
ENDBRANCH  21  22
BRANCH  21  33
ATOM     33  N   UNL     1      43.487   7.528  11.108  0.00  0.00    +0.000 NA
ATOM     34  H   UNL     1      42.869   6.904  10.604  0.00  0.00    +0.000 HD
ATOM     35  H   UNL     1      43.759   8.244  10.437  0.00  0.00    +0.000 HD
ENDBRANCH  21  33
ENDBRANCH  19  21
ENDBRANCH   1  19
TORSDOF 10
ENDMDL
MODEL 8
REMARK VINA RESULT:    -7.439      4.349      5.329
REMARK INTER + INTRA:         -12.388
REMARK INTER:                 -10.990
REMARK INTRA:                  -1.398
REMARK UNBOUND:                -1.035
REMARK  Name = 
REMARK  10 active torsions:
REMARK  status: ('A' for Active; 'I' for Inactive)
REMARK    1  A    between atoms: N_1  and  C_2
REMARK    2  A    between atoms: C_2  and  N_3
REMARK    3  A    between atoms: C_2  and  C_21
REMARK    4  A    between atoms: N_3  and  C_4
REMARK    5  A    between atoms: C_4  and  C_5
REMARK    6  A    between atoms: C_8  and  C_9
REMARK    7  A    between atoms: C_9  and  N_10
REMARK    8  A    between atoms: N_10  and  C_11
REMARK    9  A    between atoms: C_11  and  C_12
REMARK   10  A    between atoms: C_28  and  O_29
REMARK                            x       y       z     vdW  Elec       q    Type
REMARK                         _______ _______ _______ _____ _____    ______ ____
ROOT
ATOM      1  C   UNL     1      47.869   6.814  13.297  0.00  0.00    +0.000 C 
ENDROOT
BRANCH   1   2
ATOM      2  C   UNL     1      46.776   5.942  12.712  0.00  0.00    +0.000 A 
ATOM      3  C   UNL     1      46.274   6.186  11.428  0.00  0.00    +0.000 A 
ATOM      4  C   UNL     1      45.288   5.358  10.877  0.00  0.00    +0.000 A 
ATOM      5  C   UNL     1      44.795   4.258  11.591  0.00  0.00    +0.000 A 
ATOM      6  C   UNL     1      45.293   4.013  12.875  0.00  0.00    +0.000 A 
ATOM      7  C   UNL     1      46.272   4.850  13.430  0.00  0.00    +0.000 A 
BRANCH   5   8
ATOM      8  C   UNL     1      43.750   3.355  10.974  0.00  0.00    +0.000 C 
BRANCH   8   9
ATOM      9  N   UNL     1      43.971   3.234   9.536  0.00  0.00    +0.000 NA
ATOM     10  H   UNL     1      44.576   3.997   9.234  0.00  0.00    +0.000 HD
BRANCH   9  11
ATOM     11  C   UNL     1      44.597   1.963   9.177  0.00  0.00    +0.000 C 
BRANCH  11  12
ATOM     12  C   UNL     1      45.723   2.204   8.202  0.00  0.00    +0.000 A 
ATOM     13  C   UNL     1      46.017   3.503   7.758  0.00  0.00    +0.000 A 
ATOM     14  C   UNL     1      47.103   3.737   6.911  0.00  0.00    +0.000 A 
ATOM     15  C   UNL     1      47.901   2.674   6.488  0.00  0.00    +0.000 A 
ATOM     16  C   UNL     1      47.601   1.376   6.900  0.00  0.00    +0.000 A 
ATOM     17  C   UNL     1      46.518   1.150   7.746  0.00  0.00    +0.000 A 
ATOM     18  F   UNL     1      46.257  -0.106   8.135  0.00  0.00    +0.000 F 
ENDBRANCH  11  12
ENDBRANCH   9  11
ENDBRANCH   8   9
ENDBRANCH   5   8
ENDBRANCH   1   2
BRANCH   1  19
ATOM     19  N   UNL     1      49.162   6.570  12.659  0.00  0.00    +0.000 NA
ATOM     20  H   UNL     1      49.881   6.667  13.375  0.00  0.00    +0.000 HD
BRANCH  19  21
ATOM     21  C   UNL     1      49.498   7.511  11.606  0.00  0.00    +0.000 C 
BRANCH  21  22
ATOM     22  C   UNL     1      49.407   8.904  12.186  0.00  0.00    +0.000 A 
ATOM     23  C   UNL     1      48.597   9.908  11.660  0.00  0.00    +0.000 A 
ATOM     24  S   UNL     1      48.682  11.376  12.512  0.00  0.00    +0.000 S 
ATOM     25  C   UNL     1      49.810  10.733  13.608  0.00  0.00    +0.000 A 
ATOM     26  N   UNL     1      50.295  11.512  14.598  0.00  0.00    +0.000 NA
ATOM     27  C   UNL     1      51.176  10.899  15.406  0.00  0.00    +0.000 A 
ATOM     28  C   UNL     1      51.588   9.587  15.288  0.00  0.00    +0.000 A 
ATOM     29  C   UNL     1      51.059   8.823  14.248  0.00  0.00    +0.000 A 
ATOM     30  C   UNL     1      50.129   9.400  13.351  0.00  0.00    +0.000 A 
BRANCH  29  31
ATOM     31  O   UNL     1      51.455   7.515  14.105  0.00  0.00    +0.000 OA
ATOM     32  H   UNL     1      51.846   7.212  14.941  0.00  0.00    +0.000 HD
ENDBRANCH  29  31
ENDBRANCH  21  22
BRANCH  21  33
ATOM     33  N   UNL     1      50.878   7.282  11.257  0.00  0.00    +0.000 NA
ATOM     34  H   UNL     1      50.912   6.723  10.413  0.00  0.00    +0.000 HD
ATOM     35  H   UNL     1      51.257   6.690  11.992  0.00  0.00    +0.000 HD
ENDBRANCH  21  33
ENDBRANCH  19  21
ENDBRANCH   1  19
TORSDOF 10
ENDMDL
MODEL 9
REMARK VINA RESULT:    -7.308      2.318      3.105
REMARK INTER + INTRA:         -12.188
REMARK INTER:                 -10.521
REMARK INTRA:                  -1.667
REMARK UNBOUND:                -1.035
REMARK  Name = 
REMARK  10 active torsions:
REMARK  status: ('A' for Active; 'I' for Inactive)
REMARK    1  A    between atoms: N_1  and  C_2
REMARK    2  A    between atoms: C_2  and  N_3
REMARK    3  A    between atoms: C_2  and  C_21
REMARK    4  A    between atoms: N_3  and  C_4
REMARK    5  A    between atoms: C_4  and  C_5
REMARK    6  A    between atoms: C_8  and  C_9
REMARK    7  A    between atoms: C_9  and  N_10
REMARK    8  A    between atoms: N_10  and  C_11
REMARK    9  A    between atoms: C_11  and  C_12
REMARK   10  A    between atoms: C_28  and  O_29
REMARK                            x       y       z     vdW  Elec       q    Type
REMARK                         _______ _______ _______ _____ _____    ______ ____
ROOT
ATOM      1  C   UNL     1      48.658   7.173  13.220  0.00  0.00    +0.000 C 
ENDROOT
BRANCH   1   2
ATOM      2  C   UNL     1      47.342   6.423  13.183  0.00  0.00    +0.000 A 
ATOM      3  C   UNL     1      46.152   7.079  12.845  0.00  0.00    +0.000 A 
ATOM      4  C   UNL     1      44.942   6.376  12.778  0.00  0.00    +0.000 A 
ATOM      5  C   UNL     1      44.899   4.999  13.032  0.00  0.00    +0.000 A 
ATOM      6  C   UNL     1      46.085   4.341  13.373  0.00  0.00    +0.000 A 
ATOM      7  C   UNL     1      47.294   5.048  13.451  0.00  0.00    +0.000 A 
BRANCH   5   8
ATOM      8  C   UNL     1      43.591   4.246  12.932  0.00  0.00    +0.000 C 
BRANCH   8   9
ATOM      9  N   UNL     1      43.160   4.166  11.539  0.00  0.00    +0.000 NA
ATOM     10  H   UNL     1      43.537   4.968  11.035  0.00  0.00    +0.000 HD
BRANCH   9  11
ATOM     11  C   UNL     1      43.614   2.939  10.887  0.00  0.00    +0.000 C 
BRANCH  11  12
ATOM     12  C   UNL     1      44.535   3.280   9.742  0.00  0.00    +0.000 A 
ATOM     13  C   UNL     1      44.995   4.593   9.562  0.00  0.00    +0.000 A 
ATOM     14  C   UNL     1      45.904   4.897   8.544  0.00  0.00    +0.000 A 
ATOM     15  C   UNL     1      46.354   3.892   7.688  0.00  0.00    +0.000 A 
ATOM     16  C   UNL     1      45.881   2.589   7.839  0.00  0.00    +0.000 A 
ATOM     17  C   UNL     1      44.977   2.294   8.857  0.00  0.00    +0.000 A 
ATOM     18  F   UNL     1      44.546   1.031   8.987  0.00  0.00    +0.000 F 
ENDBRANCH  11  12
ENDBRANCH   9  11
ENDBRANCH   8   9
ENDBRANCH   5   8
ENDBRANCH   1   2
BRANCH   1  19
ATOM     19  N   UNL     1      49.450   6.829  14.399  0.00  0.00    +0.000 NA
ATOM     20  H   UNL     1      49.566   5.815  14.407  0.00  0.00    +0.000 HD
BRANCH  19  21
ATOM     21  C   UNL     1      48.830   7.184  15.662  0.00  0.00    +0.000 C 
BRANCH  21  22
ATOM     22  C   UNL     1      49.117   6.072  16.647  0.00  0.00    +0.000 A 
ATOM     23  C   UNL     1      48.126   5.330  17.283  0.00  0.00    +0.000 A 
ATOM     24  S   UNL     1      48.729   4.139  18.334  0.00  0.00    +0.000 S 
ATOM     25  C   UNL     1      50.334   4.573  17.988  0.00  0.00    +0.000 A 
ATOM     26  N   UNL     1      51.347   3.918  18.594  0.00  0.00    +0.000 NA
ATOM     27  C   UNL     1      52.573   4.342  18.243  0.00  0.00    +0.000 A 
ATOM     28  C   UNL     1      52.838   5.355  17.343  0.00  0.00    +0.000 A 
ATOM     29  C   UNL     1      51.758   6.003  16.745  0.00  0.00    +0.000 A 
ATOM     30  C   UNL     1      50.436   5.616  17.069  0.00  0.00    +0.000 A 
BRANCH  29  31
ATOM     31  O   UNL     1      51.994   7.017  15.849  0.00  0.00    +0.000 OA
ATOM     32  H   UNL     1      52.904   7.336  15.967  0.00  0.00    +0.000 HD
ENDBRANCH  29  31
ENDBRANCH  21  22
BRANCH  21  33
ATOM     33  N   UNL     1      49.498   8.366  16.145  0.00  0.00    +0.000 NA
ATOM     34  H   UNL     1      50.488   8.169  16.233  0.00  0.00    +0.000 HD
ATOM     35  H   UNL     1      49.163   8.507  17.096  0.00  0.00    +0.000 HD
ENDBRANCH  21  33
ENDBRANCH  19  21
ENDBRANCH   1  19
TORSDOF 10
ENDMDL
