MODEL 1
REMARK VINA RESULT:    -8.050      0.000      0.000
REMARK INTER + INTRA:         -13.498
REMARK INTER:                 -12.285
REMARK INTRA:                  -1.213
REMARK UNBOUND:                -1.213
REMARK  Name = 
REMARK  10 active torsions:
REMARK  status: ('A' for Active; 'I' for Inactive)
REMARK    1  A    between atoms: C_1  and  O_2
REMARK    2  A    between atoms: O_2  and  C_3
REMARK    3  A    between atoms: C_3  and  C_4
REMARK    4  A    between atoms: C_4  and  N_5
REMARK    5  A    between atoms: C_4  and  C_13
REMARK    6  A    between atoms: N_5  and  C_6
REMARK    7  A    between atoms: C_6  and  C_7
REMARK    8  A    between atoms: C_16  and  C_17
REMARK    9  A    between atoms: C_17  and  N_18
REMARK   10  A    between atoms: C_19  and  C_21
REMARK                            x       y       z     vdW  Elec       q    Type
REMARK                         _______ _______ _______ _____ _____    ______ ____
ROOT
ATOM      1  C   UNL     1      45.975   5.449  11.980  0.00  0.00    +0.000 A 
ATOM      2  C   UNL     1      46.296   4.800  13.184  0.00  0.00    +0.000 A 
ATOM      3  C   UNL     1      47.137   5.402  14.122  0.00  0.00    +0.000 A 
ATOM      4  C   UNL     1      47.632   6.693  13.909  0.00  0.00    +0.000 A 
ATOM      5  C   UNL     1      47.343   7.334  12.701  0.00  0.00    +0.000 A 
ATOM      6  C   UNL     1      46.542   6.712  11.742  0.00  0.00    +0.000 A 
ENDROOT
BRANCH   1   7
ATOM      7  C   UNL     1      45.082   4.744  10.954  0.00  0.00    +0.000 C 
BRANCH   7   8
ATOM      8  N   UNL     1      45.479   5.070   9.570  0.00  0.00    +0.000 NA
ATOM      9  H   UNL     1      46.485   4.979   9.470  0.00  0.00    +0.000 HD
BRANCH   8  10
ATOM     10  C   UNL     1      44.813   4.242   8.560  0.00  0.00    +0.000 C 
BRANCH  10  11
ATOM     11  C   UNL     1      45.724   3.178   8.018  0.00  0.00    +0.000 A 
ATOM     12  C   UNL     1      46.636   3.443   6.995  0.00  0.00    +0.000 A 
ATOM     13  C   UNL     1      47.463   2.428   6.532  0.00  0.00    +0.000 A 
ATOM     14  C   UNL     1      47.346   1.170   7.106  0.00  0.00    +0.000 A 
ATOM     15  N   UNL     1      46.473   0.871   8.090  0.00  0.00    +0.000 NA
ATOM     16  C   UNL     1      45.682   1.879   8.521  0.00  0.00    +0.000 A 
ENDBRANCH  10  11
ENDBRANCH   8  10
ENDBRANCH   7   8
BRANCH   7  17
ATOM     17  C   UNL     1      43.584   5.100  11.205  0.00  0.00    +0.000 C 
BRANCH  17  19
ATOM     18  C   UNL     1      43.529   2.807  11.705  0.00  0.00    +0.000 C 
ATOM     19  O   UNL     1      42.745   3.954  11.387  0.00  0.00    +0.000 OA
ENDBRANCH  17  19
ENDBRANCH   7  17
ENDBRANCH   1   7
BRANCH   4  20
ATOM     20  C   UNL     1      48.458   7.379  14.963  0.00  0.00    +0.000 C 
BRANCH  20  21
ATOM     21  N   UNL     1      49.434   6.494  15.546  0.00  0.00    +0.000 N 
ATOM     22  C   UNL     1      49.539   6.290  16.895  0.00  0.00    +0.000 C 
ATOM     23  O   UNL     1      48.781   6.820  17.702  0.00  0.00    +0.000 OA
ATOM     24  H   UNL     1      50.144   6.130  14.921  0.00  0.00    +0.000 HD
BRANCH  22  25
ATOM     25  C   UNL     1      50.591   5.361  17.328  0.00  0.00    +0.000 A 
ATOM     26  C   UNL     1      51.768   5.861  17.867  0.00  0.00    +0.000 A 
ATOM     27  S   UNL     1      52.864   4.650  18.357  0.00  0.00    +0.000 S 
ATOM     28  C   UNL     1      51.824   3.414  17.822  0.00  0.00    +0.000 A 
ATOM     29  N   UNL     1      52.178   2.105  17.935  0.00  0.00    +0.000 NA
ATOM     30  C   UNL     1      51.314   1.273  17.455  0.00  0.00    +0.000 A 
ATOM     31  N   UNL     1      50.125   1.633  16.876  0.00  0.00    +0.000 N 
ATOM     32  C   UNL     1      49.705   2.938  16.781  0.00  0.00    +0.000 A 
ATOM     33  O   UNL     1      48.599   3.217  16.326  0.00  0.00    +0.000 OA
ATOM     34  C   UNL     1      50.651   3.917  17.288  0.00  0.00    +0.000 A 
ATOM     35  H   UNL     1      49.487   0.932  16.533  0.00  0.00    +0.000 HD
ENDBRANCH  22  25
ENDBRANCH  20  21
ENDBRANCH   4  20
TORSDOF 9
ENDMDL
MODEL 2
REMARK VINA RESULT:    -7.947      2.253      3.419
REMARK INTER + INTRA:         -13.341
REMARK INTER:                 -12.045
REMARK INTRA:                  -1.296
REMARK UNBOUND:                -1.213
REMARK  Name = 
REMARK  10 active torsions:
REMARK  status: ('A' for Active; 'I' for Inactive)
REMARK    1  A    between atoms: C_1  and  O_2
REMARK    2  A    between atoms: O_2  and  C_3
REMARK    3  A    between atoms: C_3  and  C_4
REMARK    4  A    between atoms: C_4  and  N_5
REMARK    5  A    between atoms: C_4  and  C_13
REMARK    6  A    between atoms: N_5  and  C_6
REMARK    7  A    between atoms: C_6  and  C_7
REMARK    8  A    between atoms: C_16  and  C_17
REMARK    9  A    between atoms: C_17  and  N_18
REMARK   10  A    between atoms: C_19  and  C_21
REMARK                            x       y       z     vdW  Elec       q    Type
REMARK                         _______ _______ _______ _____ _____    ______ ____
ROOT
ATOM      1  C   UNL     1      45.930   5.335  11.756  0.00  0.00    +0.000 A 
ATOM      2  C   UNL     1      46.573   6.534  11.403  0.00  0.00    +0.000 A 
ATOM      3  C   UNL     1      47.430   7.179  12.297  0.00  0.00    +0.000 A 
ATOM      4  C   UNL     1      47.714   6.613  13.544  0.00  0.00    +0.000 A 
ATOM      5  C   UNL     1      47.057   5.436  13.915  0.00  0.00    +0.000 A 
ATOM      6  C   UNL     1      46.163   4.818  13.041  0.00  0.00    +0.000 A 
ENDROOT
BRANCH   1   7
ATOM      7  C   UNL     1      44.965   4.673  10.767  0.00  0.00    +0.000 C 
BRANCH   7   8
ATOM      8  N   UNL     1      45.285   5.029   9.371  0.00  0.00    +0.000 NA
ATOM      9  H   UNL     1      46.290   5.063   9.246  0.00  0.00    +0.000 HD
BRANCH   8  10
ATOM     10  C   UNL     1      44.702   4.113   8.386  0.00  0.00    +0.000 C 
BRANCH  10  11
ATOM     11  C   UNL     1      45.705   3.112   7.891  0.00  0.00    +0.000 A 
ATOM     12  C   UNL     1      46.631   3.428   6.895  0.00  0.00    +0.000 A 
ATOM     13  C   UNL     1      47.544   2.470   6.476  0.00  0.00    +0.000 A 
ATOM     14  C   UNL     1      47.498   1.214   7.064  0.00  0.00    +0.000 A 
ATOM     15  N   UNL     1      46.615   0.866   8.023  0.00  0.00    +0.000 NA
ATOM     16  C   UNL     1      45.740   1.819   8.412  0.00  0.00    +0.000 A 
ENDBRANCH  10  11
ENDBRANCH   8  10
ENDBRANCH   7   8
BRANCH   7  17
ATOM     17  C   UNL     1      43.490   5.048  11.117  0.00  0.00    +0.000 C 
BRANCH  17  19
ATOM     18  C   UNL     1      43.301   2.782  11.699  0.00  0.00    +0.000 C 
ATOM     19  O   UNL     1      42.848   4.104  11.981  0.00  0.00    +0.000 OA
ENDBRANCH  17  19
ENDBRANCH   7  17
ENDBRANCH   1   7
BRANCH   4  20
ATOM     20  C   UNL     1      48.713   7.258  14.467  0.00  0.00    +0.000 C 
BRANCH  20  21
ATOM     21  N   UNL     1      48.482   6.906  15.844  0.00  0.00    +0.000 N 
ATOM     22  C   UNL     1      49.439   6.324  16.632  0.00  0.00    +0.000 C 
ATOM     23  O   UNL     1      50.574   6.094  16.227  0.00  0.00    +0.000 OA
ATOM     24  H   UNL     1      47.527   6.978  16.176  0.00  0.00    +0.000 HD
BRANCH  22  25
ATOM     25  C   UNL     1      49.042   6.022  18.013  0.00  0.00    +0.000 A 
ATOM     26  C   UNL     1      49.240   4.746  18.521  0.00  0.00    +0.000 A 
ATOM     27  S   UNL     1      48.766   4.576  20.150  0.00  0.00    +0.000 S 
ATOM     28  C   UNL     1      48.233   6.190  20.221  0.00  0.00    +0.000 A 
ATOM     29  N   UNL     1      47.686   6.697  21.359  0.00  0.00    +0.000 NA
ATOM     30  C   UNL     1      47.289   7.922  21.263  0.00  0.00    +0.000 A 
ATOM     31  N   UNL     1      47.395   8.689  20.132  0.00  0.00    +0.000 N 
ATOM     32  C   UNL     1      47.981   8.236  18.975  0.00  0.00    +0.000 A 
ATOM     33  O   UNL     1      48.127   8.977  18.007  0.00  0.00    +0.000 OA
ATOM     34  C   UNL     1      48.426   6.854  19.022  0.00  0.00    +0.000 A 
ATOM     35  H   UNL     1      47.078   9.646  20.128  0.00  0.00    +0.000 HD
ENDBRANCH  22  25
ENDBRANCH  20  21
ENDBRANCH   4  20
TORSDOF 9
ENDMDL
MODEL 3
REMARK VINA RESULT:    -7.873      2.191      2.712
REMARK INTER + INTRA:         -13.228
REMARK INTER:                 -12.129
REMARK INTRA:                  -1.099
REMARK UNBOUND:                -1.213
REMARK  Name = 
REMARK  10 active torsions:
REMARK  status: ('A' for Active; 'I' for Inactive)
REMARK    1  A    between atoms: C_1  and  O_2
REMARK    2  A    between atoms: O_2  and  C_3
REMARK    3  A    between atoms: C_3  and  C_4
REMARK    4  A    between atoms: C_4  and  N_5
REMARK    5  A    between atoms: C_4  and  C_13
REMARK    6  A    between atoms: N_5  and  C_6
REMARK    7  A    between atoms: C_6  and  C_7
REMARK    8  A    between atoms: C_16  and  C_17
REMARK    9  A    between atoms: C_17  and  N_18
REMARK   10  A    between atoms: C_19  and  C_21
REMARK                            x       y       z     vdW  Elec       q    Type
REMARK                         _______ _______ _______ _____ _____    ______ ____
ROOT
ATOM      1  C   UNL     1      45.541   6.099  11.459  0.00  0.00    +0.000 A 
ATOM      2  C   UNL     1      46.709   5.804  12.181  0.00  0.00    +0.000 A 
ATOM      3  C   UNL     1      47.374   6.794  12.908  0.00  0.00    +0.000 A 
ATOM      4  C   UNL     1      46.856   8.091  12.980  0.00  0.00    +0.000 A 
ATOM      5  C   UNL     1      45.711   8.402  12.240  0.00  0.00    +0.000 A 
ATOM      6  C   UNL     1      45.075   7.423  11.475  0.00  0.00    +0.000 A 
ENDROOT
BRANCH   1   7
ATOM      7  C   UNL     1      44.859   4.999  10.639  0.00  0.00    +0.000 C 
BRANCH   7   8
ATOM      8  N   UNL     1      45.179   5.111   9.202  0.00  0.00    +0.000 NA
ATOM      9  H   UNL     1      46.185   5.127   9.074  0.00  0.00    +0.000 HD
BRANCH   8  10
ATOM     10  C   UNL     1      44.600   4.037   8.389  0.00  0.00    +0.000 C 
BRANCH  10  11
ATOM     11  C   UNL     1      45.647   3.072   7.911  0.00  0.00    +0.000 A 
ATOM     12  C   UNL     1      46.586   3.426   6.941  0.00  0.00    +0.000 A 
ATOM     13  C   UNL     1      47.539   2.500   6.538  0.00  0.00    +0.000 A 
ATOM     14  C   UNL     1      47.518   1.238   7.115  0.00  0.00    +0.000 A 
ATOM     15  N   UNL     1      46.623   0.854   8.048  0.00  0.00    +0.000 NA
ATOM     16  C   UNL     1      45.709   1.776   8.423  0.00  0.00    +0.000 A 
ENDBRANCH  10  11
ENDBRANCH   8  10
ENDBRANCH   7   8
BRANCH   7  17
ATOM     17  C   UNL     1      43.316   5.027  10.873  0.00  0.00    +0.000 C 
BRANCH  17  19
ATOM     18  C   UNL     1      43.781   3.015  11.990  0.00  0.00    +0.000 C 
ATOM     19  O   UNL     1      42.780   3.776  11.317  0.00  0.00    +0.000 OA
ENDBRANCH  17  19
ENDBRANCH   7  17
ENDBRANCH   1   7
BRANCH   4  20
ATOM     20  C   UNL     1      47.518   9.132  13.842  0.00  0.00    +0.000 C 
BRANCH  20  21
ATOM     21  N   UNL     1      47.532   8.754  15.231  0.00  0.00    +0.000 N 
ATOM     22  C   UNL     1      48.662   8.321  15.872  0.00  0.00    +0.000 C 
ATOM     23  O   UNL     1      49.752   8.260  15.313  0.00  0.00    +0.000 OA
ATOM     24  H   UNL     1      46.631   8.686  15.691  0.00  0.00    +0.000 HD
BRANCH  22  25
ATOM     25  C   UNL     1      48.506   7.968  17.289  0.00  0.00    +0.000 A 
ATOM     26  C   UNL     1      48.189   8.956  18.211  0.00  0.00    +0.000 A 
ATOM     27  S   UNL     1      48.003   8.372  19.802  0.00  0.00    +0.000 S 
ATOM     28  C   UNL     1      48.388   6.785  19.325  0.00  0.00    +0.000 A 
ATOM     29  N   UNL     1      48.426   5.772  20.231  0.00  0.00    +0.000 NA
ATOM     30  C   UNL     1      48.768   4.627  19.741  0.00  0.00    +0.000 A 
ATOM     31  N   UNL     1      49.072   4.403  18.423  0.00  0.00    +0.000 N 
ATOM     32  C   UNL     1      49.003   5.385  17.464  0.00  0.00    +0.000 A 
ATOM     33  O   UNL     1      49.207   5.129  16.280  0.00  0.00    +0.000 OA
ATOM     34  C   UNL     1      48.642   6.699  17.967  0.00  0.00    +0.000 A 
ATOM     35  H   UNL     1      49.319   3.480  18.102  0.00  0.00    +0.000 HD
ENDBRANCH  22  25
ENDBRANCH  20  21
ENDBRANCH   4  20
TORSDOF 9
ENDMDL
MODEL 4
REMARK VINA RESULT:    -7.099      3.494      4.842
REMARK INTER + INTRA:         -12.047
REMARK INTER:                 -11.053
REMARK INTRA:                  -0.994
REMARK UNBOUND:                -1.213
REMARK  Name = 
REMARK  10 active torsions:
REMARK  status: ('A' for Active; 'I' for Inactive)
REMARK    1  A    between atoms: C_1  and  O_2
REMARK    2  A    between atoms: O_2  and  C_3
REMARK    3  A    between atoms: C_3  and  C_4
REMARK    4  A    between atoms: C_4  and  N_5
REMARK    5  A    between atoms: C_4  and  C_13
REMARK    6  A    between atoms: N_5  and  C_6
REMARK    7  A    between atoms: C_6  and  C_7
REMARK    8  A    between atoms: C_16  and  C_17
REMARK    9  A    between atoms: C_17  and  N_18
REMARK   10  A    between atoms: C_19  and  C_21
REMARK                            x       y       z     vdW  Elec       q    Type
REMARK                         _______ _______ _______ _____ _____    ______ ____
ROOT
ATOM      1  C   UNL     1      46.130   5.587  11.818  0.00  0.00    +0.000 A 
ATOM      2  C   UNL     1      46.841   6.733  11.424  0.00  0.00    +0.000 A 
ATOM      3  C   UNL     1      47.810   7.298  12.255  0.00  0.00    +0.000 A 
ATOM      4  C   UNL     1      48.138   6.698  13.475  0.00  0.00    +0.000 A 
ATOM      5  C   UNL     1      47.416   5.575  13.889  0.00  0.00    +0.000 A 
ATOM      6  C   UNL     1      46.413   5.040  13.081  0.00  0.00    +0.000 A 
ENDROOT
BRANCH   1   7
ATOM      7  C   UNL     1      45.043   5.016  10.901  0.00  0.00    +0.000 C 
BRANCH   7   8
ATOM      8  N   UNL     1      45.395   5.172   9.476  0.00  0.00    +0.000 NA
ATOM      9  H   UNL     1      46.399   5.089   9.359  0.00  0.00    +0.000 HD
BRANCH   8  10
ATOM     10  C   UNL     1      44.721   4.210   8.599  0.00  0.00    +0.000 C 
BRANCH  10  11
ATOM     11  C   UNL     1      45.676   3.191   8.047  0.00  0.00    +0.000 A 
ATOM     12  C   UNL     1      46.598   3.512   7.049  0.00  0.00    +0.000 A 
ATOM     13  C   UNL     1      47.466   2.537   6.576  0.00  0.00    +0.000 A 
ATOM     14  C   UNL     1      47.378   1.261   7.113  0.00  0.00    +0.000 A 
ATOM     15  N   UNL     1      46.498   0.908   8.072  0.00  0.00    +0.000 NA
ATOM     16  C   UNL     1      45.667   1.878   8.514  0.00  0.00    +0.000 A 
ENDBRANCH  10  11
ENDBRANCH   8  10
ENDBRANCH   7   8
BRANCH   7  17
ATOM     17  C   UNL     1      43.666   5.681  11.214  0.00  0.00    +0.000 C 
BRANCH  17  19
ATOM     18  C   UNL     1      43.202   3.445  11.759  0.00  0.00    +0.000 C 
ATOM     19  O   UNL     1      42.719   4.786  11.808  0.00  0.00    +0.000 OA
ENDBRANCH  17  19
ENDBRANCH   7  17
ENDBRANCH   1   7
BRANCH   4  20
ATOM     20  C   UNL     1      49.251   7.251  14.324  0.00  0.00    +0.000 C 
BRANCH  20  21
ATOM     21  N   UNL     1      48.851   8.439  15.033  0.00  0.00    +0.000 N 
ATOM     22  C   UNL     1      49.238   8.701  16.320  0.00  0.00    +0.000 C 
ATOM     23  O   UNL     1      49.985   7.956  16.947  0.00  0.00    +0.000 OA
ATOM     24  H   UNL     1      48.147   9.016  14.588  0.00  0.00    +0.000 HD
BRANCH  22  25
ATOM     25  C   UNL     1      48.739   9.953  16.902  0.00  0.00    +0.000 A 
ATOM     26  C   UNL     1      49.102  11.167  16.335  0.00  0.00    +0.000 A 
ATOM     27  S   UNL     1      48.404  12.519  17.104  0.00  0.00    +0.000 S 
ATOM     28  C   UNL     1      47.628  11.533  18.254  0.00  0.00    +0.000 A 
ATOM     29  N   UNL     1      46.862  12.077  19.237  0.00  0.00    +0.000 NA
ATOM     30  C   UNL     1      46.363  11.219  20.065  0.00  0.00    +0.000 A 
ATOM     31  N   UNL     1      46.560   9.865  19.994  0.00  0.00    +0.000 N 
ATOM     32  C   UNL     1      47.287   9.267  18.994  0.00  0.00    +0.000 A 
ATOM     33  O   UNL     1      47.376   8.044  18.919  0.00  0.00    +0.000 OA
ATOM     34  C   UNL     1      47.888  10.190  18.046  0.00  0.00    +0.000 A 
ATOM     35  H   UNL     1      46.129   9.247  20.665  0.00  0.00    +0.000 HD
ENDBRANCH  22  25
ENDBRANCH  20  21
ENDBRANCH   4  20
TORSDOF 9
ENDMDL
MODEL 5
REMARK VINA RESULT:    -6.917      2.382      3.767
REMARK INTER + INTRA:         -11.769
REMARK INTER:                 -10.504
REMARK INTRA:                  -1.266
REMARK UNBOUND:                -1.213
REMARK  Name = 
REMARK  10 active torsions:
REMARK  status: ('A' for Active; 'I' for Inactive)
REMARK    1  A    between atoms: C_1  and  O_2
REMARK    2  A    between atoms: O_2  and  C_3
REMARK    3  A    between atoms: C_3  and  C_4
REMARK    4  A    between atoms: C_4  and  N_5
REMARK    5  A    between atoms: C_4  and  C_13
REMARK    6  A    between atoms: N_5  and  C_6
REMARK    7  A    between atoms: C_6  and  C_7
REMARK    8  A    between atoms: C_16  and  C_17
REMARK    9  A    between atoms: C_17  and  N_18
REMARK   10  A    between atoms: C_19  and  C_21
REMARK                            x       y       z     vdW  Elec       q    Type
REMARK                         _______ _______ _______ _____ _____    ______ ____
ROOT
ATOM      1  C   UNL     1      45.519   5.115  12.144  0.00  0.00    +0.000 A 
ATOM      2  C   UNL     1      46.233   5.874  13.086  0.00  0.00    +0.000 A 
ATOM      3  C   UNL     1      46.911   5.258  14.140  0.00  0.00    +0.000 A 
ATOM      4  C   UNL     1      46.944   3.863  14.245  0.00  0.00    +0.000 A 
ATOM      5  C   UNL     1      46.212   3.101  13.330  0.00  0.00    +0.000 A 
ATOM      6  C   UNL     1      45.495   3.720  12.306  0.00  0.00    +0.000 A 
ENDROOT
BRANCH   1   7
ATOM      7  C   UNL     1      44.753   5.825  11.023  0.00  0.00    +0.000 C 
BRANCH   7   8
ATOM      8  N   UNL     1      45.296   5.488   9.692  0.00  0.00    +0.000 NA
ATOM      9  H   UNL     1      46.268   5.212   9.778  0.00  0.00    +0.000 HD
BRANCH   8  10
ATOM     10  C   UNL     1      44.546   4.432   9.006  0.00  0.00    +0.000 C 
BRANCH  10  11
ATOM     11  C   UNL     1      45.458   3.406   8.395  0.00  0.00    +0.000 A 
ATOM     12  C   UNL     1      46.382   3.741   7.404  0.00  0.00    +0.000 A 
ATOM     13  C   UNL     1      47.208   2.758   6.875  0.00  0.00    +0.000 A 
ATOM     14  C   UNL     1      47.078   1.462   7.351  0.00  0.00    +0.000 A 
ATOM     15  N   UNL     1      46.192   1.095   8.300  0.00  0.00    +0.000 NA
ATOM     16  C   UNL     1      45.403   2.073   8.798  0.00  0.00    +0.000 A 
ENDBRANCH  10  11
ENDBRANCH   8  10
ENDBRANCH   7   8
BRANCH   7  17
ATOM     17  C   UNL     1      44.759   7.369  11.256  0.00  0.00    +0.000 C 
BRANCH  17  19
ATOM     18  C   UNL     1      43.617   9.365  10.784  0.00  0.00    +0.000 C 
ATOM     19  O   UNL     1      43.475   7.979  11.087  0.00  0.00    +0.000 OA
ENDBRANCH  17  19
ENDBRANCH   7  17
ENDBRANCH   1   7
BRANCH   4  20
ATOM     20  C   UNL     1      47.755   3.197  15.323  0.00  0.00    +0.000 C 
BRANCH  20  21
ATOM     21  N   UNL     1      47.817   3.992  16.522  0.00  0.00    +0.000 N 
ATOM     22  C   UNL     1      48.922   4.032  17.331  0.00  0.00    +0.000 C 
ATOM     23  O   UNL     1      49.951   3.418  17.068  0.00  0.00    +0.000 OA
ATOM     24  H   UNL     1      46.951   4.420  16.827  0.00  0.00    +0.000 HD
BRANCH  22  25
ATOM     25  C   UNL     1      48.822   4.888  18.519  0.00  0.00    +0.000 A 
ATOM     26  C   UNL     1      48.797   4.311  19.781  0.00  0.00    +0.000 A 
ATOM     27  S   UNL     1      48.722   5.446  21.052  0.00  0.00    +0.000 S 
ATOM     28  C   UNL     1      48.671   6.749  19.959  0.00  0.00    +0.000 A 
ATOM     29  N   UNL     1      48.584   8.031  20.404  0.00  0.00    +0.000 NA
ATOM     30  C   UNL     1      48.514   8.920  19.469  0.00  0.00    +0.000 A 
ATOM     31  N   UNL     1      48.529   8.640  18.127  0.00  0.00    +0.000 N 
ATOM     32  C   UNL     1      48.662   7.366  17.631  0.00  0.00    +0.000 A 
ATOM     33  O   UNL     1      48.751   7.162  16.423  0.00  0.00    +0.000 OA
ATOM     34  C   UNL     1      48.724   6.325  18.643  0.00  0.00    +0.000 A 
ATOM     35  H   UNL     1      48.487   9.383  17.447  0.00  0.00    +0.000 HD
ENDBRANCH  22  25
ENDBRANCH  20  21
ENDBRANCH   4  20
TORSDOF 9
ENDMDL
MODEL 6
REMARK VINA RESULT:    -6.874      3.359      8.842
REMARK INTER + INTRA:         -11.703
REMARK INTER:                  -9.832
REMARK INTRA:                  -1.870
REMARK UNBOUND:                -1.213
REMARK  Name = 
REMARK  10 active torsions:
REMARK  status: ('A' for Active; 'I' for Inactive)
REMARK    1  A    between atoms: C_1  and  O_2
REMARK    2  A    between atoms: O_2  and  C_3
REMARK    3  A    between atoms: C_3  and  C_4
REMARK    4  A    between atoms: C_4  and  N_5
REMARK    5  A    between atoms: C_4  and  C_13
REMARK    6  A    between atoms: N_5  and  C_6
REMARK    7  A    between atoms: C_6  and  C_7
REMARK    8  A    between atoms: C_16  and  C_17
REMARK    9  A    between atoms: C_17  and  N_18
REMARK   10  A    between atoms: C_19  and  C_21
REMARK                            x       y       z     vdW  Elec       q    Type
REMARK                         _______ _______ _______ _____ _____    ______ ____
ROOT
ATOM      1  C   UNL     1      49.069   8.189  16.202  0.00  0.00    +0.000 A 
ATOM      2  C   UNL     1      48.083   9.020  15.645  0.00  0.00    +0.000 A 
ATOM      3  C   UNL     1      47.746   8.927  14.293  0.00  0.00    +0.000 A 
ATOM      4  C   UNL     1      48.342   7.961  13.476  0.00  0.00    +0.000 A 
ATOM      5  C   UNL     1      49.345   7.149  14.014  0.00  0.00    +0.000 A 
ATOM      6  C   UNL     1      49.716   7.276  15.353  0.00  0.00    +0.000 A 
ENDROOT
BRANCH   1   7
ATOM      7  C   UNL     1      49.445   8.343  17.679  0.00  0.00    +0.000 C 
BRANCH   7   8
ATOM      8  N   UNL     1      49.954   7.080  18.248  0.00  0.00    +0.000 NA
ATOM      9  H   UNL     1      50.717   7.273  18.887  0.00  0.00    +0.000 HD
BRANCH   8  10
ATOM     10  C   UNL     1      48.927   6.295  18.939  0.00  0.00    +0.000 C 
BRANCH  10  11
ATOM     11  C   UNL     1      48.598   5.029  18.199  0.00  0.00    +0.000 A 
ATOM     12  C   UNL     1      49.576   4.083  17.889  0.00  0.00    +0.000 A 
ATOM     13  C   UNL     1      49.221   2.925  17.210  0.00  0.00    +0.000 A 
ATOM     14  C   UNL     1      47.891   2.753  16.853  0.00  0.00    +0.000 A 
ATOM     15  N   UNL     1      46.918   3.645  17.127  0.00  0.00    +0.000 NA
ATOM     16  C   UNL     1      47.293   4.762  17.790  0.00  0.00    +0.000 A 
ENDBRANCH  10  11
ENDBRANCH   8  10
ENDBRANCH   7   8
BRANCH   7  17
ATOM     17  C   UNL     1      48.224   8.873  18.495  0.00  0.00    +0.000 C 
BRANCH  17  19
ATOM     18  C   UNL     1      49.719  10.626  18.946  0.00  0.00    +0.000 C 
ATOM     19  O   UNL     1      48.554   9.937  19.395  0.00  0.00    +0.000 OA
ENDBRANCH  17  19
ENDBRANCH   7  17
ENDBRANCH   1   7
BRANCH   4  20
ATOM     20  C   UNL     1      47.907   7.797  12.044  0.00  0.00    +0.000 C 
BRANCH  20  21
ATOM     21  N   UNL     1      47.105   6.615  11.855  0.00  0.00    +0.000 N 
ATOM     22  C   UNL     1      45.737   6.632  11.899  0.00  0.00    +0.000 C 
ATOM     23  O   UNL     1      45.097   7.665  12.067  0.00  0.00    +0.000 OA
ATOM     24  H   UNL     1      47.601   5.732  11.826  0.00  0.00    +0.000 HD
BRANCH  22  25
ATOM     25  C   UNL     1      45.069   5.341  11.692  0.00  0.00    +0.000 A 
ATOM     26  C   UNL     1      44.384   4.745  12.742  0.00  0.00    +0.000 A 
ATOM     27  S   UNL     1      43.631   3.275  12.322  0.00  0.00    +0.000 S 
ATOM     28  C   UNL     1      44.233   3.356  10.733  0.00  0.00    +0.000 A 
ATOM     29  N   UNL     1      43.965   2.372   9.832  0.00  0.00    +0.000 NA
ATOM     30  C   UNL     1      44.516   2.539   8.676  0.00  0.00    +0.000 A 
ATOM     31  N   UNL     1      45.307   3.606   8.337  0.00  0.00    +0.000 N 
ATOM     32  C   UNL     1      45.568   4.645   9.198  0.00  0.00    +0.000 A 
ATOM     33  O   UNL     1      46.217   5.622   8.833  0.00  0.00    +0.000 OA
ATOM     34  C   UNL     1      44.989   4.496  10.521  0.00  0.00    +0.000 A 
ATOM     35  H   UNL     1      45.696   3.684   7.410  0.00  0.00    +0.000 HD
ENDBRANCH  22  25
ENDBRANCH  20  21
ENDBRANCH   4  20
TORSDOF 9
ENDMDL
MODEL 7
REMARK VINA RESULT:    -6.795      4.504      6.865
REMARK INTER + INTRA:         -11.583
REMARK INTER:                 -10.583
REMARK INTRA:                  -1.000
REMARK UNBOUND:                -1.213
REMARK  Name = 
REMARK  10 active torsions:
REMARK  status: ('A' for Active; 'I' for Inactive)
REMARK    1  A    between atoms: C_1  and  O_2
REMARK    2  A    between atoms: O_2  and  C_3
REMARK    3  A    between atoms: C_3  and  C_4
REMARK    4  A    between atoms: C_4  and  N_5
REMARK    5  A    between atoms: C_4  and  C_13
REMARK    6  A    between atoms: N_5  and  C_6
REMARK    7  A    between atoms: C_6  and  C_7
REMARK    8  A    between atoms: C_16  and  C_17
REMARK    9  A    between atoms: C_17  and  N_18
REMARK   10  A    between atoms: C_19  and  C_21
REMARK                            x       y       z     vdW  Elec       q    Type
REMARK                         _______ _______ _______ _____ _____    ______ ____
ROOT
ATOM      1  C   UNL     1      45.470   4.298  12.219  0.00  0.00    +0.000 A 
ATOM      2  C   UNL     1      45.779   5.325  11.311  0.00  0.00    +0.000 A 
ATOM      3  C   UNL     1      46.654   6.354  11.662  0.00  0.00    +0.000 A 
ATOM      4  C   UNL     1      47.290   6.353  12.908  0.00  0.00    +0.000 A 
ATOM      5  C   UNL     1      46.967   5.352  13.828  0.00  0.00    +0.000 A 
ATOM      6  C   UNL     1      46.054   4.350  13.495  0.00  0.00    +0.000 A 
ENDROOT
BRANCH   1   7
ATOM      7  C   UNL     1      44.474   3.205  11.817  0.00  0.00    +0.000 C 
BRANCH   7   8
ATOM      8  N   UNL     1      44.966   2.413  10.672  0.00  0.00    +0.000 NA
ATOM      9  H   UNL     1      44.643   1.455  10.753  0.00  0.00    +0.000 HD
BRANCH   8  10
ATOM     10  C   UNL     1      44.564   2.955   9.371  0.00  0.00    +0.000 C 
BRANCH  10  11
ATOM     11  C   UNL     1      45.554   2.617   8.294  0.00  0.00    +0.000 A 
ATOM     12  C   UNL     1      46.214   1.387   8.260  0.00  0.00    +0.000 A 
ATOM     13  C   UNL     1      47.116   1.119   7.239  0.00  0.00    +0.000 A 
ATOM     14  C   UNL     1      47.338   2.099   6.282  0.00  0.00    +0.000 A 
ATOM     15  N   UNL     1      46.727   3.302   6.283  0.00  0.00    +0.000 NA
ATOM     16  C   UNL     1      45.854   3.534   7.288  0.00  0.00    +0.000 A 
ENDBRANCH  10  11
ENDBRANCH   8  10
ENDBRANCH   7   8
BRANCH   7  17
ATOM     17  C   UNL     1      43.078   3.832  11.506  0.00  0.00    +0.000 C 
BRANCH  17  19
ATOM     18  C   UNL     1      42.408   6.063  11.793  0.00  0.00    +0.000 C 
ATOM     19  O   UNL     1      42.674   4.827  12.452  0.00  0.00    +0.000 OA
ENDBRANCH  17  19
ENDBRANCH   7  17
ENDBRANCH   1   7
BRANCH   4  20
ATOM     20  C   UNL     1      48.307   7.409  13.247  0.00  0.00    +0.000 C 
BRANCH  20  21
ATOM     21  N   UNL     1      48.302   8.491  12.297  0.00  0.00    +0.000 N 
ATOM     22  C   UNL     1      49.125   9.579  12.406  0.00  0.00    +0.000 C 
ATOM     23  O   UNL     1      49.953   9.691  13.305  0.00  0.00    +0.000 OA
ATOM     24  H   UNL     1      47.557   8.486  11.609  0.00  0.00    +0.000 HD
BRANCH  22  25
ATOM     25  C   UNL     1      48.992  10.598  11.357  0.00  0.00    +0.000 A 
ATOM     26  C   UNL     1      50.128  11.095  10.734  0.00  0.00    +0.000 A 
ATOM     27  S   UNL     1      49.795  12.236   9.512  0.00  0.00    +0.000 S 
ATOM     28  C   UNL     1      48.121  12.144   9.804  0.00  0.00    +0.000 A 
ATOM     29  N   UNL     1      47.244  12.902   9.092  0.00  0.00    +0.000 NA
ATOM     30  C   UNL     1      46.008  12.762   9.442  0.00  0.00    +0.000 A 
ATOM     31  N   UNL     1      45.570  11.929  10.439  0.00  0.00    +0.000 N 
ATOM     32  C   UNL     1      46.413  11.111  11.153  0.00  0.00    +0.000 A 
ATOM     33  O   UNL     1      45.975  10.321  11.984  0.00  0.00    +0.000 OA
ATOM     34  C   UNL     1      47.819  11.245  10.812  0.00  0.00    +0.000 A 
ATOM     35  H   UNL     1      44.588  11.856  10.653  0.00  0.00    +0.000 HD
ENDBRANCH  22  25
ENDBRANCH  20  21
ENDBRANCH   4  20
TORSDOF 9
ENDMDL
MODEL 8
REMARK VINA RESULT:    -6.673      3.323      4.041
REMARK INTER + INTRA:         -11.397
REMARK INTER:                  -9.966
REMARK INTRA:                  -1.431
REMARK UNBOUND:                -1.213
REMARK  Name = 
REMARK  10 active torsions:
REMARK  status: ('A' for Active; 'I' for Inactive)
REMARK    1  A    between atoms: C_1  and  O_2
REMARK    2  A    between atoms: O_2  and  C_3
REMARK    3  A    between atoms: C_3  and  C_4
REMARK    4  A    between atoms: C_4  and  N_5
REMARK    5  A    between atoms: C_4  and  C_13
REMARK    6  A    between atoms: N_5  and  C_6
REMARK    7  A    between atoms: C_6  and  C_7
REMARK    8  A    between atoms: C_16  and  C_17
REMARK    9  A    between atoms: C_17  and  N_18
REMARK   10  A    between atoms: C_19  and  C_21
REMARK                            x       y       z     vdW  Elec       q    Type
REMARK                         _______ _______ _______ _____ _____    ______ ____
ROOT
ATOM      1  C   UNL     1      45.989   6.698  11.916  0.00  0.00    +0.000 A 
ATOM      2  C   UNL     1      47.383   6.795  11.772  0.00  0.00    +0.000 A 
ATOM      3  C   UNL     1      48.055   7.981  12.073  0.00  0.00    +0.000 A 
ATOM      4  C   UNL     1      47.361   9.082  12.583  0.00  0.00    +0.000 A 
ATOM      5  C   UNL     1      45.970   9.006  12.702  0.00  0.00    +0.000 A 
ATOM      6  C   UNL     1      45.292   7.836  12.354  0.00  0.00    +0.000 A 
ENDROOT
BRANCH   1   7
ATOM      7  C   UNL     1      45.276   5.395  11.538  0.00  0.00    +0.000 C 
BRANCH   7   8
ATOM      8  N   UNL     1      44.599   5.503  10.231  0.00  0.00    +0.000 NA
ATOM      9  H   UNL     1      45.248   5.855   9.536  0.00  0.00    +0.000 HD
BRANCH   8  10
ATOM     10  C   UNL     1      44.023   4.238   9.766  0.00  0.00    +0.000 C 
BRANCH  10  11
ATOM     11  C   UNL     1      44.997   3.451   8.937  0.00  0.00    +0.000 A 
ATOM     12  C   UNL     1      45.783   4.055   7.954  0.00  0.00    +0.000 A 
ATOM     13  C   UNL     1      46.676   3.285   7.220  0.00  0.00    +0.000 A 
ATOM     14  C   UNL     1      46.749   1.926   7.487  0.00  0.00    +0.000 A 
ATOM     15  N   UNL     1      46.002   1.303   8.422  0.00  0.00    +0.000 NA
ATOM     16  C   UNL     1      45.144   2.077   9.122  0.00  0.00    +0.000 A 
ENDBRANCH  10  11
ENDBRANCH   8  10
ENDBRANCH   7   8
BRANCH   7  17
ATOM     17  C   UNL     1      44.270   4.984  12.659  0.00  0.00    +0.000 C 
BRANCH  17  19
ATOM     18  C   UNL     1      45.866   3.274  12.847  0.00  0.00    +0.000 C 
ATOM     19  O   UNL     1      44.685   3.839  13.411  0.00  0.00    +0.000 OA
ENDBRANCH  17  19
ENDBRANCH   7  17
ENDBRANCH   1   7
BRANCH   4  20
ATOM     20  C   UNL     1      48.099  10.326  13.000  0.00  0.00    +0.000 C 
BRANCH  20  21
ATOM     21  N   UNL     1      48.420  10.319  14.404  0.00  0.00    +0.000 N 
ATOM     22  C   UNL     1      49.702  10.413  14.873  0.00  0.00    +0.000 C 
ATOM     23  O   UNL     1      50.668  10.546  14.127  0.00  0.00    +0.000 OA
ATOM     24  H   UNL     1      47.662  10.099  15.040  0.00  0.00    +0.000 HD
BRANCH  22  25
ATOM     25  C   UNL     1      49.860  10.386  16.333  0.00  0.00    +0.000 A 
ATOM     26  C   UNL     1      50.408  11.482  16.984  0.00  0.00    +0.000 A 
ATOM     27  S   UNL     1      50.480  11.306  18.679  0.00  0.00    +0.000 S 
ATOM     28  C   UNL     1      49.826   9.737  18.599  0.00  0.00    +0.000 A 
ATOM     29  N   UNL     1      49.637   9.000  19.727  0.00  0.00    +0.000 NA
ATOM     30  C   UNL     1      49.169   7.814  19.519  0.00  0.00    +0.000 A 
ATOM     31  N   UNL     1      48.870   7.299  18.284  0.00  0.00    +0.000 N 
ATOM     32  C   UNL     1      49.002   8.021  17.123  0.00  0.00    +0.000 A 
ATOM     33  O   UNL     1      48.650   7.554  16.043  0.00  0.00    +0.000 OA
ATOM     34  C   UNL     1      49.544   9.358  17.298  0.00  0.00    +0.000 A 
ATOM     35  H   UNL     1      48.494   6.368  18.193  0.00  0.00    +0.000 HD
ENDBRANCH  22  25
ENDBRANCH  20  21
ENDBRANCH   4  20
TORSDOF 9
ENDMDL
MODEL 9
REMARK VINA RESULT:    -6.469      3.082      8.974
REMARK INTER + INTRA:         -11.085
REMARK INTER:                  -9.540
REMARK INTRA:                  -1.545
REMARK UNBOUND:                -1.213
REMARK  Name = 
REMARK  10 active torsions:
REMARK  status: ('A' for Active; 'I' for Inactive)
REMARK    1  A    between atoms: C_1  and  O_2
REMARK    2  A    between atoms: O_2  and  C_3
REMARK    3  A    between atoms: C_3  and  C_4
REMARK    4  A    between atoms: C_4  and  N_5
REMARK    5  A    between atoms: C_4  and  C_13
REMARK    6  A    between atoms: N_5  and  C_6
REMARK    7  A    between atoms: C_6  and  C_7
REMARK    8  A    between atoms: C_16  and  C_17
REMARK    9  A    between atoms: C_17  and  N_18
REMARK   10  A    between atoms: C_19  and  C_21
REMARK                            x       y       z     vdW  Elec       q    Type
REMARK                         _______ _______ _______ _____ _____    ______ ____
ROOT
ATOM      1  C   UNL     1      50.324   7.044  15.659  0.00  0.00    +0.000 A 
ATOM      2  C   UNL     1      49.018   6.536  15.568  0.00  0.00    +0.000 A 
ATOM      3  C   UNL     1      48.238   6.759  14.431  0.00  0.00    +0.000 A 
ATOM      4  C   UNL     1      48.765   7.443  13.330  0.00  0.00    +0.000 A 
ATOM      5  C   UNL     1      50.053   7.977  13.423  0.00  0.00    +0.000 A 
ATOM      6  C   UNL     1      50.814   7.797  14.579  0.00  0.00    +0.000 A 
ENDROOT
BRANCH   1   7
ATOM      7  C   UNL     1      51.139   6.817  16.937  0.00  0.00    +0.000 C 
BRANCH   7   8
ATOM      8  N   UNL     1      50.269   6.524  18.093  0.00  0.00    +0.000 NA
ATOM      9  H   UNL     1      49.296   6.554  17.808  0.00  0.00    +0.000 HD
BRANCH   8  10
ATOM     10  C   UNL     1      50.552   5.232  18.725  0.00  0.00    +0.000 C 
BRANCH  10  11
ATOM     11  C   UNL     1      49.932   4.092  17.968  0.00  0.00    +0.000 A 
ATOM     12  C   UNL     1      48.548   3.944  17.865  0.00  0.00    +0.000 A 
ATOM     13  C   UNL     1      48.023   2.877  17.148  0.00  0.00    +0.000 A 
ATOM     14  C   UNL     1      48.905   1.981  16.561  0.00  0.00    +0.000 A 
ATOM     15  N   UNL     1      50.247   2.083  16.644  0.00  0.00    +0.000 NA
ATOM     16  C   UNL     1      50.729   3.133  17.346  0.00  0.00    +0.000 A 
ENDBRANCH  10  11
ENDBRANCH   8  10
ENDBRANCH   7   8
BRANCH   7  17
ATOM     17  C   UNL     1      52.054   8.049  17.222  0.00  0.00    +0.000 C 
BRANCH  17  19
ATOM     18  C   UNL     1      54.188   9.020  17.109  0.00  0.00    +0.000 C 
ATOM     19  O   UNL     1      53.419   7.849  16.842  0.00  0.00    +0.000 OA
ENDBRANCH  17  19
ENDBRANCH   7  17
ENDBRANCH   1   7
BRANCH   4  20
ATOM     20  C   UNL     1      47.959   7.597  12.069  0.00  0.00    +0.000 C 
BRANCH  20  21
ATOM     21  N   UNL     1      47.144   6.439  11.803  0.00  0.00    +0.000 N 
ATOM     22  C   UNL     1      45.792   6.418  12.018  0.00  0.00    +0.000 C 
ATOM     23  O   UNL     1      45.174   7.399  12.418  0.00  0.00    +0.000 OA
ATOM     24  H   UNL     1      47.636   5.581  11.580  0.00  0.00    +0.000 HD
BRANCH  22  25
ATOM     25  C   UNL     1      45.108   5.158  11.702  0.00  0.00    +0.000 A 
ATOM     26  C   UNL     1      44.402   4.492  12.694  0.00  0.00    +0.000 A 
ATOM     27  S   UNL     1      43.633   3.071  12.150  0.00  0.00    +0.000 S 
ATOM     28  C   UNL     1      44.256   3.268  10.579  0.00  0.00    +0.000 A 
ATOM     29  N   UNL     1      43.984   2.362   9.601  0.00  0.00    +0.000 NA
ATOM     30  C   UNL     1      44.551   2.612   8.468  0.00  0.00    +0.000 A 
ATOM     31  N   UNL     1      45.362   3.690   8.223  0.00  0.00    +0.000 N 
ATOM     32  C   UNL     1      45.627   4.654   9.166  0.00  0.00    +0.000 A 
ATOM     33  O   UNL     1      46.295   5.646   8.887  0.00  0.00    +0.000 OA
ATOM     34  C   UNL     1      45.030   4.409  10.467  0.00  0.00    +0.000 A 
ATOM     35  H   UNL     1      45.763   3.835   7.309  0.00  0.00    +0.000 HD
ENDBRANCH  22  25
ENDBRANCH  20  21
ENDBRANCH   4  20
TORSDOF 9
ENDMDL
