MODEL 1
REMARK VINA RESULT:    -7.541      0.000      0.000
REMARK INTER + INTRA:         -10.724
REMARK INTER:                 -10.187
REMARK INTRA:                  -0.538
REMARK UNBOUND:                -0.538
REMARK  Name = 
REMARK  7 active torsions:
REMARK  status: ('A' for Active; 'I' for Inactive)
REMARK    1  A    between atoms: C_1  and  C_2
REMARK    2  A    between atoms: C_4  and  N_5
REMARK    3  A    between atoms: N_5  and  C_6
REMARK    4  A    between atoms: C_6  and  C_7
REMARK    5  A    between atoms: C_11  and  C_12
REMARK    6  A    between atoms: C_18  and  O_19
REMARK    7  A    between atoms: O_19  and  C_20
REMARK                            x       y       z     vdW  Elec       q    Type
REMARK                         _______ _______ _______ _____ _____    ______ ____
ROOT
ATOM      1  N   UNL     1      44.486   2.812  11.918  0.00  0.00    +0.000 N 
ATOM      2  H   UNL     1      43.815   2.507  12.626  0.00  0.00    +0.000 HD
ENDROOT
BRANCH   1   6
ATOM      3  C   UNL     1      45.232   7.581  12.666  0.00  0.00    +0.000 C 
ATOM      4  C   UNL     1      45.765   6.189  12.828  0.00  0.00    +0.000 A 
ATOM      5  C   UNL     1      45.008   5.132  12.270  0.00  0.00    +0.000 A 
ATOM      6  C   UNL     1      45.335   3.783  12.469  0.00  0.00    +0.000 A 
ATOM      7  C   UNL     1      46.515   3.496  13.148  0.00  0.00    +0.000 A 
ATOM      8  C   UNL     1      47.290   4.524  13.684  0.00  0.00    +0.000 A 
ATOM      9  C   UNL     1      46.923   5.868  13.543  0.00  0.00    +0.000 A 
BRANCH   9  10
ATOM     10  O   UNL     1      47.723   6.712  14.268  0.00  0.00    +0.000 OA
BRANCH  10  11
ATOM     11  C   UNL     1      48.611   7.655  13.634  0.00  0.00    +0.000 C 
ATOM     12  C   UNL     1      49.295   7.304  12.301  0.00  0.00    +0.000 C 
ATOM     13  N   UNL     1      50.624   7.481  12.902  0.00  0.00    +0.000 NA
ATOM     14  C   UNL     1      50.037   7.655  14.233  0.00  0.00    +0.000 C 
ATOM     15  H   UNL     1      51.139   8.293  12.565  0.00  0.00    +0.000 HD
ENDBRANCH  10  11
ENDBRANCH   9  10
ENDBRANCH   1   6
BRANCH   1  16
ATOM     16  C   UNL     1      43.810   3.150  10.668  0.00  0.00    +0.000 C 
BRANCH  16  17
ATOM     17  C   UNL     1      44.810   3.232   9.548  0.00  0.00    +0.000 A 
ATOM     18  C   UNL     1      45.076   4.445   8.920  0.00  0.00    +0.000 A 
ATOM     19  N   UNL     1      45.901   4.583   7.855  0.00  0.00    +0.000 NA
ATOM     20  C   UNL     1      46.493   3.455   7.390  0.00  0.00    +0.000 A 
ATOM     21  C   UNL     1      46.308   2.196   7.941  0.00  0.00    +0.000 A 
ATOM     22  C   UNL     1      45.446   2.094   9.040  0.00  0.00    +0.000 A 
BRANCH  21  23
ATOM     23  C   UNL     1      46.947   0.964   7.418  0.00  0.00    +0.000 C 
ATOM     24  N   UNL     1      47.833   1.057   6.382  0.00  0.00    +0.000 N 
ATOM     25  O   UNL     1      46.688  -0.133   7.901  0.00  0.00    +0.000 OA
ATOM     26  H   UNL     1      48.123   1.904   5.919  0.00  0.00    +0.000 HD
ATOM     27  H   UNL     1      48.245   0.188   6.063  0.00  0.00    +0.000 HD
ENDBRANCH  21  23
ENDBRANCH  16  17
ENDBRANCH   1  16
TORSDOF 6
ENDMDL
MODEL 2
REMARK VINA RESULT:    -7.315      1.778      2.530
REMARK INTER + INTRA:         -10.419
REMARK INTER:                  -9.778
REMARK INTRA:                  -0.641
REMARK UNBOUND:                -0.538
REMARK  Name = 
REMARK  7 active torsions:
REMARK  status: ('A' for Active; 'I' for Inactive)
REMARK    1  A    between atoms: C_1  and  C_2
REMARK    2  A    between atoms: C_4  and  N_5
REMARK    3  A    between atoms: N_5  and  C_6
REMARK    4  A    between atoms: C_6  and  C_7
REMARK    5  A    between atoms: C_11  and  C_12
REMARK    6  A    between atoms: C_18  and  O_19
REMARK    7  A    between atoms: O_19  and  C_20
REMARK                            x       y       z     vdW  Elec       q    Type
REMARK                         _______ _______ _______ _____ _____    ______ ____
ROOT
ATOM      1  N   UNL     1      44.599   2.893  11.817  0.00  0.00    +0.000 N 
ATOM      2  H   UNL     1      44.114   2.398  12.568  0.00  0.00    +0.000 HD
ENDROOT
BRANCH   1   6
ATOM      3  C   UNL     1      47.878   6.146  13.407  0.00  0.00    +0.000 C 
ATOM      4  C   UNL     1      46.447   5.883  13.050  0.00  0.00    +0.000 A 
ATOM      5  C   UNL     1      46.098   4.561  12.684  0.00  0.00    +0.000 A 
ATOM      6  C   UNL     1      44.824   4.222  12.205  0.00  0.00    +0.000 A 
ATOM      7  C   UNL     1      43.848   5.213  12.205  0.00  0.00    +0.000 A 
ATOM      8  C   UNL     1      44.163   6.516  12.587  0.00  0.00    +0.000 A 
ATOM      9  C   UNL     1      45.454   6.867  12.998  0.00  0.00    +0.000 A 
BRANCH   9  10
ATOM     10  O   UNL     1      45.602   8.217  13.181  0.00  0.00    +0.000 OA
BRANCH  10  11
ATOM     11  C   UNL     1      45.957   9.101  12.097  0.00  0.00    +0.000 C 
ATOM     12  C   UNL     1      47.102  10.116  12.267  0.00  0.00    +0.000 C 
ATOM     13  N   UNL     1      46.190  11.234  11.987  0.00  0.00    +0.000 NA
ATOM     14  C   UNL     1      45.033  10.335  11.981  0.00  0.00    +0.000 C 
ATOM     15  H   UNL     1      46.355  11.705  11.099  0.00  0.00    +0.000 HD
ENDBRANCH  10  11
ENDBRANCH   9  10
ENDBRANCH   1   6
BRANCH   1  16
ATOM     16  C   UNL     1      43.935   2.676  10.534  0.00  0.00    +0.000 C 
BRANCH  16  17
ATOM     17  C   UNL     1      44.897   2.935   9.407  0.00  0.00    +0.000 A 
ATOM     18  C   UNL     1      45.046   4.213   8.877  0.00  0.00    +0.000 A 
ATOM     19  N   UNL     1      45.829   4.507   7.812  0.00  0.00    +0.000 NA
ATOM     20  C   UNL     1      46.501   3.475   7.245  0.00  0.00    +0.000 A 
ATOM     21  C   UNL     1      46.435   2.163   7.692  0.00  0.00    +0.000 A 
ATOM     22  C   UNL     1      45.612   1.900   8.794  0.00  0.00    +0.000 A 
BRANCH  21  23
ATOM     23  C   UNL     1      47.161   1.038   7.056  0.00  0.00    +0.000 C 
ATOM     24  N   UNL     1      48.051   1.295   6.053  0.00  0.00    +0.000 N 
ATOM     25  O   UNL     1      46.970  -0.119   7.419  0.00  0.00    +0.000 OA
ATOM     26  H   UNL     1      48.290   2.203   5.685  0.00  0.00    +0.000 HD
ATOM     27  H   UNL     1      48.524   0.493   5.654  0.00  0.00    +0.000 HD
ENDBRANCH  21  23
ENDBRANCH  16  17
ENDBRANCH   1  16
TORSDOF 6
ENDMDL
MODEL 3
REMARK VINA RESULT:    -7.274      2.340      3.086
REMARK INTER + INTRA:         -10.362
REMARK INTER:                  -9.840
REMARK INTRA:                  -0.522
REMARK UNBOUND:                -0.538
REMARK  Name = 
REMARK  7 active torsions:
REMARK  status: ('A' for Active; 'I' for Inactive)
REMARK    1  A    between atoms: C_1  and  C_2
REMARK    2  A    between atoms: C_4  and  N_5
REMARK    3  A    between atoms: N_5  and  C_6
REMARK    4  A    between atoms: C_6  and  C_7
REMARK    5  A    between atoms: C_11  and  C_12
REMARK    6  A    between atoms: C_18  and  O_19
REMARK    7  A    between atoms: O_19  and  C_20
REMARK                            x       y       z     vdW  Elec       q    Type
REMARK                         _______ _______ _______ _____ _____    ______ ____
ROOT
ATOM      1  N   UNL     1      44.590   5.123  10.429  0.00  0.00    +0.000 N 
ATOM      2  H   UNL     1      43.928   5.896  10.527  0.00  0.00    +0.000 HD
ENDROOT
BRANCH   1   6
ATOM      3  C   UNL     1      48.218   7.252  12.913  0.00  0.00    +0.000 C 
ATOM      4  C   UNL     1      47.271   6.094  12.826  0.00  0.00    +0.000 A 
ATOM      5  C   UNL     1      46.424   6.027  11.694  0.00  0.00    +0.000 A 
ATOM      6  C   UNL     1      45.410   5.066  11.566  0.00  0.00    +0.000 A 
ATOM      7  C   UNL     1      45.324   4.082  12.544  0.00  0.00    +0.000 A 
ATOM      8  C   UNL     1      46.167   4.113  13.655  0.00  0.00    +0.000 A 
ATOM      9  C   UNL     1      47.131   5.115  13.814  0.00  0.00    +0.000 A 
BRANCH   9  10
ATOM     10  O   UNL     1      47.748   5.064  15.037  0.00  0.00    +0.000 OA
BRANCH  10  11
ATOM     11  C   UNL     1      47.234   4.262  16.120  0.00  0.00    +0.000 C 
ATOM     12  C   UNL     1      47.425   4.714  17.579  0.00  0.00    +0.000 C 
ATOM     13  N   UNL     1      48.147   3.475  17.899  0.00  0.00    +0.000 NA
ATOM     14  C   UNL     1      48.146   3.070  16.491  0.00  0.00    +0.000 C 
ATOM     15  H   UNL     1      47.647   2.837  18.516  0.00  0.00    +0.000 HD
ENDBRANCH  10  11
ENDBRANCH   9  10
ENDBRANCH   1   6
BRANCH   1  16
ATOM     16  C   UNL     1      45.255   5.166   9.129  0.00  0.00    +0.000 C 
BRANCH  16  17
ATOM     17  C   UNL     1      45.573   3.771   8.667  0.00  0.00    +0.000 A 
ATOM     18  C   UNL     1      44.954   2.670   9.252  0.00  0.00    +0.000 A 
ATOM     19  N   UNL     1      45.248   1.383   8.948  0.00  0.00    +0.000 NA
ATOM     20  C   UNL     1      46.207   1.181   8.011  0.00  0.00    +0.000 A 
ATOM     21  C   UNL     1      46.884   2.200   7.357  0.00  0.00    +0.000 A 
ATOM     22  C   UNL     1      46.553   3.517   7.702  0.00  0.00    +0.000 A 
BRANCH  21  23
ATOM     23  C   UNL     1      47.942   1.971   6.345  0.00  0.00    +0.000 C 
ATOM     24  N   UNL     1      48.983   2.851   6.251  0.00  0.00    +0.000 N 
ATOM     25  O   UNL     1      47.893   1.004   5.592  0.00  0.00    +0.000 OA
ATOM     26  H   UNL     1      49.126   3.669   6.822  0.00  0.00    +0.000 HD
ATOM     27  H   UNL     1      49.682   2.649   5.546  0.00  0.00    +0.000 HD
ENDBRANCH  21  23
ENDBRANCH  16  17
ENDBRANCH   1  16
TORSDOF 6
ENDMDL
MODEL 4
REMARK VINA RESULT:    -7.000      1.701      2.362
REMARK INTER + INTRA:          -9.994
REMARK INTER:                  -9.139
REMARK INTRA:                  -0.855
REMARK UNBOUND:                -0.538
REMARK  Name = 
REMARK  7 active torsions:
REMARK  status: ('A' for Active; 'I' for Inactive)
REMARK    1  A    between atoms: C_1  and  C_2
REMARK    2  A    between atoms: C_4  and  N_5
REMARK    3  A    between atoms: N_5  and  C_6
REMARK    4  A    between atoms: C_6  and  C_7
REMARK    5  A    between atoms: C_11  and  C_12
REMARK    6  A    between atoms: C_18  and  O_19
REMARK    7  A    between atoms: O_19  and  C_20
REMARK                            x       y       z     vdW  Elec       q    Type
REMARK                         _______ _______ _______ _____ _____    ______ ____
ROOT
ATOM      1  N   UNL     1      44.082   4.917  11.038  0.00  0.00    +0.000 N 
ATOM      2  H   UNL     1      43.298   5.443  11.428  0.00  0.00    +0.000 HD
ENDROOT
BRANCH   1   6
ATOM      3  C   UNL     1      47.051   4.275  14.864  0.00  0.00    +0.000 C 
ATOM      4  C   UNL     1      46.772   5.048  13.610  0.00  0.00    +0.000 A 
ATOM      5  C   UNL     1      45.575   4.756  12.916  0.00  0.00    +0.000 A 
ATOM      6  C   UNL     1      45.270   5.317  11.667  0.00  0.00    +0.000 A 
ATOM      7  C   UNL     1      46.136   6.282  11.163  0.00  0.00    +0.000 A 
ATOM      8  C   UNL     1      47.309   6.605  11.845  0.00  0.00    +0.000 A 
ATOM      9  C   UNL     1      47.644   5.991  13.056  0.00  0.00    +0.000 A 
BRANCH   9  10
ATOM     10  O   UNL     1      48.901   6.325  13.487  0.00  0.00    +0.000 OA
BRANCH  10  11
ATOM     11  C   UNL     1      49.254   7.677  13.844  0.00  0.00    +0.000 C 
ATOM     12  C   UNL     1      50.538   7.960  14.644  0.00  0.00    +0.000 C 
ATOM     13  N   UNL     1      49.764   8.593  15.720  0.00  0.00    +0.000 NA
ATOM     14  C   UNL     1      48.501   8.201  15.089  0.00  0.00    +0.000 C 
ATOM     15  H   UNL     1      49.893   9.600  15.802  0.00  0.00    +0.000 HD
ENDBRANCH  10  11
ENDBRANCH   9  10
ENDBRANCH   1   6
BRANCH   1  16
ATOM     16  C   UNL     1      44.058   4.949   9.577  0.00  0.00    +0.000 C 
BRANCH  16  17
ATOM     17  C   UNL     1      44.718   3.715   9.025  0.00  0.00    +0.000 A 
ATOM     18  C   UNL     1      44.413   2.456   9.534  0.00  0.00    +0.000 A 
ATOM     19  N   UNL     1      45.024   1.312   9.146  0.00  0.00    +0.000 NA
ATOM     20  C   UNL     1      45.989   1.425   8.201  0.00  0.00    +0.000 A 
ATOM     21  C   UNL     1      46.371   2.625   7.618  0.00  0.00    +0.000 A 
ATOM     22  C   UNL     1      45.717   3.786   8.048  0.00  0.00    +0.000 A 
BRANCH  21  23
ATOM     23  C   UNL     1      47.438   2.742   6.596  0.00  0.00    +0.000 C 
ATOM     24  N   UNL     1      47.208   3.476   5.467  0.00  0.00    +0.000 N 
ATOM     25  O   UNL     1      48.521   2.188   6.751  0.00  0.00    +0.000 OA
ATOM     26  H   UNL     1      46.362   3.978   5.244  0.00  0.00    +0.000 HD
ATOM     27  H   UNL     1      47.969   3.529   4.801  0.00  0.00    +0.000 HD
ENDBRANCH  21  23
ENDBRANCH  16  17
ENDBRANCH   1  16
TORSDOF 6
ENDMDL
MODEL 5
REMARK VINA RESULT:    -6.986      3.209      7.632
REMARK INTER + INTRA:          -9.974
REMARK INTER:                  -9.353
REMARK INTRA:                  -0.621
REMARK UNBOUND:                -0.538
REMARK  Name = 
REMARK  7 active torsions:
REMARK  status: ('A' for Active; 'I' for Inactive)
REMARK    1  A    between atoms: C_1  and  C_2
REMARK    2  A    between atoms: C_4  and  N_5
REMARK    3  A    between atoms: N_5  and  C_6
REMARK    4  A    between atoms: C_6  and  C_7
REMARK    5  A    between atoms: C_11  and  C_12
REMARK    6  A    between atoms: C_18  and  O_19
REMARK    7  A    between atoms: O_19  and  C_20
REMARK                            x       y       z     vdW  Elec       q    Type
REMARK                         _______ _______ _______ _____ _____    ______ ____
ROOT
ATOM      1  N   UNL     1      46.411   6.252  13.690  0.00  0.00    +0.000 N 
ATOM      2  H   UNL     1      46.015   5.765  14.496  0.00  0.00    +0.000 HD
ENDROOT
BRANCH   1   6
ATOM      3  C   UNL     1      43.406   2.914  11.768  0.00  0.00    +0.000 C 
ATOM      4  C   UNL     1      44.406   3.999  11.504  0.00  0.00    +0.000 A 
ATOM      5  C   UNL     1      45.034   4.594  12.624  0.00  0.00    +0.000 A 
ATOM      6  C   UNL     1      45.885   5.703  12.511  0.00  0.00    +0.000 A 
ATOM      7  C   UNL     1      46.202   6.148  11.232  0.00  0.00    +0.000 A 
ATOM      8  C   UNL     1      45.615   5.558  10.112  0.00  0.00    +0.000 A 
ATOM      9  C   UNL     1      44.711   4.497  10.233  0.00  0.00    +0.000 A 
BRANCH   9  10
ATOM     10  O   UNL     1      44.129   4.161   9.039  0.00  0.00    +0.000 OA
BRANCH  10  11
ATOM     11  C   UNL     1      44.589   3.044   8.251  0.00  0.00    +0.000 C 
ATOM     12  C   UNL     1      45.533   1.995   8.866  0.00  0.00    +0.000 C 
ATOM     13  N   UNL     1      46.552   2.271   7.844  0.00  0.00    +0.000 NA
ATOM     14  C   UNL     1      45.772   3.394   7.319  0.00  0.00    +0.000 C 
ATOM     15  H   UNL     1      46.698   1.517   7.175  0.00  0.00    +0.000 HD
ENDBRANCH  10  11
ENDBRANCH   9  10
ENDBRANCH   1   6
BRANCH   1  16
ATOM     16  C   UNL     1      47.866   6.338  13.794  0.00  0.00    +0.000 C 
BRANCH  16  17
ATOM     17  C   UNL     1      48.301   6.015  15.197  0.00  0.00    +0.000 A 
ATOM     18  C   UNL     1      49.321   6.737  15.809  0.00  0.00    +0.000 A 
ATOM     19  N   UNL     1      49.821   6.454  17.035  0.00  0.00    +0.000 NA
ATOM     20  C   UNL     1      49.277   5.397  17.688  0.00  0.00    +0.000 A 
ATOM     21  C   UNL     1      48.252   4.613  17.180  0.00  0.00    +0.000 A 
ATOM     22  C   UNL     1      47.764   4.936  15.907  0.00  0.00    +0.000 A 
BRANCH  21  23
ATOM     23  C   UNL     1      47.672   3.449  17.893  0.00  0.00    +0.000 C 
ATOM     24  N   UNL     1      48.275   2.992  19.030  0.00  0.00    +0.000 N 
ATOM     25  O   UNL     1      46.662   2.894  17.474  0.00  0.00    +0.000 OA
ATOM     26  H   UNL     1      49.099   3.376  19.465  0.00  0.00    +0.000 HD
ATOM     27  H   UNL     1      47.838   2.197  19.483  0.00  0.00    +0.000 HD
ENDBRANCH  21  23
ENDBRANCH  16  17
ENDBRANCH   1  16
TORSDOF 6
ENDMDL
MODEL 6
REMARK VINA RESULT:    -6.750      1.873      2.607
REMARK INTER + INTRA:          -9.656
REMARK INTER:                  -8.737
REMARK INTRA:                  -0.919
REMARK UNBOUND:                -0.538
REMARK  Name = 
REMARK  7 active torsions:
REMARK  status: ('A' for Active; 'I' for Inactive)
REMARK    1  A    between atoms: C_1  and  C_2
REMARK    2  A    between atoms: C_4  and  N_5
REMARK    3  A    between atoms: N_5  and  C_6
REMARK    4  A    between atoms: C_6  and  C_7
REMARK    5  A    between atoms: C_11  and  C_12
REMARK    6  A    between atoms: C_18  and  O_19
REMARK    7  A    between atoms: O_19  and  C_20
REMARK                            x       y       z     vdW  Elec       q    Type
REMARK                         _______ _______ _______ _____ _____    ______ ____
ROOT
ATOM      1  N   UNL     1      43.771   5.828  12.605  0.00  0.00    +0.000 N 
ATOM      2  H   UNL     1      43.245   6.512  13.153  0.00  0.00    +0.000 HD
ENDROOT
BRANCH   1   6
ATOM      3  C   UNL     1      47.809   8.514  12.020  0.00  0.00    +0.000 C 
ATOM      4  C   UNL     1      47.208   7.263  12.586  0.00  0.00    +0.000 A 
ATOM      5  C   UNL     1      45.841   7.015  12.315  0.00  0.00    +0.000 A 
ATOM      6  C   UNL     1      45.138   5.951  12.896  0.00  0.00    +0.000 A 
ATOM      7  C   UNL     1      45.855   5.048  13.674  0.00  0.00    +0.000 A 
ATOM      8  C   UNL     1      47.210   5.258  13.931  0.00  0.00    +0.000 A 
ATOM      9  C   UNL     1      47.893   6.361  13.407  0.00  0.00    +0.000 A 
BRANCH   9  10
ATOM     10  O   UNL     1      49.166   6.476  13.898  0.00  0.00    +0.000 OA
BRANCH  10  11
ATOM     11  C   UNL     1      49.467   7.263  15.070  0.00  0.00    +0.000 C 
ATOM     12  C   UNL     1      50.582   8.322  15.029  0.00  0.00    +0.000 C 
ATOM     13  N   UNL     1      51.299   7.651  16.122  0.00  0.00    +0.000 NA
ATOM     14  C   UNL     1      50.361   6.526  16.093  0.00  0.00    +0.000 C 
ATOM     15  H   UNL     1      51.309   8.163  17.002  0.00  0.00    +0.000 HD
ENDBRANCH  10  11
ENDBRANCH   9  10
ENDBRANCH   1   6
BRANCH   1  16
ATOM     16  C   UNL     1      43.382   5.878  11.197  0.00  0.00    +0.000 C 
BRANCH  16  17
ATOM     17  C   UNL     1      43.817   4.619  10.499  0.00  0.00    +0.000 A 
ATOM     18  C   UNL     1      43.403   3.372  10.958  0.00  0.00    +0.000 A 
ATOM     19  N   UNL     1      43.817   2.194  10.433  0.00  0.00    +0.000 NA
ATOM     20  C   UNL     1      44.689   2.260   9.396  0.00  0.00    +0.000 A 
ATOM     21  C   UNL     1      45.163   3.445   8.853  0.00  0.00    +0.000 A 
ATOM     22  C   UNL     1      44.713   4.642   9.425  0.00  0.00    +0.000 A 
BRANCH  21  23
ATOM     23  C   UNL     1      46.128   3.509   7.729  0.00  0.00    +0.000 C 
ATOM     24  N   UNL     1      46.616   2.349   7.198  0.00  0.00    +0.000 N 
ATOM     25  O   UNL     1      46.493   4.588   7.274  0.00  0.00    +0.000 OA
ATOM     26  H   UNL     1      46.378   1.413   7.488  0.00  0.00    +0.000 HD
ATOM     27  H   UNL     1      47.270   2.445   6.430  0.00  0.00    +0.000 HD
ENDBRANCH  21  23
ENDBRANCH  16  17
ENDBRANCH   1  16
TORSDOF 6
ENDMDL
MODEL 7
REMARK VINA RESULT:    -6.442      2.010      7.074
REMARK INTER + INTRA:          -9.239
REMARK INTER:                  -8.515
REMARK INTRA:                  -0.725
REMARK UNBOUND:                -0.538
REMARK  Name = 
REMARK  7 active torsions:
REMARK  status: ('A' for Active; 'I' for Inactive)
REMARK    1  A    between atoms: C_1  and  C_2
REMARK    2  A    between atoms: C_4  and  N_5
REMARK    3  A    between atoms: N_5  and  C_6
REMARK    4  A    between atoms: C_6  and  C_7
REMARK    5  A    between atoms: C_11  and  C_12
REMARK    6  A    between atoms: C_18  and  O_19
REMARK    7  A    between atoms: O_19  and  C_20
REMARK                            x       y       z     vdW  Elec       q    Type
REMARK                         _______ _______ _______ _____ _____    ______ ____
ROOT
ATOM      1  N   UNL     1      44.480   5.336  11.954  0.00  0.00    +0.000 N 
ATOM      2  H   UNL     1      43.688   4.800  12.314  0.00  0.00    +0.000 HD
ENDROOT
BRANCH   1   6
ATOM      3  C   UNL     1      44.374   1.452   8.993  0.00  0.00    +0.000 C 
ATOM      4  C   UNL     1      44.876   2.847   9.211  0.00  0.00    +0.000 A 
ATOM      5  C   UNL     1      44.573   3.464  10.448  0.00  0.00    +0.000 A 
ATOM      6  C   UNL     1      44.874   4.807  10.715  0.00  0.00    +0.000 A 
ATOM      7  C   UNL     1      45.599   5.511   9.760  0.00  0.00    +0.000 A 
ATOM      8  C   UNL     1      45.932   4.914   8.544  0.00  0.00    +0.000 A 
ATOM      9  C   UNL     1      45.568   3.594   8.252  0.00  0.00    +0.000 A 
BRANCH   9  10
ATOM     10  O   UNL     1      45.846   3.244   6.957  0.00  0.00    +0.000 OA
BRANCH  10  11
ATOM     11  C   UNL     1      47.196   3.040   6.492  0.00  0.00    +0.000 C 
ATOM     12  C   UNL     1      47.457   2.532   5.063  0.00  0.00    +0.000 C 
ATOM     13  N   UNL     1      48.173   1.358   5.580  0.00  0.00    +0.000 NA
ATOM     14  C   UNL     1      47.811   1.699   6.957  0.00  0.00    +0.000 C 
ATOM     15  H   UNL     1      49.176   1.359   5.401  0.00  0.00    +0.000 HD
ENDBRANCH  10  11
ENDBRANCH   9  10
ENDBRANCH   1   6
BRANCH   1  16
ATOM     16  C   UNL     1      45.515   5.489  12.973  0.00  0.00    +0.000 C 
BRANCH  16  17
ATOM     17  C   UNL     1      46.155   6.845  12.857  0.00  0.00    +0.000 A 
ATOM     18  C   UNL     1      45.375   7.993  12.754  0.00  0.00    +0.000 A 
ATOM     19  N   UNL     1      45.876   9.237  12.565  0.00  0.00    +0.000 NA
ATOM     20  C   UNL     1      47.224   9.345  12.474  0.00  0.00    +0.000 A 
ATOM     21  C   UNL     1      48.099   8.272  12.569  0.00  0.00    +0.000 A 
ATOM     22  C   UNL     1      47.542   7.002  12.762  0.00  0.00    +0.000 A 
BRANCH  21  23
ATOM     23  C   UNL     1      49.572   8.397  12.453  0.00  0.00    +0.000 C 
ATOM     24  N   UNL     1      50.103   9.211  11.494  0.00  0.00    +0.000 N 
ATOM     25  O   UNL     1      50.317   7.777  13.206  0.00  0.00    +0.000 OA
ATOM     26  H   UNL     1      49.587   9.769  10.832  0.00  0.00    +0.000 HD
ATOM     27  H   UNL     1      51.114   9.264  11.457  0.00  0.00    +0.000 HD
ENDBRANCH  21  23
ENDBRANCH  16  17
ENDBRANCH   1  16
TORSDOF 6
ENDMDL
MODEL 8
REMARK VINA RESULT:    -6.278      3.881      7.726
REMARK INTER + INTRA:          -9.018
REMARK INTER:                  -8.728
REMARK INTRA:                  -0.290
REMARK UNBOUND:                -0.538
REMARK  Name = 
REMARK  7 active torsions:
REMARK  status: ('A' for Active; 'I' for Inactive)
REMARK    1  A    between atoms: C_1  and  C_2
REMARK    2  A    between atoms: C_4  and  N_5
REMARK    3  A    between atoms: N_5  and  C_6
REMARK    4  A    between atoms: C_6  and  C_7
REMARK    5  A    between atoms: C_11  and  C_12
REMARK    6  A    between atoms: C_18  and  O_19
REMARK    7  A    between atoms: O_19  and  C_20
REMARK                            x       y       z     vdW  Elec       q    Type
REMARK                         _______ _______ _______ _____ _____    ______ ____
ROOT
ATOM      1  N   UNL     1      47.314   5.367  14.693  0.00  0.00    +0.000 N 
ATOM      2  H   UNL     1      47.286   6.340  15.005  0.00  0.00    +0.000 HD
ENDROOT
BRANCH   1   6
ATOM      3  C   UNL     1      43.624   3.020  12.515  0.00  0.00    +0.000 C 
ATOM      4  C   UNL     1      44.717   4.036  12.377  0.00  0.00    +0.000 A 
ATOM      5  C   UNL     1      45.578   4.223  13.485  0.00  0.00    +0.000 A 
ATOM      6  C   UNL     1      46.551   5.232  13.523  0.00  0.00    +0.000 A 
ATOM      7  C   UNL     1      46.738   5.994  12.375  0.00  0.00    +0.000 A 
ATOM      8  C   UNL     1      45.919   5.809  11.261  0.00  0.00    +0.000 A 
ATOM      9  C   UNL     1      44.902   4.847  11.253  0.00  0.00    +0.000 A 
BRANCH   9  10
ATOM     10  O   UNL     1      44.112   4.925  10.136  0.00  0.00    +0.000 OA
BRANCH  10  11
ATOM     11  C   UNL     1      44.296   4.047   9.006  0.00  0.00    +0.000 C 
ATOM     12  C   UNL     1      44.644   2.564   9.223  0.00  0.00    +0.000 C 
ATOM     13  N   UNL     1      45.887   2.713   8.453  0.00  0.00    +0.000 NA
ATOM     14  C   UNL     1      45.695   4.163   8.359  0.00  0.00    +0.000 C 
ATOM     15  H   UNL     1      45.891   2.234   7.554  0.00  0.00    +0.000 HD
ENDBRANCH  10  11
ENDBRANCH   9  10
ENDBRANCH   1   6
BRANCH   1  16
ATOM     16  C   UNL     1      47.012   4.455  15.794  0.00  0.00    +0.000 C 
BRANCH  16  17
ATOM     17  C   UNL     1      48.185   4.377  16.732  0.00  0.00    +0.000 A 
ATOM     18  C   UNL     1      48.508   5.449  17.558  0.00  0.00    +0.000 A 
ATOM     19  N   UNL     1      49.594   5.483  18.368  0.00  0.00    +0.000 NA
ATOM     20  C   UNL     1      50.400   4.393  18.355  0.00  0.00    +0.000 A 
ATOM     21  C   UNL     1      50.172   3.266  17.578  0.00  0.00    +0.000 A 
ATOM     22  C   UNL     1      49.040   3.270  16.753  0.00  0.00    +0.000 A 
BRANCH  21  23
ATOM     23  C   UNL     1      51.067   2.083  17.558  0.00  0.00    +0.000 C 
ATOM     24  N   UNL     1      52.159   2.055  18.378  0.00  0.00    +0.000 N 
ATOM     25  O   UNL     1      50.839   1.135  16.815  0.00  0.00    +0.000 OA
ATOM     26  H   UNL     1      52.434   2.772  19.031  0.00  0.00    +0.000 HD
ATOM     27  H   UNL     1      52.737   1.225  18.330  0.00  0.00    +0.000 HD
ENDBRANCH  21  23
ENDBRANCH  16  17
ENDBRANCH   1  16
TORSDOF 6
ENDMDL
MODEL 9
REMARK VINA RESULT:    -6.240      3.293      7.802
REMARK INTER + INTRA:          -8.967
REMARK INTER:                  -8.164
REMARK INTRA:                  -0.802
REMARK UNBOUND:                -0.538
REMARK  Name = 
REMARK  7 active torsions:
REMARK  status: ('A' for Active; 'I' for Inactive)
REMARK    1  A    between atoms: C_1  and  C_2
REMARK    2  A    between atoms: C_4  and  N_5
REMARK    3  A    between atoms: N_5  and  C_6
REMARK    4  A    between atoms: C_6  and  C_7
REMARK    5  A    between atoms: C_11  and  C_12
REMARK    6  A    between atoms: C_18  and  O_19
REMARK    7  A    between atoms: O_19  and  C_20
REMARK                            x       y       z     vdW  Elec       q    Type
REMARK                         _______ _______ _______ _____ _____    ______ ____
ROOT
ATOM      1  N   UNL     1      49.314   7.823  14.562  0.00  0.00    +0.000 N 
ATOM      2  H   UNL     1      49.684   8.702  14.196  0.00  0.00    +0.000 HD
ENDROOT
BRANCH   1   6
ATOM      3  C   UNL     1      45.180   9.335  12.443  0.00  0.00    +0.000 C 
ATOM      4  C   UNL     1      46.066   8.171  12.773  0.00  0.00    +0.000 A 
ATOM      5  C   UNL     1      47.215   8.428  13.558  0.00  0.00    +0.000 A 
ATOM      6  C   UNL     1      48.184   7.449  13.819  0.00  0.00    +0.000 A 
ATOM      7  C   UNL     1      47.932   6.154  13.378  0.00  0.00    +0.000 A 
ATOM      8  C   UNL     1      46.792   5.873  12.626  0.00  0.00    +0.000 A 
ATOM      9  C   UNL     1      45.862   6.869  12.307  0.00  0.00    +0.000 A 
BRANCH   9  10
ATOM     10  O   UNL     1      44.899   6.432  11.435  0.00  0.00    +0.000 OA
BRANCH  10  11
ATOM     11  C   UNL     1      44.959   5.129  10.820  0.00  0.00    +0.000 C 
ATOM     12  C   UNL     1      45.393   4.983   9.350  0.00  0.00    +0.000 C 
ATOM     13  N   UNL     1      44.116   4.344   9.006  0.00  0.00    +0.000 NA
ATOM     14  C   UNL     1      43.583   4.608  10.345  0.00  0.00    +0.000 C 
ATOM     15  H   UNL     1      44.183   3.355   8.772  0.00  0.00    +0.000 HD
ENDBRANCH  10  11
ENDBRANCH   9  10
ENDBRANCH   1   6
BRANCH   1  16
ATOM     16  C   UNL     1      49.168   7.882  16.015  0.00  0.00    +0.000 C 
BRANCH  16  17
ATOM     17  C   UNL     1      49.540   6.558  16.623  0.00  0.00    +0.000 A 
ATOM     18  C   UNL     1      50.867   6.142  16.665  0.00  0.00    +0.000 A 
ATOM     19  N   UNL     1      51.269   4.932  17.122  0.00  0.00    +0.000 NA
ATOM     20  C   UNL     1      50.300   4.092  17.561  0.00  0.00    +0.000 A 
ATOM     21  C   UNL     1      48.947   4.403  17.574  0.00  0.00    +0.000 A 
ATOM     22  C   UNL     1      48.572   5.663  17.091  0.00  0.00    +0.000 A 
BRANCH  21  23
ATOM     23  C   UNL     1      47.892   3.473  18.042  0.00  0.00    +0.000 C 
ATOM     24  N   UNL     1      48.057   2.812  19.226  0.00  0.00    +0.000 N 
ATOM     25  O   UNL     1      46.876   3.289  17.379  0.00  0.00    +0.000 OA
ATOM     26  H   UNL     1      48.844   2.895  19.851  0.00  0.00    +0.000 HD
ATOM     27  H   UNL     1      47.307   2.191  19.504  0.00  0.00    +0.000 HD
ENDBRANCH  21  23
ENDBRANCH  16  17
ENDBRANCH   1  16
TORSDOF 6
ENDMDL
