MODEL 1
REMARK VINA RESULT:    -7.658      0.000      0.000
REMARK INTER + INTRA:         -11.267
REMARK INTER:                 -10.344
REMARK INTRA:                  -0.922
REMARK UNBOUND:                -0.922
REMARK  Name = 
REMARK  6 active torsions:
REMARK  status: ('A' for Active; 'I' for Inactive)
REMARK    1  A    between atoms: C_2  and  C_4
REMARK    2  A    between atoms: C_7  and  C_8
REMARK    3  A    between atoms: C_8  and  C_9
REMARK    4  A    between atoms: C_9  and  O_10
REMARK    5  A    between atoms: O_10  and  C_11
REMARK    6  A    between atoms: C_16  and  C_17
REMARK                            x       y       z     vdW  Elec       q    Type
REMARK                         _______ _______ _______ _____ _____    ______ ____
ROOT
ATOM      1  O   UNL     1      45.549   6.584  10.612  0.00  0.00    +0.000 OA
ENDROOT
BRANCH   1   2
ATOM      2  C   UNL     1      45.124   5.299  10.376  0.00  0.00    +0.000 A 
ATOM      3  C   UNL     1      44.226   4.601  11.188  0.00  0.00    +0.000 A 
ATOM      4  C   UNL     1      43.830   3.305  10.858  0.00  0.00    +0.000 A 
ATOM      5  C   UNL     1      44.334   2.712   9.715  0.00  0.00    +0.000 A 
ATOM      6  F   UNL     1      43.922   1.471   9.418  0.00  0.00    +0.000 F 
ATOM      7  C   UNL     1      45.245   3.373   8.882  0.00  0.00    +0.000 A 
ATOM      8  C   UNL     1      45.632   4.682   9.229  0.00  0.00    +0.000 A 
BRANCH   7   9
ATOM      9  C   UNL     1      45.789   2.694   7.640  0.00  0.00    +0.000 C 
ATOM     10  C   UNL     1      46.559   1.408   7.983  0.00  0.00    +0.000 C 
ATOM     11  C   UNL     1      47.220   0.823   6.743  0.00  0.00    +0.000 C 
ATOM     12  O   UNL     1      48.049   1.792   6.104  0.00  0.00    +0.000 OA
ATOM     13  C   UNL     1      47.306   2.919   5.644  0.00  0.00    +0.000 C 
ATOM     14  C   UNL     1      46.661   3.649   6.812  0.00  0.00    +0.000 C 
ENDBRANCH   7   9
ENDBRANCH   1   2
BRANCH   1  15
ATOM     15  C   UNL     1      45.789   6.867  11.996  0.00  0.00    +0.000 C 
BRANCH  15  16
ATOM     16  C   UNL     1      47.235   6.603  12.397  0.00  0.00    +0.000 C 
BRANCH  16  20
ATOM     17  C   UNL     1      47.587   3.976  15.741  0.00  0.00    +0.000 A 
ATOM     18  C   UNL     1      46.946   3.513  14.593  0.00  0.00    +0.000 A 
ATOM     19  C   UNL     1      46.830   4.354  13.488  0.00  0.00    +0.000 A 
ATOM     20  C   UNL     1      47.368   5.643  13.550  0.00  0.00    +0.000 A 
ATOM     21  N   UNL     1      48.009   6.101  14.652  0.00  0.00    +0.000 NA
ATOM     22  C   UNL     1      48.094   5.268  15.722  0.00  0.00    +0.000 A 
BRANCH  17  24
ATOM     23  N   UNL     1      48.947   2.833  17.400  0.00  0.00    +0.000 N 
ATOM     24  C   UNL     1      47.689   3.173  16.976  0.00  0.00    +0.000 C 
ATOM     25  O   UNL     1      46.700   2.838  17.601  0.00  0.00    +0.000 OA
ATOM     26  H   UNL     1      49.007   2.347  18.288  0.00  0.00    +0.000 HD
ATOM     27  H   UNL     1      49.784   3.267  17.044  0.00  0.00    +0.000 HD
ENDBRANCH  17  24
ENDBRANCH  16  20
ENDBRANCH  15  16
ENDBRANCH   1  15
TORSDOF 6
ENDMDL
MODEL 2
REMARK VINA RESULT:    -7.605      3.454      7.458
REMARK INTER + INTRA:         -11.194
REMARK INTER:                 -10.343
REMARK INTRA:                  -0.851
REMARK UNBOUND:                -0.922
REMARK  Name = 
REMARK  6 active torsions:
REMARK  status: ('A' for Active; 'I' for Inactive)
REMARK    1  A    between atoms: C_2  and  C_4
REMARK    2  A    between atoms: C_7  and  C_8
REMARK    3  A    between atoms: C_8  and  C_9
REMARK    4  A    between atoms: C_9  and  O_10
REMARK    5  A    between atoms: O_10  and  C_11
REMARK    6  A    between atoms: C_16  and  C_17
REMARK                            x       y       z     vdW  Elec       q    Type
REMARK                         _______ _______ _______ _____ _____    ______ ____
ROOT
ATOM      1  O   UNL     1      43.491   5.723  11.941  0.00  0.00    +0.000 OA
ENDROOT
BRANCH   1   2
ATOM      2  C   UNL     1      44.714   5.777  12.565  0.00  0.00    +0.000 A 
ATOM      3  C   UNL     1      45.252   4.746  13.342  0.00  0.00    +0.000 A 
ATOM      4  C   UNL     1      46.516   4.877  13.918  0.00  0.00    +0.000 A 
ATOM      5  C   UNL     1      47.236   6.040  13.716  0.00  0.00    +0.000 A 
ATOM      6  F   UNL     1      48.452   6.128  14.273  0.00  0.00    +0.000 F 
ATOM      7  C   UNL     1      46.728   7.099  12.956  0.00  0.00    +0.000 A 
ATOM      8  C   UNL     1      45.452   6.950  12.378  0.00  0.00    +0.000 A 
BRANCH   7   9
ATOM      9  C   UNL     1      47.537   8.368  12.760  0.00  0.00    +0.000 C 
ATOM     10  C   UNL     1      46.661   9.536  12.280  0.00  0.00    +0.000 C 
ATOM     11  C   UNL     1      47.512  10.753  11.949  0.00  0.00    +0.000 C 
ATOM     12  O   UNL     1      48.529  10.421  11.006  0.00  0.00    +0.000 OA
ATOM     13  C   UNL     1      49.439   9.447  11.514  0.00  0.00    +0.000 C 
ATOM     14  C   UNL     1      48.717   8.140  11.804  0.00  0.00    +0.000 C 
ENDBRANCH   7   9
ENDBRANCH   1   2
BRANCH   1  15
ATOM     15  C   UNL     1      43.560   5.302  10.574  0.00  0.00    +0.000 C 
BRANCH  15  16
ATOM     16  C   UNL     1      43.692   3.790  10.442  0.00  0.00    +0.000 C 
BRANCH  16  20
ATOM     17  C   UNL     1      46.577   2.497   7.576  0.00  0.00    +0.000 A 
ATOM     18  C   UNL     1      46.286   3.858   7.663  0.00  0.00    +0.000 A 
ATOM     19  C   UNL     1      45.353   4.299   8.599  0.00  0.00    +0.000 A 
ATOM     20  C   UNL     1      44.734   3.368   9.440  0.00  0.00    +0.000 A 
ATOM     21  N   UNL     1      45.020   2.045   9.379  0.00  0.00    +0.000 NA
ATOM     22  C   UNL     1      45.920   1.638   8.446  0.00  0.00    +0.000 A 
BRANCH  17  24
ATOM     23  N   UNL     1      48.633   2.661   6.290  0.00  0.00    +0.000 N 
ATOM     24  C   UNL     1      47.499   1.942   6.564  0.00  0.00    +0.000 C 
ATOM     25  O   UNL     1      47.271   0.885   6.007  0.00  0.00    +0.000 OA
ATOM     26  H   UNL     1      49.294   2.233   5.651  0.00  0.00    +0.000 HD
ATOM     27  H   UNL     1      48.964   3.411   6.875  0.00  0.00    +0.000 HD
ENDBRANCH  17  24
ENDBRANCH  16  20
ENDBRANCH  15  16
ENDBRANCH   1  15
TORSDOF 6
ENDMDL
MODEL 3
REMARK VINA RESULT:    -7.513      3.065      7.778
REMARK INTER + INTRA:         -11.071
REMARK INTER:                 -10.109
REMARK INTRA:                  -0.962
REMARK UNBOUND:                -0.922
REMARK  Name = 
REMARK  6 active torsions:
REMARK  status: ('A' for Active; 'I' for Inactive)
REMARK    1  A    between atoms: C_2  and  C_4
REMARK    2  A    between atoms: C_7  and  C_8
REMARK    3  A    between atoms: C_8  and  C_9
REMARK    4  A    between atoms: C_9  and  O_10
REMARK    5  A    between atoms: O_10  and  C_11
REMARK    6  A    between atoms: C_16  and  C_17
REMARK                            x       y       z     vdW  Elec       q    Type
REMARK                         _______ _______ _______ _____ _____    ______ ____
ROOT
ATOM      1  O   UNL     1      43.874   5.688  12.292  0.00  0.00    +0.000 OA
ENDROOT
BRANCH   1   2
ATOM      2  C   UNL     1      45.218   5.938  12.420  0.00  0.00    +0.000 A 
ATOM      3  C   UNL     1      45.975   6.687  11.512  0.00  0.00    +0.000 A 
ATOM      4  C   UNL     1      47.333   6.911  11.735  0.00  0.00    +0.000 A 
ATOM      5  C   UNL     1      47.931   6.385  12.866  0.00  0.00    +0.000 A 
ATOM      6  F   UNL     1      49.234   6.631  13.058  0.00  0.00    +0.000 F 
ATOM      7  C   UNL     1      47.212   5.620  13.792  0.00  0.00    +0.000 A 
ATOM      8  C   UNL     1      45.841   5.405  13.553  0.00  0.00    +0.000 A 
BRANCH   7   9
ATOM      9  C   UNL     1      47.897   5.047  15.018  0.00  0.00    +0.000 C 
ATOM     10  C   UNL     1      47.002   4.034  15.750  0.00  0.00    +0.000 C 
ATOM     11  C   UNL     1      47.647   3.583  17.053  0.00  0.00    +0.000 C 
ATOM     12  O   UNL     1      47.974   4.703  17.873  0.00  0.00    +0.000 OA
ATOM     13  C   UNL     1      48.927   5.565  17.255  0.00  0.00    +0.000 C 
ATOM     14  C   UNL     1      48.363   6.155  15.972  0.00  0.00    +0.000 C 
ENDBRANCH   7   9
ENDBRANCH   1   2
BRANCH   1  15
ATOM     15  C   UNL     1      43.488   5.268  10.978  0.00  0.00    +0.000 C 
BRANCH  15  16
ATOM     16  C   UNL     1      43.631   3.763  10.788  0.00  0.00    +0.000 C 
BRANCH  16  20
ATOM     17  C   UNL     1      46.374   2.801   7.664  0.00  0.00    +0.000 A 
ATOM     18  C   UNL     1      45.808   1.760   8.400  0.00  0.00    +0.000 A 
ATOM     19  C   UNL     1      44.903   2.056   9.417  0.00  0.00    +0.000 A 
ATOM     20  C   UNL     1      44.573   3.390   9.674  0.00  0.00    +0.000 A 
ATOM     21  N   UNL     1      45.102   4.410   8.957  0.00  0.00    +0.000 NA
ATOM     22  C   UNL     1      45.995   4.098   7.982  0.00  0.00    +0.000 A 
BRANCH  17  24
ATOM     23  N   UNL     1      47.236   3.251   5.436  0.00  0.00    +0.000 N 
ATOM     24  C   UNL     1      47.393   2.576   6.619  0.00  0.00    +0.000 C 
ATOM     25  O   UNL     1      48.340   1.835   6.802  0.00  0.00    +0.000 OA
ATOM     26  H   UNL     1      47.981   3.147   4.756  0.00  0.00    +0.000 HD
ATOM     27  H   UNL     1      46.603   4.027   5.326  0.00  0.00    +0.000 HD
ENDBRANCH  17  24
ENDBRANCH  16  20
ENDBRANCH  15  16
ENDBRANCH   1  15
TORSDOF 6
ENDMDL
MODEL 4
REMARK VINA RESULT:    -7.369      3.694      7.633
REMARK INTER + INTRA:         -10.876
REMARK INTER:                 -10.046
REMARK INTRA:                  -0.830
REMARK UNBOUND:                -0.922
REMARK  Name = 
REMARK  6 active torsions:
REMARK  status: ('A' for Active; 'I' for Inactive)
REMARK    1  A    between atoms: C_2  and  C_4
REMARK    2  A    between atoms: C_7  and  C_8
REMARK    3  A    between atoms: C_8  and  C_9
REMARK    4  A    between atoms: C_9  and  O_10
REMARK    5  A    between atoms: O_10  and  C_11
REMARK    6  A    between atoms: C_16  and  C_17
REMARK                            x       y       z     vdW  Elec       q    Type
REMARK                         _______ _______ _______ _____ _____    ______ ____
ROOT
ATOM      1  O   UNL     1      44.971   5.872  11.297  0.00  0.00    +0.000 OA
ENDROOT
BRANCH   1   2
ATOM      2  C   UNL     1      46.021   6.045  12.167  0.00  0.00    +0.000 A 
ATOM      3  C   UNL     1      46.307   5.197  13.241  0.00  0.00    +0.000 A 
ATOM      4  C   UNL     1      47.411   5.435  14.060  0.00  0.00    +0.000 A 
ATOM      5  C   UNL     1      48.225   6.523  13.801  0.00  0.00    +0.000 A 
ATOM      6  F   UNL     1      49.285   6.716  14.599  0.00  0.00    +0.000 F 
ATOM      7  C   UNL     1      47.965   7.403  12.744  0.00  0.00    +0.000 A 
ATOM      8  C   UNL     1      46.849   7.146  11.925  0.00  0.00    +0.000 A 
BRANCH   7   9
ATOM      9  C   UNL     1      48.870   8.594  12.491  0.00  0.00    +0.000 C 
ATOM     10  C   UNL     1      48.114   9.753  11.823  0.00  0.00    +0.000 C 
ATOM     11  C   UNL     1      49.068  10.877  11.444  0.00  0.00    +0.000 C 
ATOM     12  O   UNL     1      50.132  10.389  10.630  0.00  0.00    +0.000 OA
ATOM     13  C   UNL     1      50.932   9.423  11.309  0.00  0.00    +0.000 C 
ATOM     14  C   UNL     1      50.104   8.198  11.667  0.00  0.00    +0.000 C 
ENDBRANCH   7   9
ENDBRANCH   1   2
BRANCH   1  15
ATOM     15  C   UNL     1      44.389   4.565  11.351  0.00  0.00    +0.000 C 
BRANCH  15  16
ATOM     16  C   UNL     1      43.778   4.150  10.018  0.00  0.00    +0.000 C 
BRANCH  16  20
ATOM     17  C   UNL     1      46.652   2.394   7.398  0.00  0.00    +0.000 A 
ATOM     18  C   UNL     1      45.982   1.570   8.302  0.00  0.00    +0.000 A 
ATOM     19  C   UNL     1      45.033   2.125   9.158  0.00  0.00    +0.000 A 
ATOM     20  C   UNL     1      44.766   3.496   9.088  0.00  0.00    +0.000 A 
ATOM     21  N   UNL     1      45.397   4.305   8.203  0.00  0.00    +0.000 NA
ATOM     22  C   UNL     1      46.330   3.744   7.391  0.00  0.00    +0.000 A 
BRANCH  17  24
ATOM     23  N   UNL     1      48.772   2.739   6.260  0.00  0.00    +0.000 N 
ATOM     24  C   UNL     1      47.720   1.896   6.507  0.00  0.00    +0.000 C 
ATOM     25  O   UNL     1      47.677   0.781   6.024  0.00  0.00    +0.000 OA
ATOM     26  H   UNL     1      49.534   2.359   5.708  0.00  0.00    +0.000 HD
ATOM     27  H   UNL     1      48.953   3.567   6.803  0.00  0.00    +0.000 HD
ENDBRANCH  17  24
ENDBRANCH  16  20
ENDBRANCH  15  16
ENDBRANCH   1  15
TORSDOF 6
ENDMDL
MODEL 5
REMARK VINA RESULT:    -7.246      1.577      2.276
REMARK INTER + INTRA:         -10.709
REMARK INTER:                  -9.736
REMARK INTRA:                  -0.974
REMARK UNBOUND:                -0.922
REMARK  Name = 
REMARK  6 active torsions:
REMARK  status: ('A' for Active; 'I' for Inactive)
REMARK    1  A    between atoms: C_2  and  C_4
REMARK    2  A    between atoms: C_7  and  C_8
REMARK    3  A    between atoms: C_8  and  C_9
REMARK    4  A    between atoms: C_9  and  O_10
REMARK    5  A    between atoms: O_10  and  C_11
REMARK    6  A    between atoms: C_16  and  C_17
REMARK                            x       y       z     vdW  Elec       q    Type
REMARK                         _______ _______ _______ _____ _____    ______ ____
ROOT
ATOM      1  O   UNL     1      46.299   7.908  11.805  0.00  0.00    +0.000 OA
ENDROOT
BRANCH   1   2
ATOM      2  C   UNL     1      45.441   6.835  11.781  0.00  0.00    +0.000 A 
ATOM      3  C   UNL     1      44.483   6.566  12.764  0.00  0.00    +0.000 A 
ATOM      4  C   UNL     1      43.635   5.465  12.646  0.00  0.00    +0.000 A 
ATOM      5  C   UNL     1      43.748   4.637  11.544  0.00  0.00    +0.000 A 
ATOM      6  F   UNL     1      42.908   3.596  11.454  0.00  0.00    +0.000 F 
ATOM      7  C   UNL     1      44.702   4.865  10.546  0.00  0.00    +0.000 A 
ATOM      8  C   UNL     1      45.549   5.982  10.679  0.00  0.00    +0.000 A 
BRANCH   7   9
ATOM      9  C   UNL     1      44.809   3.933   9.353  0.00  0.00    +0.000 C 
ATOM     10  C   UNL     1      45.161   2.499   9.780  0.00  0.00    +0.000 C 
ATOM     11  C   UNL     1      45.409   1.616   8.565  0.00  0.00    +0.000 C 
ATOM     12  O   UNL     1      46.405   2.186   7.717  0.00  0.00    +0.000 OA
ATOM     13  C   UNL     1      46.009   3.452   7.194  0.00  0.00    +0.000 C 
ATOM     14  C   UNL     1      45.813   4.458   8.317  0.00  0.00    +0.000 C 
ENDBRANCH   7   9
ENDBRANCH   1   2
BRANCH   1  15
ATOM     15  C   UNL     1      47.021   8.041  13.035  0.00  0.00    +0.000 C 
BRANCH  15  16
ATOM     16  C   UNL     1      48.147   7.021  13.157  0.00  0.00    +0.000 C 
BRANCH  16  20
ATOM     17  C   UNL     1      47.940   4.585  16.654  0.00  0.00    +0.000 A 
ATOM     18  C   UNL     1      48.683   5.764  16.705  0.00  0.00    +0.000 A 
ATOM     19  C   UNL     1      48.754   6.576  15.575  0.00  0.00    +0.000 A 
ATOM     20  C   UNL     1      48.071   6.197  14.415  0.00  0.00    +0.000 A 
ATOM     21  N   UNL     1      47.331   5.064  14.357  0.00  0.00    +0.000 NA
ATOM     22  C   UNL     1      47.292   4.280  15.465  0.00  0.00    +0.000 A 
BRANCH  17  24
ATOM     23  N   UNL     1      46.902   2.670  17.732  0.00  0.00    +0.000 N 
ATOM     24  C   UNL     1      47.873   3.635  17.783  0.00  0.00    +0.000 C 
ATOM     25  O   UNL     1      48.654   3.697  18.714  0.00  0.00    +0.000 OA
ATOM     26  H   UNL     1      46.914   1.979  18.475  0.00  0.00    +0.000 HD
ATOM     27  H   UNL     1      46.388   2.450  16.894  0.00  0.00    +0.000 HD
ENDBRANCH  17  24
ENDBRANCH  16  20
ENDBRANCH  15  16
ENDBRANCH   1  15
TORSDOF 6
ENDMDL
MODEL 6
REMARK VINA RESULT:    -7.150      3.821      7.673
REMARK INTER + INTRA:         -10.580
REMARK INTER:                  -9.803
REMARK INTRA:                  -0.777
REMARK UNBOUND:                -0.922
REMARK  Name = 
REMARK  6 active torsions:
REMARK  status: ('A' for Active; 'I' for Inactive)
REMARK    1  A    between atoms: C_2  and  C_4
REMARK    2  A    between atoms: C_7  and  C_8
REMARK    3  A    between atoms: C_8  and  C_9
REMARK    4  A    between atoms: C_9  and  O_10
REMARK    5  A    between atoms: O_10  and  C_11
REMARK    6  A    between atoms: C_16  and  C_17
REMARK                            x       y       z     vdW  Elec       q    Type
REMARK                         _______ _______ _______ _____ _____    ______ ____
ROOT
ATOM      1  O   UNL     1      45.597   4.657  11.570  0.00  0.00    +0.000 OA
ENDROOT
BRANCH   1   2
ATOM      2  C   UNL     1      45.681   6.022  11.702  0.00  0.00    +0.000 A 
ATOM      3  C   UNL     1      44.635   6.909  11.431  0.00  0.00    +0.000 A 
ATOM      4  C   UNL     1      44.802   8.282  11.617  0.00  0.00    +0.000 A 
ATOM      5  C   UNL     1      46.016   8.762  12.073  0.00  0.00    +0.000 A 
ATOM      6  F   UNL     1      46.139  10.084  12.254  0.00  0.00    +0.000 F 
ATOM      7  C   UNL     1      47.091   7.907  12.344  0.00  0.00    +0.000 A 
ATOM      8  C   UNL     1      46.905   6.524  12.153  0.00  0.00    +0.000 A 
BRANCH   7   9
ATOM      9  C   UNL     1      48.415   8.463  12.834  0.00  0.00    +0.000 C 
ATOM     10  C   UNL     1      49.283   8.977  11.674  0.00  0.00    +0.000 C 
ATOM     11  C   UNL     1      50.661   9.393  12.169  0.00  0.00    +0.000 C 
ATOM     12  O   UNL     1      51.289   8.328  12.880  0.00  0.00    +0.000 OA
ATOM     13  C   UNL     1      50.561   7.955  14.048  0.00  0.00    +0.000 C 
ATOM     14  C   UNL     1      49.182   7.433  13.676  0.00  0.00    +0.000 C 
ENDBRANCH   7   9
ENDBRANCH   1   2
BRANCH   1  15
ATOM     15  C   UNL     1      44.257   4.154  11.629  0.00  0.00    +0.000 C 
BRANCH  15  16
ATOM     16  C   UNL     1      43.700   3.831  10.248  0.00  0.00    +0.000 C 
BRANCH  16  20
ATOM     17  C   UNL     1      46.616   2.414   7.473  0.00  0.00    +0.000 A 
ATOM     18  C   UNL     1      46.279   3.767   7.455  0.00  0.00    +0.000 A 
ATOM     19  C   UNL     1      45.335   4.248   8.360  0.00  0.00    +0.000 A 
ATOM     20  C   UNL     1      44.752   3.367   9.276  0.00  0.00    +0.000 A 
ATOM     21  N   UNL     1      45.082   2.054   9.316  0.00  0.00    +0.000 NA
ATOM     22  C   UNL     1      45.991   1.604   8.413  0.00  0.00    +0.000 A 
BRANCH  17  24
ATOM     23  N   UNL     1      48.751   2.448   6.312  0.00  0.00    +0.000 N 
ATOM     24  C   UNL     1      47.552   1.812   6.502  0.00  0.00    +0.000 C 
ATOM     25  O   UNL     1      47.279   0.788   5.906  0.00  0.00    +0.000 OA
ATOM     26  H   UNL     1      49.415   1.985   5.701  0.00  0.00    +0.000 HD
ATOM     27  H   UNL     1      49.101   3.159   6.935  0.00  0.00    +0.000 HD
ENDBRANCH  17  24
ENDBRANCH  16  20
ENDBRANCH  15  16
ENDBRANCH   1  15
TORSDOF 6
ENDMDL
MODEL 7
REMARK VINA RESULT:    -6.863      2.915      4.329
REMARK INTER + INTRA:         -10.193
REMARK INTER:                  -9.370
REMARK INTRA:                  -0.823
REMARK UNBOUND:                -0.922
REMARK  Name = 
REMARK  6 active torsions:
REMARK  status: ('A' for Active; 'I' for Inactive)
REMARK    1  A    between atoms: C_2  and  C_4
REMARK    2  A    between atoms: C_7  and  C_8
REMARK    3  A    between atoms: C_8  and  C_9
REMARK    4  A    between atoms: C_9  and  O_10
REMARK    5  A    between atoms: O_10  and  C_11
REMARK    6  A    between atoms: C_16  and  C_17
REMARK                            x       y       z     vdW  Elec       q    Type
REMARK                         _______ _______ _______ _____ _____    ______ ____
ROOT
ATOM      1  O   UNL     1      48.765   8.341  12.363  0.00  0.00    +0.000 OA
ENDROOT
BRANCH   1   2
ATOM      2  C   UNL     1      47.433   8.098  12.132  0.00  0.00    +0.000 A 
ATOM      3  C   UNL     1      46.448   9.089  12.062  0.00  0.00    +0.000 A 
ATOM      4  C   UNL     1      45.120   8.752  11.798  0.00  0.00    +0.000 A 
ATOM      5  C   UNL     1      44.782   7.425  11.606  0.00  0.00    +0.000 A 
ATOM      6  F   UNL     1      43.500   7.137  11.341  0.00  0.00    +0.000 F 
ATOM      7  C   UNL     1      45.736   6.403  11.681  0.00  0.00    +0.000 A 
ATOM      8  C   UNL     1      47.072   6.760  11.945  0.00  0.00    +0.000 A 
BRANCH   7   9
ATOM      9  C   UNL     1      45.334   4.955  11.477  0.00  0.00    +0.000 C 
ATOM     10  C   UNL     1      44.852   4.693  10.041  0.00  0.00    +0.000 C 
ATOM     11  C   UNL     1      44.316   3.276   9.897  0.00  0.00    +0.000 C 
ATOM     12  O   UNL     1      43.298   3.017  10.861  0.00  0.00    +0.000 OA
ATOM     13  C   UNL     1      43.785   3.106  12.199  0.00  0.00    +0.000 C 
ATOM     14  C   UNL     1      44.274   4.515  12.497  0.00  0.00    +0.000 C 
ENDBRANCH   7   9
ENDBRANCH   1   2
BRANCH   1  15
ATOM     15  C   UNL     1      49.441   7.265  13.023  0.00  0.00    +0.000 C 
BRANCH  15  16
ATOM     16  C   UNL     1      49.738   7.579  14.484  0.00  0.00    +0.000 C 
BRANCH  16  20
ATOM     17  C   UNL     1      48.248   4.541  17.084  0.00  0.00    +0.000 A 
ATOM     18  C   UNL     1      49.359   5.281  17.490  0.00  0.00    +0.000 A 
ATOM     19  C   UNL     1      49.853   6.283  16.657  0.00  0.00    +0.000 A 
ATOM     20  C   UNL     1      49.220   6.534  15.436  0.00  0.00    +0.000 A 
ATOM     21  N   UNL     1      48.129   5.835  15.037  0.00  0.00    +0.000 NA
ATOM     22  C   UNL     1      47.677   4.852  15.858  0.00  0.00    +0.000 A 
BRANCH  17  24
ATOM     23  N   UNL     1      48.340   3.120  19.054  0.00  0.00    +0.000 N 
ATOM     24  C   UNL     1      47.708   3.417  17.875  0.00  0.00    +0.000 C 
ATOM     25  O   UNL     1      46.733   2.790  17.505  0.00  0.00    +0.000 OA
ATOM     26  H   UNL     1      47.915   2.397  19.624  0.00  0.00    +0.000 HD
ATOM     27  H   UNL     1      48.998   3.741  19.497  0.00  0.00    +0.000 HD
ENDBRANCH  17  24
ENDBRANCH  16  20
ENDBRANCH  15  16
ENDBRANCH   1  15
TORSDOF 6
ENDMDL
MODEL 8
REMARK VINA RESULT:    -6.854      3.379      5.214
REMARK INTER + INTRA:         -10.180
REMARK INTER:                  -9.330
REMARK INTRA:                  -0.851
REMARK UNBOUND:                -0.922
REMARK  Name = 
REMARK  6 active torsions:
REMARK  status: ('A' for Active; 'I' for Inactive)
REMARK    1  A    between atoms: C_2  and  C_4
REMARK    2  A    between atoms: C_7  and  C_8
REMARK    3  A    between atoms: C_8  and  C_9
REMARK    4  A    between atoms: C_9  and  O_10
REMARK    5  A    between atoms: O_10  and  C_11
REMARK    6  A    between atoms: C_16  and  C_17
REMARK                            x       y       z     vdW  Elec       q    Type
REMARK                         _______ _______ _______ _____ _____    ______ ____
ROOT
ATOM      1  O   UNL     1      48.793   6.211  14.650  0.00  0.00    +0.000 OA
ENDROOT
BRANCH   1   2
ATOM      2  C   UNL     1      47.762   6.782  13.944  0.00  0.00    +0.000 A 
ATOM      3  C   UNL     1      47.598   8.157  13.755  0.00  0.00    +0.000 A 
ATOM      4  C   UNL     1      46.532   8.648  13.001  0.00  0.00    +0.000 A 
ATOM      5  C   UNL     1      45.633   7.760  12.438  0.00  0.00    +0.000 A 
ATOM      6  F   UNL     1      44.629   8.264  11.708  0.00  0.00    +0.000 F 
ATOM      7  C   UNL     1      45.756   6.377  12.615  0.00  0.00    +0.000 A 
ATOM      8  C   UNL     1      46.838   5.898  13.377  0.00  0.00    +0.000 A 
BRANCH   7   9
ATOM      9  C   UNL     1      44.748   5.428  11.994  0.00  0.00    +0.000 C 
ATOM     10  C   UNL     1      44.615   4.128  12.803  0.00  0.00    +0.000 C 
ATOM     11  C   UNL     1      43.714   3.132  12.087  0.00  0.00    +0.000 C 
ATOM     12  O   UNL     1      44.174   2.894  10.758  0.00  0.00    +0.000 OA
ATOM     13  C   UNL     1      44.148   4.074   9.958  0.00  0.00    +0.000 C 
ATOM     14  C   UNL     1      45.087   5.127  10.527  0.00  0.00    +0.000 C 
ENDBRANCH   7   9
ENDBRANCH   1   2
BRANCH   1  15
ATOM     15  C   UNL     1      48.921   6.710  15.987  0.00  0.00    +0.000 C 
BRANCH  15  16
ATOM     16  C   UNL     1      48.461   5.697  17.028  0.00  0.00    +0.000 C 
BRANCH  16  20
ATOM     17  C   UNL     1      51.073   2.342  17.398  0.00  0.00    +0.000 A 
ATOM     18  C   UNL     1      49.718   2.110  17.158  0.00  0.00    +0.000 A 
ATOM     19  C   UNL     1      48.853   3.195  17.026  0.00  0.00    +0.000 A 
ATOM     20  C   UNL     1      49.362   4.493  17.126  0.00  0.00    +0.000 A 
ATOM     21  N   UNL     1      50.678   4.733  17.340  0.00  0.00    +0.000 NA
ATOM     22  C   UNL     1      51.498   3.660  17.484  0.00  0.00    +0.000 A 
BRANCH  17  24
ATOM     23  N   UNL     1      51.569   0.105  18.209  0.00  0.00    +0.000 N 
ATOM     24  C   UNL     1      52.041   1.249  17.620  0.00  0.00    +0.000 C 
ATOM     25  O   UNL     1      53.205   1.352  17.283  0.00  0.00    +0.000 OA
ATOM     26  H   UNL     1      52.225  -0.665  18.288  0.00  0.00    +0.000 HD
ATOM     27  H   UNL     1      50.587  -0.103  18.300  0.00  0.00    +0.000 HD
ENDBRANCH  17  24
ENDBRANCH  16  20
ENDBRANCH  15  16
ENDBRANCH   1  15
TORSDOF 6
ENDMDL
MODEL 9
REMARK VINA RESULT:    -6.786      2.374      3.250
REMARK INTER + INTRA:         -10.088
REMARK INTER:                 -10.233
REMARK INTRA:                   0.144
REMARK UNBOUND:                -0.922
REMARK  Name = 
REMARK  6 active torsions:
REMARK  status: ('A' for Active; 'I' for Inactive)
REMARK    1  A    between atoms: C_2  and  C_4
REMARK    2  A    between atoms: C_7  and  C_8
REMARK    3  A    between atoms: C_8  and  C_9
REMARK    4  A    between atoms: C_9  and  O_10
REMARK    5  A    between atoms: O_10  and  C_11
REMARK    6  A    between atoms: C_16  and  C_17
REMARK                            x       y       z     vdW  Elec       q    Type
REMARK                         _______ _______ _______ _____ _____    ______ ____
ROOT
ATOM      1  O   UNL     1      43.322   3.305  10.881  0.00  0.00    +0.000 OA
ENDROOT
BRANCH   1   2
ATOM      2  C   UNL     1      44.290   3.731  10.003  0.00  0.00    +0.000 A 
ATOM      3  C   UNL     1      44.939   4.967  10.080  0.00  0.00    +0.000 A 
ATOM      4  C   UNL     1      45.930   5.307   9.159  0.00  0.00    +0.000 A 
ATOM      5  C   UNL     1      46.267   4.409   8.163  0.00  0.00    +0.000 A 
ATOM      6  F   UNL     1      47.232   4.761   7.302  0.00  0.00    +0.000 F 
ATOM      7  C   UNL     1      45.632   3.167   8.045  0.00  0.00    +0.000 A 
ATOM      8  C   UNL     1      44.636   2.838   8.984  0.00  0.00    +0.000 A 
BRANCH   7   9
ATOM      9  C   UNL     1      46.016   2.206   6.935  0.00  0.00    +0.000 C 
ATOM     10  C   UNL     1      46.919   1.073   7.448  0.00  0.00    +0.000 C 
ATOM     11  C   UNL     1      47.411   0.207   6.297  0.00  0.00    +0.000 C 
ATOM     12  O   UNL     1      48.056   1.001   5.304  0.00  0.00    +0.000 OA
ATOM     13  C   UNL     1      47.171   1.952   4.714  0.00  0.00    +0.000 C 
ATOM     14  C   UNL     1      46.674   2.940   5.758  0.00  0.00    +0.000 C 
ENDBRANCH   7   9
ENDBRANCH   1   2
BRANCH   1  15
ATOM     15  C   UNL     1      42.825   4.339  11.737  0.00  0.00    +0.000 C 
BRANCH  15  16
ATOM     16  C   UNL     1      43.391   4.242  13.149  0.00  0.00    +0.000 C 
BRANCH  16  20
ATOM     17  C   UNL     1      47.225   6.073  13.542  0.00  0.00    +0.000 A 
ATOM     18  C   UNL     1      46.155   6.853  13.105  0.00  0.00    +0.000 A 
ATOM     19  C   UNL     1      44.894   6.273  12.979  0.00  0.00    +0.000 A 
ATOM     20  C   UNL     1      44.725   4.924  13.304  0.00  0.00    +0.000 A 
ATOM     21  N   UNL     1      45.751   4.159  13.747  0.00  0.00    +0.000 NA
ATOM     22  C   UNL     1      46.975   4.741  13.844  0.00  0.00    +0.000 A 
BRANCH  17  24
ATOM     23  N   UNL     1      49.141   7.149  12.502  0.00  0.00    +0.000 N 
ATOM     24  C   UNL     1      48.605   6.592  13.634  0.00  0.00    +0.000 C 
ATOM     25  O   UNL     1      49.236   6.543  14.673  0.00  0.00    +0.000 OA
ATOM     26  H   UNL     1      50.059   7.569  12.598  0.00  0.00    +0.000 HD
ATOM     27  H   UNL     1      48.588   7.406  11.700  0.00  0.00    +0.000 HD
ENDBRANCH  17  24
ENDBRANCH  16  20
ENDBRANCH  15  16
ENDBRANCH   1  15
TORSDOF 6
ENDMDL
