MODEL 1
REMARK VINA RESULT:    -8.004      0.000      0.000
REMARK INTER + INTRA:         -11.035
REMARK INTER:                 -10.344
REMARK INTRA:                  -0.691
REMARK UNBOUND:                -0.691
REMARK  Name = 
REMARK  5 active torsions:
REMARK  status: ('A' for Active; 'I' for Inactive)
REMARK    1  A    between atoms: C_2  and  C_4
REMARK    2  A    between atoms: C_8  and  O_9
REMARK    3  A    between atoms: O_9  and  C_10
REMARK    4  A    between atoms: C_10  and  C_11
REMARK    5  A    between atoms: C_16  and  C_17
REMARK                            x       y       z     vdW  Elec       q    Type
REMARK                         _______ _______ _______ _____ _____    ______ ____
ROOT
ATOM      1  C   UNL     1      45.052   4.884  10.258  0.00  0.00    +0.000 A 
ATOM      2  C   UNL     1      44.177   4.100  11.015  0.00  0.00    +0.000 A 
ATOM      3  C   UNL     1      43.930   2.784  10.640  0.00  0.00    +0.000 A 
ATOM      4  F   UNL     1      43.075   2.047  11.363  0.00  0.00    +0.000 F 
ATOM      5  C   UNL     1      44.524   2.226   9.509  0.00  0.00    +0.000 A 
ATOM      6  C   UNL     1      45.390   2.993   8.725  0.00  0.00    +0.000 A 
ATOM      7  C   UNL     1      45.669   4.313   9.135  0.00  0.00    +0.000 A 
ENDROOT
BRANCH   6   8
ATOM      8  C   UNL     1      45.972   2.522   7.405  0.00  0.00    +0.000 C 
ATOM      9  C   UNL     1      46.776   3.547   6.591  0.00  0.00    +0.000 C 
ATOM     10  C   UNL     1      47.260   2.910   5.285  0.00  0.00    +0.000 C 
ATOM     11  N   UNL     1      48.068   1.710   5.519  0.00  0.00    +0.000 NA
ATOM     12  C   UNL     1      47.339   0.717   6.309  0.00  0.00    +0.000 C 
ATOM     13  C   UNL     1      46.861   1.286   7.639  0.00  0.00    +0.000 C 
ATOM     14  H   UNL     1      48.918   1.972   6.020  0.00  0.00    +0.000 HD
ENDBRANCH   6   8
BRANCH   1  15
ATOM     15  C   UNL     1      45.293   6.331  10.606  0.00  0.00    +0.000 C 
BRANCH  15  16
ATOM     16  O   UNL     1      44.934   6.575  11.967  0.00  0.00    +0.000 OA
BRANCH  16  21
ATOM     17  C   UNL     1      47.229   5.352  14.497  0.00  0.00    +0.000 A 
ATOM     18  C   UNL     1      48.187   6.365  14.479  0.00  0.00    +0.000 A 
ATOM     19  C   UNL     1      47.998   7.414  13.604  0.00  0.00    +0.000 A 
ATOM     20  N   UNL     1      46.940   7.510  12.776  0.00  0.00    +0.000 NA
ATOM     21  C   UNL     1      46.035   6.509  12.799  0.00  0.00    +0.000 A 
ATOM     22  C   UNL     1      46.137   5.407  13.629  0.00  0.00    +0.000 A 
BRANCH  17  24
ATOM     23  N   UNL     1      47.118   4.421  16.741  0.00  0.00    +0.000 N 
ATOM     24  C   UNL     1      47.357   4.197  15.414  0.00  0.00    +0.000 C 
ATOM     25  O   UNL     1      47.631   3.077  14.999  0.00  0.00    +0.000 OA
ATOM     26  H   UNL     1      47.105   3.601  17.337  0.00  0.00    +0.000 HD
ATOM     27  H   UNL     1      46.649   5.247  17.080  0.00  0.00    +0.000 HD
ENDBRANCH  17  24
ENDBRANCH  16  21
ENDBRANCH  15  16
ENDBRANCH   1  15
TORSDOF 5
ENDMDL
MODEL 2
REMARK VINA RESULT:    -7.994      2.837      6.976
REMARK INTER + INTRA:         -11.022
REMARK INTER:                 -10.450
REMARK INTRA:                  -0.572
REMARK UNBOUND:                -0.691
REMARK  Name = 
REMARK  5 active torsions:
REMARK  status: ('A' for Active; 'I' for Inactive)
REMARK    1  A    between atoms: C_2  and  C_4
REMARK    2  A    between atoms: C_8  and  O_9
REMARK    3  A    between atoms: O_9  and  C_10
REMARK    4  A    between atoms: C_10  and  C_11
REMARK    5  A    between atoms: C_16  and  C_17
REMARK                            x       y       z     vdW  Elec       q    Type
REMARK                         _______ _______ _______ _____ _____    ______ ____
ROOT
ATOM      1  C   UNL     1      44.509   4.372  12.163  0.00  0.00    +0.000 A 
ATOM      2  C   UNL     1      45.367   3.455  12.775  0.00  0.00    +0.000 A 
ATOM      3  C   UNL     1      46.470   3.913  13.488  0.00  0.00    +0.000 A 
ATOM      4  F   UNL     1      47.297   3.025  14.056  0.00  0.00    +0.000 F 
ATOM      5  C   UNL     1      46.755   5.274  13.594  0.00  0.00    +0.000 A 
ATOM      6  C   UNL     1      45.921   6.211  12.977  0.00  0.00    +0.000 A 
ATOM      7  C   UNL     1      44.781   5.743  12.291  0.00  0.00    +0.000 A 
ENDROOT
BRANCH   6   8
ATOM      8  C   UNL     1      46.223   7.698  12.917  0.00  0.00    +0.000 C 
ATOM      9  C   UNL     1      47.598   8.109  12.367  0.00  0.00    +0.000 C 
ATOM     10  C   UNL     1      47.739   9.633  12.407  0.00  0.00    +0.000 C 
ATOM     11  N   UNL     1      46.675  10.310  11.659  0.00  0.00    +0.000 NA
ATOM     12  C   UNL     1      45.349   9.926  12.146  0.00  0.00    +0.000 C 
ATOM     13  C   UNL     1      45.138   8.417  12.097  0.00  0.00    +0.000 C 
ATOM     14  H   UNL     1      46.750  10.060  10.672  0.00  0.00    +0.000 HD
ENDBRANCH   6   8
BRANCH   1  15
ATOM     15  C   UNL     1      43.339   3.903  11.334  0.00  0.00    +0.000 C 
BRANCH  15  16
ATOM     16  O   UNL     1      43.674   2.693  10.653  0.00  0.00    +0.000 OA
BRANCH  16  21
ATOM     17  C   UNL     1      46.134   2.119   8.049  0.00  0.00    +0.000 A 
ATOM     18  C   UNL     1      46.178   3.383   7.462  0.00  0.00    +0.000 A 
ATOM     19  C   UNL     1      45.367   4.366   7.987  0.00  0.00    +0.000 A 
ATOM     20  N   UNL     1      44.543   4.168   9.034  0.00  0.00    +0.000 NA
ATOM     21  C   UNL     1      44.505   2.933   9.575  0.00  0.00    +0.000 A 
ATOM     22  C   UNL     1      45.268   1.875   9.116  0.00  0.00    +0.000 A 
BRANCH  17  24
ATOM     23  N   UNL     1      48.065   1.351   6.785  0.00  0.00    +0.000 N 
ATOM     24  C   UNL     1      46.982   1.013   7.547  0.00  0.00    +0.000 C 
ATOM     25  O   UNL     1      46.744  -0.154   7.831  0.00  0.00    +0.000 OA
ATOM     26  H   UNL     1      48.692   0.592   6.540  0.00  0.00    +0.000 HD
ATOM     27  H   UNL     1      48.434   2.288   6.745  0.00  0.00    +0.000 HD
ENDBRANCH  17  24
ENDBRANCH  16  21
ENDBRANCH  15  16
ENDBRANCH   1  15
TORSDOF 5
ENDMDL
MODEL 3
REMARK VINA RESULT:    -7.481      1.609      2.640
REMARK INTER + INTRA:         -10.359
REMARK INTER:                  -9.495
REMARK INTRA:                  -0.863
REMARK UNBOUND:                -0.691
REMARK  Name = 
REMARK  5 active torsions:
REMARK  status: ('A' for Active; 'I' for Inactive)
REMARK    1  A    between atoms: C_2  and  C_4
REMARK    2  A    between atoms: C_8  and  O_9
REMARK    3  A    between atoms: O_9  and  C_10
REMARK    4  A    between atoms: C_10  and  C_11
REMARK    5  A    between atoms: C_16  and  C_17
REMARK                            x       y       z     vdW  Elec       q    Type
REMARK                         _______ _______ _______ _____ _____    ______ ____
ROOT
ATOM      1  C   UNL     1      44.938   4.934  10.198  0.00  0.00    +0.000 A 
ATOM      2  C   UNL     1      44.116   4.128  10.989  0.00  0.00    +0.000 A 
ATOM      3  C   UNL     1      43.938   2.789  10.658  0.00  0.00    +0.000 A 
ATOM      4  F   UNL     1      43.133   2.030  11.413  0.00  0.00    +0.000 F 
ATOM      5  C   UNL     1      44.549   2.230   9.537  0.00  0.00    +0.000 A 
ATOM      6  C   UNL     1      45.364   3.019   8.719  0.00  0.00    +0.000 A 
ATOM      7  C   UNL     1      45.574   4.364   9.085  0.00  0.00    +0.000 A 
ENDROOT
BRANCH   6   8
ATOM      8  C   UNL     1      45.956   2.539   7.407  0.00  0.00    +0.000 C 
ATOM      9  C   UNL     1      46.767   3.560   6.593  0.00  0.00    +0.000 C 
ATOM     10  C   UNL     1      47.262   2.915   5.295  0.00  0.00    +0.000 C 
ATOM     11  N   UNL     1      48.067   1.715   5.542  0.00  0.00    +0.000 NA
ATOM     12  C   UNL     1      47.331   0.727   6.332  0.00  0.00    +0.000 C 
ATOM     13  C   UNL     1      46.842   1.304   7.655  0.00  0.00    +0.000 C 
ATOM     14  H   UNL     1      48.913   1.979   6.049  0.00  0.00    +0.000 HD
ENDBRANCH   6   8
BRANCH   1  15
ATOM     15  C   UNL     1      45.103   6.403  10.499  0.00  0.00    +0.000 C 
BRANCH  15  16
ATOM     16  O   UNL     1      45.037   6.625  11.908  0.00  0.00    +0.000 OA
BRANCH  16  21
ATOM     17  C   UNL     1      48.552   7.386  12.383  0.00  0.00    +0.000 A 
ATOM     18  C   UNL     1      48.805   6.686  13.561  0.00  0.00    +0.000 A 
ATOM     19  C   UNL     1      47.761   5.988  14.132  0.00  0.00    +0.000 A 
ATOM     20  N   UNL     1      46.521   5.947  13.608  0.00  0.00    +0.000 NA
ATOM     21  C   UNL     1      46.296   6.647  12.477  0.00  0.00    +0.000 A 
ATOM     22  C   UNL     1      47.270   7.389  11.832  0.00  0.00    +0.000 A 
BRANCH  17  24
ATOM     23  N   UNL     1      50.783   7.489  11.418  0.00  0.00    +0.000 N 
ATOM     24  C   UNL     1      49.623   8.153  11.706  0.00  0.00    +0.000 C 
ATOM     25  O   UNL     1      49.466   9.324  11.383  0.00  0.00    +0.000 OA
ATOM     26  H   UNL     1      51.462   7.996  10.862  0.00  0.00    +0.000 HD
ATOM     27  H   UNL     1      50.855   6.483  11.432  0.00  0.00    +0.000 HD
ENDBRANCH  17  24
ENDBRANCH  16  21
ENDBRANCH  15  16
ENDBRANCH   1  15
TORSDOF 5
ENDMDL
MODEL 4
REMARK VINA RESULT:    -7.341      2.927      7.261
REMARK INTER + INTRA:         -10.177
REMARK INTER:                  -9.406
REMARK INTRA:                  -0.771
REMARK UNBOUND:                -0.691
REMARK  Name = 
REMARK  5 active torsions:
REMARK  status: ('A' for Active; 'I' for Inactive)
REMARK    1  A    between atoms: C_2  and  C_4
REMARK    2  A    between atoms: C_8  and  O_9
REMARK    3  A    between atoms: O_9  and  C_10
REMARK    4  A    between atoms: C_10  and  C_11
REMARK    5  A    between atoms: C_16  and  C_17
REMARK                            x       y       z     vdW  Elec       q    Type
REMARK                         _______ _______ _______ _____ _____    ______ ____
ROOT
ATOM      1  C   UNL     1      45.563   5.434  11.910  0.00  0.00    +0.000 A 
ATOM      2  C   UNL     1      45.715   4.626  13.040  0.00  0.00    +0.000 A 
ATOM      3  C   UNL     1      46.780   4.847  13.907  0.00  0.00    +0.000 A 
ATOM      4  F   UNL     1      46.928   4.055  14.977  0.00  0.00    +0.000 F 
ATOM      5  C   UNL     1      47.717   5.851  13.667  0.00  0.00    +0.000 A 
ATOM      6  C   UNL     1      47.597   6.663  12.535  0.00  0.00    +0.000 A 
ATOM      7  C   UNL     1      46.492   6.461  11.683  0.00  0.00    +0.000 A 
ENDROOT
BRANCH   6   8
ATOM      8  C   UNL     1      48.639   7.684  12.116  0.00  0.00    +0.000 C 
ATOM      9  C   UNL     1      48.155   9.126  11.899  0.00  0.00    +0.000 C 
ATOM     10  C   UNL     1      49.326  10.007  11.455  0.00  0.00    +0.000 C 
ATOM     11  N   UNL     1      50.432   9.987  12.418  0.00  0.00    +0.000 NA
ATOM     12  C   UNL     1      50.907   8.625  12.663  0.00  0.00    +0.000 C 
ATOM     13  C   UNL     1      49.787   7.708  13.142  0.00  0.00    +0.000 C 
ATOM     14  H   UNL     1      50.113  10.390  13.300  0.00  0.00    +0.000 HD
ENDBRANCH   6   8
BRANCH   1  15
ATOM     15  C   UNL     1      44.453   5.180  10.921  0.00  0.00    +0.000 C 
BRANCH  15  16
ATOM     16  O   UNL     1      44.949   5.291   9.587  0.00  0.00    +0.000 OA
BRANCH  16  21
ATOM     17  C   UNL     1      46.382   2.780   7.394  0.00  0.00    +0.000 A 
ATOM     18  C   UNL     1      45.875   1.619   7.975  0.00  0.00    +0.000 A 
ATOM     19  C   UNL     1      45.068   1.754   9.086  0.00  0.00    +0.000 A 
ATOM     20  N   UNL     1      44.745   2.943   9.629  0.00  0.00    +0.000 NA
ATOM     21  C   UNL     1      45.262   4.052   9.059  0.00  0.00    +0.000 A 
ATOM     22  C   UNL     1      46.091   4.026   7.952  0.00  0.00    +0.000 A 
BRANCH  17  24
ATOM     23  N   UNL     1      48.600   2.675   6.400  0.00  0.00    +0.000 N 
ATOM     24  C   UNL     1      47.249   2.718   6.195  0.00  0.00    +0.000 C 
ATOM     25  O   UNL     1      46.777   2.672   5.066  0.00  0.00    +0.000 OA
ATOM     26  H   UNL     1      49.172   2.526   5.576  0.00  0.00    +0.000 HD
ATOM     27  H   UNL     1      49.010   2.454   7.294  0.00  0.00    +0.000 HD
ENDBRANCH  17  24
ENDBRANCH  16  21
ENDBRANCH  15  16
ENDBRANCH   1  15
TORSDOF 5
ENDMDL
MODEL 5
REMARK VINA RESULT:    -7.312      2.900      7.785
REMARK INTER + INTRA:         -10.140
REMARK INTER:                  -9.317
REMARK INTRA:                  -0.823
REMARK UNBOUND:                -0.691
REMARK  Name = 
REMARK  5 active torsions:
REMARK  status: ('A' for Active; 'I' for Inactive)
REMARK    1  A    between atoms: C_2  and  C_4
REMARK    2  A    between atoms: C_8  and  O_9
REMARK    3  A    between atoms: O_9  and  C_10
REMARK    4  A    between atoms: C_10  and  C_11
REMARK    5  A    between atoms: C_16  and  C_17
REMARK                            x       y       z     vdW  Elec       q    Type
REMARK                         _______ _______ _______ _____ _____    ______ ____
ROOT
ATOM      1  C   UNL     1      45.849   5.694  12.066  0.00  0.00    +0.000 A 
ATOM      2  C   UNL     1      46.763   6.620  11.555  0.00  0.00    +0.000 A 
ATOM      3  C   UNL     1      47.903   6.937  12.285  0.00  0.00    +0.000 A 
ATOM      4  F   UNL     1      48.763   7.841  11.795  0.00  0.00    +0.000 F 
ATOM      5  C   UNL     1      48.153   6.365  13.531  0.00  0.00    +0.000 A 
ATOM      6  C   UNL     1      47.247   5.447  14.072  0.00  0.00    +0.000 A 
ATOM      7  C   UNL     1      46.114   5.098  13.308  0.00  0.00    +0.000 A 
ENDROOT
BRANCH   6   8
ATOM      8  C   UNL     1      47.359   4.879  15.475  0.00  0.00    +0.000 C 
ATOM      9  C   UNL     1      47.661   3.378  15.597  0.00  0.00    +0.000 C 
ATOM     10  C   UNL     1      47.711   2.976  17.075  0.00  0.00    +0.000 C 
ATOM     11  N   UNL     1      48.700   3.752  17.828  0.00  0.00    +0.000 NA
ATOM     12  C   UNL     1      48.453   5.190  17.718  0.00  0.00    +0.000 C 
ATOM     13  C   UNL     1      48.427   5.655  16.267  0.00  0.00    +0.000 C 
ATOM     14  H   UNL     1      49.632   3.548  17.464  0.00  0.00    +0.000 HD
ENDBRANCH   6   8
BRANCH   1  15
ATOM     15  C   UNL     1      44.575   5.374  11.324  0.00  0.00    +0.000 C 
BRANCH  15  16
ATOM     16  O   UNL     1      44.799   5.435   9.915  0.00  0.00    +0.000 OA
BRANCH  16  21
ATOM     17  C   UNL     1      46.291   2.864   7.835  0.00  0.00    +0.000 A 
ATOM     18  C   UNL     1      45.632   1.735   8.318  0.00  0.00    +0.000 A 
ATOM     19  C   UNL     1      44.710   1.911   9.329  0.00  0.00    +0.000 A 
ATOM     20  N   UNL     1      44.415   3.110   9.864  0.00  0.00    +0.000 NA
ATOM     21  C   UNL     1      45.078   4.186   9.392  0.00  0.00    +0.000 A 
ATOM     22  C   UNL     1      46.030   4.117   8.390  0.00  0.00    +0.000 A 
BRANCH  17  24
ATOM     23  N   UNL     1      47.110   3.560   5.652  0.00  0.00    +0.000 N 
ATOM     24  C   UNL     1      47.289   2.758   6.745  0.00  0.00    +0.000 C 
ATOM     25  O   UNL     1      48.254   2.010   6.832  0.00  0.00    +0.000 OA
ATOM     26  H   UNL     1      47.856   3.552   4.966  0.00  0.00    +0.000 HD
ATOM     27  H   UNL     1      46.490   4.355   5.653  0.00  0.00    +0.000 HD
ENDBRANCH  17  24
ENDBRANCH  16  21
ENDBRANCH  15  16
ENDBRANCH   1  15
TORSDOF 5
ENDMDL
MODEL 6
REMARK VINA RESULT:    -7.284      1.961      2.707
REMARK INTER + INTRA:         -10.105
REMARK INTER:                  -9.435
REMARK INTRA:                  -0.670
REMARK UNBOUND:                -0.691
REMARK  Name = 
REMARK  5 active torsions:
REMARK  status: ('A' for Active; 'I' for Inactive)
REMARK    1  A    between atoms: C_2  and  C_4
REMARK    2  A    between atoms: C_8  and  O_9
REMARK    3  A    between atoms: O_9  and  C_10
REMARK    4  A    between atoms: C_10  and  C_11
REMARK    5  A    between atoms: C_16  and  C_17
REMARK                            x       y       z     vdW  Elec       q    Type
REMARK                         _______ _______ _______ _____ _____    ______ ____
ROOT
ATOM      1  C   UNL     1      45.351   5.673  12.240  0.00  0.00    +0.000 A 
ATOM      2  C   UNL     1      44.022   6.029  12.484  0.00  0.00    +0.000 A 
ATOM      3  C   UNL     1      43.020   5.578  11.631  0.00  0.00    +0.000 A 
ATOM      4  F   UNL     1      41.751   5.941  11.864  0.00  0.00    +0.000 F 
ATOM      5  C   UNL     1      43.310   4.786  10.522  0.00  0.00    +0.000 A 
ATOM      6  C   UNL     1      44.633   4.428  10.246  0.00  0.00    +0.000 A 
ATOM      7  C   UNL     1      45.640   4.854  11.138  0.00  0.00    +0.000 A 
ENDROOT
BRANCH   6   8
ATOM      8  C   UNL     1      45.063   3.691   8.991  0.00  0.00    +0.000 C 
ATOM      9  C   UNL     1      46.108   4.380   8.100  0.00  0.00    +0.000 C 
ATOM     10  C   UNL     1      46.399   3.511   6.873  0.00  0.00    +0.000 C 
ATOM     11  N   UNL     1      46.858   2.168   7.239  0.00  0.00    +0.000 NA
ATOM     12  C   UNL     1      45.894   1.488   8.105  0.00  0.00    +0.000 C 
ATOM     13  C   UNL     1      45.591   2.293   9.363  0.00  0.00    +0.000 C 
ATOM     14  H   UNL     1      47.750   2.243   7.732  0.00  0.00    +0.000 HD
ENDBRANCH   6   8
BRANCH   1  15
ATOM     15  C   UNL     1      46.465   6.196  13.112  0.00  0.00    +0.000 C 
BRANCH  15  16
ATOM     16  O   UNL     1      47.395   5.151  13.400  0.00  0.00    +0.000 OA
BRANCH  16  21
ATOM     17  C   UNL     1      47.941   4.339  16.893  0.00  0.00    +0.000 A 
ATOM     18  C   UNL     1      48.767   5.396  17.271  0.00  0.00    +0.000 A 
ATOM     19  C   UNL     1      49.093   6.334  16.313  0.00  0.00    +0.000 A 
ATOM     20  N   UNL     1      48.653   6.279  15.042  0.00  0.00    +0.000 NA
ATOM     21  C   UNL     1      47.869   5.237  14.695  0.00  0.00    +0.000 A 
ATOM     22  C   UNL     1      47.494   4.238  15.575  0.00  0.00    +0.000 A 
BRANCH  17  24
ATOM     23  N   UNL     1      48.279   3.192  19.012  0.00  0.00    +0.000 N 
ATOM     24  C   UNL     1      47.540   3.298  17.867  0.00  0.00    +0.000 C 
ATOM     25  O   UNL     1      46.564   2.583  17.673  0.00  0.00    +0.000 OA
ATOM     26  H   UNL     1      47.928   2.548  19.712  0.00  0.00    +0.000 HD
ATOM     27  H   UNL     1      48.914   3.912  19.321  0.00  0.00    +0.000 HD
ENDBRANCH  17  24
ENDBRANCH  16  21
ENDBRANCH  15  16
ENDBRANCH   1  15
TORSDOF 5
ENDMDL
MODEL 7
REMARK VINA RESULT:    -7.276      2.764      7.032
REMARK INTER + INTRA:         -10.094
REMARK INTER:                  -9.728
REMARK INTRA:                  -0.366
REMARK UNBOUND:                -0.691
REMARK  Name = 
REMARK  5 active torsions:
REMARK  status: ('A' for Active; 'I' for Inactive)
REMARK    1  A    between atoms: C_2  and  C_4
REMARK    2  A    between atoms: C_8  and  O_9
REMARK    3  A    between atoms: O_9  and  C_10
REMARK    4  A    between atoms: C_10  and  C_11
REMARK    5  A    between atoms: C_16  and  C_17
REMARK                            x       y       z     vdW  Elec       q    Type
REMARK                         _______ _______ _______ _____ _____    ______ ____
ROOT
ATOM      1  C   UNL     1      44.796   5.143  11.561  0.00  0.00    +0.000 A 
ATOM      2  C   UNL     1      43.802   6.062  11.218  0.00  0.00    +0.000 A 
ATOM      3  C   UNL     1      44.032   7.423  11.390  0.00  0.00    +0.000 A 
ATOM      4  F   UNL     1      43.064   8.295  11.074  0.00  0.00    +0.000 F 
ATOM      5  C   UNL     1      45.232   7.897  11.917  0.00  0.00    +0.000 A 
ATOM      6  C   UNL     1      46.237   6.998  12.284  0.00  0.00    +0.000 A 
ATOM      7  C   UNL     1      46.014   5.622  12.068  0.00  0.00    +0.000 A 
ENDROOT
BRANCH   6   8
ATOM      8  C   UNL     1      47.515   7.406  12.993  0.00  0.00    +0.000 C 
ATOM      9  C   UNL     1      47.999   6.501  14.137  0.00  0.00    +0.000 C 
ATOM     10  C   UNL     1      49.278   7.077  14.750  0.00  0.00    +0.000 C 
ATOM     11  N   UNL     1      50.344   7.247  13.758  0.00  0.00    +0.000 NA
ATOM     12  C   UNL     1      49.910   8.090  12.644  0.00  0.00    +0.000 C 
ATOM     13  C   UNL     1      48.657   7.545  11.969  0.00  0.00    +0.000 C 
ATOM     14  H   UNL     1      50.611   6.330  13.395  0.00  0.00    +0.000 HD
ENDBRANCH   6   8
BRANCH   1  15
ATOM     15  C   UNL     1      44.554   3.659  11.441  0.00  0.00    +0.000 C 
BRANCH  15  16
ATOM     16  O   UNL     1      43.975   3.358  10.171  0.00  0.00    +0.000 OA
BRANCH  16  21
ATOM     17  C   UNL     1      46.401   2.114   7.777  0.00  0.00    +0.000 A 
ATOM     18  C   UNL     1      46.834   3.312   7.212  0.00  0.00    +0.000 A 
ATOM     19  C   UNL     1      46.277   4.484   7.679  0.00  0.00    +0.000 A 
ATOM     20  N   UNL     1      45.345   4.527   8.649  0.00  0.00    +0.000 NA
ATOM     21  C   UNL     1      44.928   3.353   9.169  0.00  0.00    +0.000 A 
ATOM     22  C   UNL     1      45.413   2.123   8.763  0.00  0.00    +0.000 A 
BRANCH  17  24
ATOM     23  N   UNL     1      47.770   0.823   6.235  0.00  0.00    +0.000 N 
ATOM     24  C   UNL     1      46.958   0.815   7.334  0.00  0.00    +0.000 C 
ATOM     25  O   UNL     1      46.730  -0.221   7.947  0.00  0.00    +0.000 OA
ATOM     26  H   UNL     1      48.226  -0.054   6.010  0.00  0.00    +0.000 HD
ATOM     27  H   UNL     1      48.181   1.667   5.866  0.00  0.00    +0.000 HD
ENDBRANCH  17  24
ENDBRANCH  16  21
ENDBRANCH  15  16
ENDBRANCH   1  15
TORSDOF 5
ENDMDL
MODEL 8
REMARK VINA RESULT:    -7.122      2.721      4.436
REMARK INTER + INTRA:          -9.895
REMARK INTER:                  -9.277
REMARK INTRA:                  -0.618
REMARK UNBOUND:                -0.691
REMARK  Name = 
REMARK  5 active torsions:
REMARK  status: ('A' for Active; 'I' for Inactive)
REMARK    1  A    between atoms: C_2  and  C_4
REMARK    2  A    between atoms: C_8  and  O_9
REMARK    3  A    between atoms: O_9  and  C_10
REMARK    4  A    between atoms: C_10  and  C_11
REMARK    5  A    between atoms: C_16  and  C_17
REMARK                            x       y       z     vdW  Elec       q    Type
REMARK                         _______ _______ _______ _____ _____    ______ ____
ROOT
ATOM      1  C   UNL     1      46.324   6.014  13.152  0.00  0.00    +0.000 A 
ATOM      2  C   UNL     1      45.960   7.361  13.067  0.00  0.00    +0.000 A 
ATOM      3  C   UNL     1      45.190   7.800  11.995  0.00  0.00    +0.000 A 
ATOM      4  F   UNL     1      44.861   9.097  11.914  0.00  0.00    +0.000 F 
ATOM      5  C   UNL     1      44.783   6.929  10.986  0.00  0.00    +0.000 A 
ATOM      6  C   UNL     1      45.147   5.580  11.039  0.00  0.00    +0.000 A 
ATOM      7  C   UNL     1      45.892   5.133  12.150  0.00  0.00    +0.000 A 
ENDROOT
BRANCH   6   8
ATOM      8  C   UNL     1      44.873   4.588   9.924  0.00  0.00    +0.000 C 
ATOM      9  C   UNL     1      45.793   4.648   8.695  0.00  0.00    +0.000 C 
ATOM     10  C   UNL     1      45.355   3.602   7.665  0.00  0.00    +0.000 C 
ATOM     11  N   UNL     1      45.345   2.246   8.221  0.00  0.00    +0.000 NA
ATOM     12  C   UNL     1      44.491   2.157   9.406  0.00  0.00    +0.000 C 
ATOM     13  C   UNL     1      44.903   3.154  10.483  0.00  0.00    +0.000 C 
ATOM     14  H   UNL     1      46.297   1.984   8.480  0.00  0.00    +0.000 HD
ENDBRANCH   6   8
BRANCH   1  15
ATOM     15  C   UNL     1      47.207   5.521  14.271  0.00  0.00    +0.000 C 
BRANCH  15  16
ATOM     16  O   UNL     1      46.592   4.413  14.929  0.00  0.00    +0.000 OA
BRANCH  16  21
ATOM     17  C   UNL     1      48.502   3.901  17.972  0.00  0.00    +0.000 A 
ATOM     18  C   UNL     1      49.159   2.712  17.659  0.00  0.00    +0.000 A 
ATOM     19  C   UNL     1      48.917   2.147  16.425  0.00  0.00    +0.000 A 
ATOM     20  N   UNL     1      48.087   2.687  15.512  0.00  0.00    +0.000 NA
ATOM     21  C   UNL     1      47.449   3.828  15.843  0.00  0.00    +0.000 A 
ATOM     22  C   UNL     1      47.612   4.468  17.058  0.00  0.00    +0.000 A 
BRANCH  17  24
ATOM     23  N   UNL     1      48.471   3.842  20.403  0.00  0.00    +0.000 N 
ATOM     24  C   UNL     1      48.716   4.573  19.274  0.00  0.00    +0.000 C 
ATOM     25  O   UNL     1      49.128   5.725  19.340  0.00  0.00    +0.000 OA
ATOM     26  H   UNL     1      48.723   4.281  21.282  0.00  0.00    +0.000 HD
ATOM     27  H   UNL     1      48.382   2.838  20.396  0.00  0.00    +0.000 HD
ENDBRANCH  17  24
ENDBRANCH  16  21
ENDBRANCH  15  16
ENDBRANCH   1  15
TORSDOF 5
ENDMDL
MODEL 9
REMARK VINA RESULT:    -7.062      3.166      4.701
REMARK INTER + INTRA:          -9.817
REMARK INTER:                  -9.036
REMARK INTRA:                  -0.781
REMARK UNBOUND:                -0.691
REMARK  Name = 
REMARK  5 active torsions:
REMARK  status: ('A' for Active; 'I' for Inactive)
REMARK    1  A    between atoms: C_2  and  C_4
REMARK    2  A    between atoms: C_8  and  O_9
REMARK    3  A    between atoms: O_9  and  C_10
REMARK    4  A    between atoms: C_10  and  C_11
REMARK    5  A    between atoms: C_16  and  C_17
REMARK                            x       y       z     vdW  Elec       q    Type
REMARK                         _______ _______ _______ _____ _____    ______ ____
ROOT
ATOM      1  C   UNL     1      47.253   7.116  13.018  0.00  0.00    +0.000 A 
ATOM      2  C   UNL     1      46.675   8.385  13.104  0.00  0.00    +0.000 A 
ATOM      3  C   UNL     1      45.457   8.631  12.481  0.00  0.00    +0.000 A 
ATOM      4  F   UNL     1      44.920   9.857  12.553  0.00  0.00    +0.000 F 
ATOM      5  C   UNL     1      44.799   7.641  11.752  0.00  0.00    +0.000 A 
ATOM      6  C   UNL     1      45.363   6.368  11.637  0.00  0.00    +0.000 A 
ATOM      7  C   UNL     1      46.578   6.113  12.307  0.00  0.00    +0.000 A 
ENDROOT
BRANCH   6   8
ATOM      8  C   UNL     1      44.796   5.271  10.754  0.00  0.00    +0.000 C 
ATOM      9  C   UNL     1      45.497   5.025   9.409  0.00  0.00    +0.000 C 
ATOM     10  C   UNL     1      44.778   3.910   8.644  0.00  0.00    +0.000 C 
ATOM     11  N   UNL     1      44.711   2.664   9.412  0.00  0.00    +0.000 NA
ATOM     12  C   UNL     1      44.064   2.865  10.709  0.00  0.00    +0.000 C 
ATOM     13  C   UNL     1      44.760   3.942  11.532  0.00  0.00    +0.000 C 
ATOM     14  H   UNL     1      45.658   2.315   9.565  0.00  0.00    +0.000 HD
ENDBRANCH   6   8
BRANCH   1  15
ATOM     15  C   UNL     1      48.602   6.836  13.634  0.00  0.00    +0.000 C 
BRANCH  15  16
ATOM     16  O   UNL     1      48.639   7.325  14.975  0.00  0.00    +0.000 OA
BRANCH  16  21
ATOM     17  C   UNL     1      48.688   4.488  17.236  0.00  0.00    +0.000 A 
ATOM     18  C   UNL     1      50.032   4.480  17.601  0.00  0.00    +0.000 A 
ATOM     19  C   UNL     1      50.854   5.446  17.058  0.00  0.00    +0.000 A 
ATOM     20  N   UNL     1      50.422   6.391  16.202  0.00  0.00    +0.000 NA
ATOM     21  C   UNL     1      49.120   6.368  15.849  0.00  0.00    +0.000 A 
ATOM     22  C   UNL     1      48.216   5.436  16.326  0.00  0.00    +0.000 A 
BRANCH  17  24
ATOM     23  N   UNL     1      48.107   2.843  18.931  0.00  0.00    +0.000 N 
ATOM     24  C   UNL     1      47.741   3.489  17.783  0.00  0.00    +0.000 C 
ATOM     25  O   UNL     1      46.659   3.273  17.251  0.00  0.00    +0.000 OA
ATOM     26  H   UNL     1      47.405   2.242  19.348  0.00  0.00    +0.000 HD
ATOM     27  H   UNL     1      48.852   3.168  19.527  0.00  0.00    +0.000 HD
ENDBRANCH  17  24
ENDBRANCH  16  21
ENDBRANCH  15  16
ENDBRANCH   1  15
TORSDOF 5
ENDMDL
