MODEL 1
REMARK VINA RESULT:    -7.202      0.000      0.000
REMARK INTER + INTRA:          -9.159
REMARK INTER:                  -8.676
REMARK INTRA:                  -0.483
REMARK UNBOUND:                -0.483
REMARK  Name = 
REMARK  4 active torsions:
REMARK  status: ('A' for Active; 'I' for Inactive)
REMARK    1  A    between atoms: O_1  and  C_2
REMARK    2  A    between atoms: C_5  and  C_6
REMARK    3  A    between atoms: C_6  and  C_7
REMARK    4  A    between atoms: C_11  and  C_12
REMARK                            x       y       z     vdW  Elec       q    Type
REMARK                         _______ _______ _______ _____ _____    ______ ____
ROOT
ATOM      1  C   UNL     1      45.465   4.955  12.075  0.00  0.00    +0.000 A 
ATOM      2  C   UNL     1      45.831   4.269  13.242  0.00  0.00    +0.000 A 
ATOM      3  C   UNL     1      46.871   4.725  14.050  0.00  0.00    +0.000 A 
ATOM      4  C   UNL     1      47.570   5.883  13.701  0.00  0.00    +0.000 A 
ATOM      5  C   UNL     1      47.219   6.627  12.561  0.00  0.00    +0.000 A 
ATOM      6  C   UNL     1      46.136   6.161  11.794  0.00  0.00    +0.000 A 
ENDROOT
BRANCH   5   7
ATOM      7  C   UNL     1      48.016   7.785  12.113  0.00  0.00    +0.000 A 
ATOM      8  C   UNL     1      47.468   9.076  12.091  0.00  0.00    +0.000 A 
ATOM      9  C   UNL     1      48.268  10.151  11.735  0.00  0.00    +0.000 A 
ATOM     10  N   UNL     1      49.568  10.042  11.401  0.00  0.00    +0.000 NA
ATOM     11  C   UNL     1      50.087   8.798  11.418  0.00  0.00    +0.000 A 
ATOM     12  C   UNL     1      49.363   7.660  11.751  0.00  0.00    +0.000 A 
ENDBRANCH   5   7
BRANCH   1  13
ATOM     13  C   UNL     1      44.490   4.337  11.071  0.00  0.00    +0.000 C 
ATOM     14  C   UNL     1      43.193   3.730  11.614  0.00  0.00    +0.000 C 
ATOM     15  C   UNL     1      43.146   5.063  10.951  0.00  0.00    +0.000 C 
BRANCH  13  19
ATOM     16  C   UNL     1      46.266   2.631   7.549  0.00  0.00    +0.000 A 
ATOM     17  C   UNL     1      46.233   4.009   7.670  0.00  0.00    +0.000 A 
ATOM     18  C   UNL     1      45.625   4.569   8.796  0.00  0.00    +0.000 A 
ATOM     19  C   UNL     1      45.073   3.743   9.786  0.00  0.00    +0.000 A 
ATOM     20  N   UNL     1      45.102   2.391   9.652  0.00  0.00    +0.000 NA
ATOM     21  C   UNL     1      45.691   1.869   8.549  0.00  0.00    +0.000 A 
BRANCH  16  22
ATOM     22  O   UNL     1      46.853   2.013   6.488  0.00  0.00    +0.000 OA
ATOM     23  H   UNL     1      46.438   1.144   6.360  0.00  0.00    +0.000 HD
ENDBRANCH  16  22
ENDBRANCH  13  19
ENDBRANCH   1  13
TORSDOF 4
ENDMDL
MODEL 2
REMARK VINA RESULT:    -6.955      1.275      1.595
REMARK INTER + INTRA:          -8.861
REMARK INTER:                  -8.364
REMARK INTRA:                  -0.497
REMARK UNBOUND:                -0.483
REMARK  Name = 
REMARK  4 active torsions:
REMARK  status: ('A' for Active; 'I' for Inactive)
REMARK    1  A    between atoms: O_1  and  C_2
REMARK    2  A    between atoms: C_5  and  C_6
REMARK    3  A    between atoms: C_6  and  C_7
REMARK    4  A    between atoms: C_11  and  C_12
REMARK                            x       y       z     vdW  Elec       q    Type
REMARK                         _______ _______ _______ _____ _____    ______ ____
ROOT
ATOM      1  C   UNL     1      45.296   4.988  12.199  0.00  0.00    +0.000 A 
ATOM      2  C   UNL     1      46.233   4.474  13.108  0.00  0.00    +0.000 A 
ATOM      3  C   UNL     1      47.149   5.307  13.747  0.00  0.00    +0.000 A 
ATOM      4  C   UNL     1      47.145   6.679  13.487  0.00  0.00    +0.000 A 
ATOM      5  C   UNL     1      46.203   7.250  12.613  0.00  0.00    +0.000 A 
ATOM      6  C   UNL     1      45.267   6.385  12.019  0.00  0.00    +0.000 A 
ENDROOT
BRANCH   5   7
ATOM      7  C   UNL     1      46.256   8.675  12.237  0.00  0.00    +0.000 A 
ATOM      8  C   UNL     1      45.081   9.412  12.026  0.00  0.00    +0.000 A 
ATOM      9  C   UNL     1      45.167  10.768  11.746  0.00  0.00    +0.000 A 
ATOM     10  N   UNL     1      46.328  11.445  11.662  0.00  0.00    +0.000 NA
ATOM     11  C   UNL     1      47.452  10.730  11.860  0.00  0.00    +0.000 A 
ATOM     12  C   UNL     1      47.468   9.368  12.134  0.00  0.00    +0.000 A 
ENDBRANCH   5   7
BRANCH   1  13
ATOM     13  C   UNL     1      44.452   4.058  11.326  0.00  0.00    +0.000 C 
ATOM     14  C   UNL     1      43.517   3.069  12.030  0.00  0.00    +0.000 C 
ATOM     15  C   UNL     1      42.940   4.295  11.410  0.00  0.00    +0.000 C 
BRANCH  13  19
ATOM     16  C   UNL     1      46.178   2.896   7.566  0.00  0.00    +0.000 A 
ATOM     17  C   UNL     1      46.075   4.245   7.856  0.00  0.00    +0.000 A 
ATOM     18  C   UNL     1      45.483   4.628   9.062  0.00  0.00    +0.000 A 
ATOM     19  C   UNL     1      45.015   3.659   9.959  0.00  0.00    +0.000 A 
ATOM     20  N   UNL     1      45.111   2.336   9.659  0.00  0.00    +0.000 NA
ATOM     21  C   UNL     1      45.683   1.987   8.482  0.00  0.00    +0.000 A 
BRANCH  16  22
ATOM     22  O   UNL     1      46.755   2.446   6.418  0.00  0.00    +0.000 OA
ATOM     23  H   UNL     1      47.056   1.533   6.554  0.00  0.00    +0.000 HD
ENDBRANCH  16  22
ENDBRANCH  13  19
ENDBRANCH   1  13
TORSDOF 4
ENDMDL
MODEL 3
REMARK VINA RESULT:    -6.909      2.291      3.511
REMARK INTER + INTRA:          -8.806
REMARK INTER:                  -8.354
REMARK INTRA:                  -0.451
REMARK UNBOUND:                -0.483
REMARK  Name = 
REMARK  4 active torsions:
REMARK  status: ('A' for Active; 'I' for Inactive)
REMARK    1  A    between atoms: O_1  and  C_2
REMARK    2  A    between atoms: C_5  and  C_6
REMARK    3  A    between atoms: C_6  and  C_7
REMARK    4  A    between atoms: C_11  and  C_12
REMARK                            x       y       z     vdW  Elec       q    Type
REMARK                         _______ _______ _______ _____ _____    ______ ____
ROOT
ATOM      1  C   UNL     1      45.571   5.260  11.660  0.00  0.00    +0.000 A 
ATOM      2  C   UNL     1      45.586   6.620  11.317  0.00  0.00    +0.000 A 
ATOM      3  C   UNL     1      46.238   7.558  12.116  0.00  0.00    +0.000 A 
ATOM      4  C   UNL     1      46.890   7.149  13.281  0.00  0.00    +0.000 A 
ATOM      5  C   UNL     1      46.935   5.794  13.651  0.00  0.00    +0.000 A 
ATOM      6  C   UNL     1      46.304   4.870  12.798  0.00  0.00    +0.000 A 
ENDROOT
BRANCH   5   7
ATOM      7  C   UNL     1      47.518   5.357  14.934  0.00  0.00    +0.000 A 
ATOM      8  C   UNL     1      47.201   4.107  15.484  0.00  0.00    +0.000 A 
ATOM      9  C   UNL     1      47.824   3.698  16.655  0.00  0.00    +0.000 A 
ATOM     10  N   UNL     1      48.736   4.436  17.317  0.00  0.00    +0.000 NA
ATOM     11  C   UNL     1      49.032   5.638  16.785  0.00  0.00    +0.000 A 
ATOM     12  C   UNL     1      48.453   6.138  15.625  0.00  0.00    +0.000 A 
ENDBRANCH   5   7
BRANCH   1  13
ATOM     13  C   UNL     1      44.668   4.271  10.921  0.00  0.00    +0.000 C 
ATOM     14  C   UNL     1      43.664   3.462  11.751  0.00  0.00    +0.000 C 
ATOM     15  C   UNL     1      43.176   4.620  10.948  0.00  0.00    +0.000 C 
BRANCH  13  19
ATOM     16  C   UNL     1      46.326   2.456   7.396  0.00  0.00    +0.000 A 
ATOM     17  C   UNL     1      46.275   3.837   7.466  0.00  0.00    +0.000 A 
ATOM     18  C   UNL     1      45.705   4.431   8.595  0.00  0.00    +0.000 A 
ATOM     19  C   UNL     1      45.207   3.636   9.637  0.00  0.00    +0.000 A 
ATOM     20  N   UNL     1      45.252   2.280   9.553  0.00  0.00    +0.000 NA
ATOM     21  C   UNL     1      45.803   1.725   8.447  0.00  0.00    +0.000 A 
BRANCH  16  22
ATOM     22  O   UNL     1      46.878   1.806   6.336  0.00  0.00    +0.000 OA
ATOM     23  H   UNL     1      47.316   0.999   6.654  0.00  0.00    +0.000 HD
ENDBRANCH  16  22
ENDBRANCH  13  19
ENDBRANCH   1  13
TORSDOF 4
ENDMDL
MODEL 4
REMARK VINA RESULT:    -6.133      4.554      7.518
REMARK INTER + INTRA:          -7.872
REMARK INTER:                  -7.392
REMARK INTRA:                  -0.480
REMARK UNBOUND:                -0.483
REMARK  Name = 
REMARK  4 active torsions:
REMARK  status: ('A' for Active; 'I' for Inactive)
REMARK    1  A    between atoms: O_1  and  C_2
REMARK    2  A    between atoms: C_5  and  C_6
REMARK    3  A    between atoms: C_6  and  C_7
REMARK    4  A    between atoms: C_11  and  C_12
REMARK                            x       y       z     vdW  Elec       q    Type
REMARK                         _______ _______ _______ _____ _____    ______ ____
ROOT
ATOM      1  C   UNL     1      48.881   6.305  15.719  0.00  0.00    +0.000 A 
ATOM      2  C   UNL     1      49.752   7.227  15.119  0.00  0.00    +0.000 A 
ATOM      3  C   UNL     1      49.597   7.603  13.786  0.00  0.00    +0.000 A 
ATOM      4  C   UNL     1      48.562   7.058  13.023  0.00  0.00    +0.000 A 
ATOM      5  C   UNL     1      47.640   6.158  13.586  0.00  0.00    +0.000 A 
ATOM      6  C   UNL     1      47.802   5.835  14.946  0.00  0.00    +0.000 A 
ENDROOT
BRANCH   5   7
ATOM      7  C   UNL     1      46.612   5.485  12.769  0.00  0.00    +0.000 A 
ATOM      8  C   UNL     1      46.173   6.040  11.559  0.00  0.00    +0.000 A 
ATOM      9  C   UNL     1      45.259   5.344  10.781  0.00  0.00    +0.000 A 
ATOM     10  N   UNL     1      44.753   4.141  11.113  0.00  0.00    +0.000 NA
ATOM     11  C   UNL     1      45.176   3.616  12.280  0.00  0.00    +0.000 A 
ATOM     12  C   UNL     1      46.078   4.243  13.131  0.00  0.00    +0.000 A 
ENDBRANCH   5   7
BRANCH   1  13
ATOM     13  C   UNL     1      49.184   5.717  17.098  0.00  0.00    +0.000 C 
ATOM     14  C   UNL     1      49.445   6.693  18.250  0.00  0.00    +0.000 C 
ATOM     15  C   UNL     1      48.125   6.006  18.166  0.00  0.00    +0.000 C 
BRANCH  13  19
ATOM     16  C   UNL     1      51.016   1.841  17.399  0.00  0.00    +0.000 A 
ATOM     17  C   UNL     1      51.754   2.950  17.769  0.00  0.00    +0.000 A 
ATOM     18  C   UNL     1      51.176   4.215  17.640  0.00  0.00    +0.000 A 
ATOM     19  C   UNL     1      49.867   4.348  17.154  0.00  0.00    +0.000 A 
ATOM     20  N   UNL     1      49.154   3.252  16.783  0.00  0.00    +0.000 NA
ATOM     21  C   UNL     1      49.736   2.036  16.911  0.00  0.00    +0.000 A 
BRANCH  16  22
ATOM     22  O   UNL     1      51.506   0.577  17.510  0.00  0.00    +0.000 OA
ATOM     23  H   UNL     1      52.430   0.622  17.806  0.00  0.00    +0.000 HD
ENDBRANCH  16  22
ENDBRANCH  13  19
ENDBRANCH   1  13
TORSDOF 4
ENDMDL
MODEL 5
REMARK VINA RESULT:    -6.114      3.003      6.713
REMARK INTER + INTRA:          -7.849
REMARK INTER:                  -7.605
REMARK INTRA:                  -0.244
REMARK UNBOUND:                -0.483
REMARK  Name = 
REMARK  4 active torsions:
REMARK  status: ('A' for Active; 'I' for Inactive)
REMARK    1  A    between atoms: O_1  and  C_2
REMARK    2  A    between atoms: C_5  and  C_6
REMARK    3  A    between atoms: C_6  and  C_7
REMARK    4  A    between atoms: C_11  and  C_12
REMARK                            x       y       z     vdW  Elec       q    Type
REMARK                         _______ _______ _______ _____ _____    ______ ____
ROOT
ATOM      1  C   UNL     1      45.386   5.666  11.874  0.00  0.00    +0.000 A 
ATOM      2  C   UNL     1      43.996   5.802  12.007  0.00  0.00    +0.000 A 
ATOM      3  C   UNL     1      43.122   5.141  11.147  0.00  0.00    +0.000 A 
ATOM      4  C   UNL     1      43.625   4.329  10.129  0.00  0.00    +0.000 A 
ATOM      5  C   UNL     1      45.009   4.131   9.974  0.00  0.00    +0.000 A 
ATOM      6  C   UNL     1      45.859   4.779  10.888  0.00  0.00    +0.000 A 
ENDROOT
BRANCH   5   7
ATOM      7  C   UNL     1      45.563   3.371   8.838  0.00  0.00    +0.000 A 
ATOM      8  C   UNL     1      46.036   4.026   7.691  0.00  0.00    +0.000 A 
ATOM      9  C   UNL     1      46.618   3.286   6.673  0.00  0.00    +0.000 A 
ATOM     10  N   UNL     1      46.768   1.947   6.709  0.00  0.00    +0.000 NA
ATOM     11  C   UNL     1      46.307   1.324   7.811  0.00  0.00    +0.000 A 
ATOM     12  C   UNL     1      45.699   1.978   8.876  0.00  0.00    +0.000 A 
ENDBRANCH   5   7
BRANCH   1  13
ATOM     13  C   UNL     1      46.344   6.565  12.658  0.00  0.00    +0.000 C 
ATOM     14  C   UNL     1      47.141   7.615  11.876  0.00  0.00    +0.000 C 
ATOM     15  C   UNL     1      45.961   8.049  12.678  0.00  0.00    +0.000 C 
BRANCH  13  19
ATOM     16  C   UNL     1      48.243   4.914  16.142  0.00  0.00    +0.000 A 
ATOM     17  C   UNL     1      47.201   4.212  15.563  0.00  0.00    +0.000 A 
ATOM     18  C   UNL     1      46.557   4.761  14.451  0.00  0.00    +0.000 A 
ATOM     19  C   UNL     1      46.973   5.995  13.932  0.00  0.00    +0.000 A 
ATOM     20  N   UNL     1      47.991   6.682  14.516  0.00  0.00    +0.000 NA
ATOM     21  C   UNL     1      48.597   6.134  15.596  0.00  0.00    +0.000 A 
BRANCH  16  22
ATOM     22  O   UNL     1      48.926   4.436  17.218  0.00  0.00    +0.000 OA
ATOM     23  H   UNL     1      49.419   3.643  16.951  0.00  0.00    +0.000 HD
ENDBRANCH  16  22
ENDBRANCH  13  19
ENDBRANCH   1  13
TORSDOF 4
ENDMDL
MODEL 6
REMARK VINA RESULT:    -6.107      2.519      3.242
REMARK INTER + INTRA:          -7.840
REMARK INTER:                  -7.564
REMARK INTRA:                  -0.275
REMARK UNBOUND:                -0.483
REMARK  Name = 
REMARK  4 active torsions:
REMARK  status: ('A' for Active; 'I' for Inactive)
REMARK    1  A    between atoms: O_1  and  C_2
REMARK    2  A    between atoms: C_5  and  C_6
REMARK    3  A    between atoms: C_6  and  C_7
REMARK    4  A    between atoms: C_11  and  C_12
REMARK                            x       y       z     vdW  Elec       q    Type
REMARK                         _______ _______ _______ _____ _____    ______ ____
ROOT
ATOM      1  C   UNL     1      44.836   6.341  12.113  0.00  0.00    +0.000 A 
ATOM      2  C   UNL     1      45.993   6.225  12.898  0.00  0.00    +0.000 A 
ATOM      3  C   UNL     1      46.774   7.339  13.199  0.00  0.00    +0.000 A 
ATOM      4  C   UNL     1      46.410   8.597  12.716  0.00  0.00    +0.000 A 
ATOM      5  C   UNL     1      45.241   8.774  11.955  0.00  0.00    +0.000 A 
ATOM      6  C   UNL     1      44.454   7.635  11.708  0.00  0.00    +0.000 A 
ENDROOT
BRANCH   5   7
ATOM      7  C   UNL     1      44.902  10.071  11.340  0.00  0.00    +0.000 A 
ATOM      8  C   UNL     1      45.595  11.240  11.688  0.00  0.00    +0.000 A 
ATOM      9  C   UNL     1      45.299  12.428  11.037  0.00  0.00    +0.000 A 
ATOM     10  N   UNL     1      44.371  12.542  10.067  0.00  0.00    +0.000 NA
ATOM     11  C   UNL     1      43.706  11.417   9.742  0.00  0.00    +0.000 A 
ATOM     12  C   UNL     1      43.923  10.184  10.346  0.00  0.00    +0.000 A 
ENDBRANCH   5   7
BRANCH   1  13
ATOM     13  C   UNL     1      44.112   5.100  11.588  0.00  0.00    +0.000 C 
ATOM     14  C   UNL     1      43.324   4.253  12.594  0.00  0.00    +0.000 C 
ATOM     15  C   UNL     1      42.583   5.163  11.675  0.00  0.00    +0.000 C 
BRANCH  13  19
ATOM     16  C   UNL     1      45.659   3.179   8.069  0.00  0.00    +0.000 A 
ATOM     17  C   UNL     1      44.906   2.427   8.954  0.00  0.00    +0.000 A 
ATOM     18  C   UNL     1      44.431   3.039  10.117  0.00  0.00    +0.000 A 
ATOM     19  C   UNL     1      44.706   4.390  10.369  0.00  0.00    +0.000 A 
ATOM     20  N   UNL     1      45.456   5.116   9.497  0.00  0.00    +0.000 NA
ATOM     21  C   UNL     1      45.912   4.502   8.379  0.00  0.00    +0.000 A 
BRANCH  16  22
ATOM     22  O   UNL     1      46.144   2.657   6.909  0.00  0.00    +0.000 OA
ATOM     23  H   UNL     1      46.712   3.317   6.480  0.00  0.00    +0.000 HD
ENDBRANCH  16  22
ENDBRANCH  13  19
ENDBRANCH   1  13
TORSDOF 4
ENDMDL
MODEL 7
REMARK VINA RESULT:    -6.057      5.101      7.779
REMARK INTER + INTRA:          -7.780
REMARK INTER:                  -7.312
REMARK INTRA:                  -0.468
REMARK UNBOUND:                -0.483
REMARK  Name = 
REMARK  4 active torsions:
REMARK  status: ('A' for Active; 'I' for Inactive)
REMARK    1  A    between atoms: O_1  and  C_2
REMARK    2  A    between atoms: C_5  and  C_6
REMARK    3  A    between atoms: C_6  and  C_7
REMARK    4  A    between atoms: C_11  and  C_12
REMARK                            x       y       z     vdW  Elec       q    Type
REMARK                         _______ _______ _______ _____ _____    ______ ____
ROOT
ATOM      1  C   UNL     1      44.501   9.572  11.265  0.00  0.00    +0.000 A 
ATOM      2  C   UNL     1      45.476   9.883  12.225  0.00  0.00    +0.000 A 
ATOM      3  C   UNL     1      46.097   8.883  12.971  0.00  0.00    +0.000 A 
ATOM      4  C   UNL     1      45.751   7.546  12.771  0.00  0.00    +0.000 A 
ATOM      5  C   UNL     1      44.806   7.178  11.796  0.00  0.00    +0.000 A 
ATOM      6  C   UNL     1      44.232   8.209  11.032  0.00  0.00    +0.000 A 
ENDROOT
BRANCH   5   7
ATOM      7  C   UNL     1      44.344   5.784  11.649  0.00  0.00    +0.000 A 
ATOM      8  C   UNL     1      43.671   5.131  12.692  0.00  0.00    +0.000 A 
ATOM      9  C   UNL     1      43.185   3.847  12.492  0.00  0.00    +0.000 A 
ATOM     10  N   UNL     1      43.316   3.166  11.338  0.00  0.00    +0.000 NA
ATOM     11  C   UNL     1      43.968   3.798  10.342  0.00  0.00    +0.000 A 
ATOM     12  C   UNL     1      44.499   5.077  10.451  0.00  0.00    +0.000 A 
ENDBRANCH   5   7
BRANCH   1  13
ATOM     13  C   UNL     1      43.655  10.670  10.616  0.00  0.00    +0.000 C 
ATOM     14  C   UNL     1      44.387  11.875  10.016  0.00  0.00    +0.000 C 
ATOM     15  C   UNL     1      43.853  10.823   9.104  0.00  0.00    +0.000 C 
BRANCH  13  19
ATOM     16  C   UNL     1      39.721  11.196  12.263  0.00  0.00    +0.000 A 
ATOM     17  C   UNL     1      39.891  10.282  11.238  0.00  0.00    +0.000 A 
ATOM     18  C   UNL     1      41.161  10.132  10.676  0.00  0.00    +0.000 A 
ATOM     19  C   UNL     1      42.239  10.890  11.154  0.00  0.00    +0.000 A 
ATOM     20  N   UNL     1      42.058  11.793  12.154  0.00  0.00    +0.000 NA
ATOM     21  C   UNL     1      40.818  11.926  12.681  0.00  0.00    +0.000 A 
BRANCH  16  22
ATOM     22  O   UNL     1      38.517  11.385  12.868  0.00  0.00    +0.000 OA
ATOM     23  H   UNL     1      37.952  10.615  12.695  0.00  0.00    +0.000 HD
ENDBRANCH  16  22
ENDBRANCH  13  19
ENDBRANCH   1  13
TORSDOF 4
ENDMDL
MODEL 8
REMARK VINA RESULT:    -5.959      3.726      5.599
REMARK INTER + INTRA:          -7.662
REMARK INTER:                  -7.256
REMARK INTRA:                  -0.406
REMARK UNBOUND:                -0.483
REMARK  Name = 
REMARK  4 active torsions:
REMARK  status: ('A' for Active; 'I' for Inactive)
REMARK    1  A    between atoms: O_1  and  C_2
REMARK    2  A    between atoms: C_5  and  C_6
REMARK    3  A    between atoms: C_6  and  C_7
REMARK    4  A    between atoms: C_11  and  C_12
REMARK                            x       y       z     vdW  Elec       q    Type
REMARK                         _______ _______ _______ _____ _____    ______ ____
ROOT
ATOM      1  C   UNL     1      46.687   8.574  12.320  0.00  0.00    +0.000 A 
ATOM      2  C   UNL     1      47.787   9.428  12.147  0.00  0.00    +0.000 A 
ATOM      3  C   UNL     1      47.620  10.737  11.700  0.00  0.00    +0.000 A 
ATOM      4  C   UNL     1      46.341  11.219  11.414  0.00  0.00    +0.000 A 
ATOM      5  C   UNL     1      45.202  10.417  11.605  0.00  0.00    +0.000 A 
ATOM      6  C   UNL     1      45.405   9.115  12.099  0.00  0.00    +0.000 A 
ENDROOT
BRANCH   5   7
ATOM      7  C   UNL     1      43.857  10.867  11.201  0.00  0.00    +0.000 A 
ATOM      8  C   UNL     1      42.895   9.955  10.746  0.00  0.00    +0.000 A 
ATOM      9  C   UNL     1      41.617  10.403  10.444  0.00  0.00    +0.000 A 
ATOM     10  N   UNL     1      41.224  11.686  10.563  0.00  0.00    +0.000 NA
ATOM     11  C   UNL     1      42.155  12.558  10.997  0.00  0.00    +0.000 A 
ATOM     12  C   UNL     1      43.462  12.206  11.312  0.00  0.00    +0.000 A 
ENDBRANCH   5   7
BRANCH   1  13
ATOM     13  C   UNL     1      46.882   7.080  12.582  0.00  0.00    +0.000 C 
ATOM     14  C   UNL     1      48.310   6.525  12.528  0.00  0.00    +0.000 C 
ATOM     15  C   UNL     1      47.669   6.749  13.855  0.00  0.00    +0.000 C 
BRANCH  13  19
ATOM     16  C   UNL     1      43.751   4.301  11.614  0.00  0.00    +0.000 A 
ATOM     17  C   UNL     1      44.604   4.712  10.605  0.00  0.00    +0.000 A 
ATOM     18  C   UNL     1      45.601   5.642  10.907  0.00  0.00    +0.000 A 
ATOM     19  C   UNL     1      45.736   6.136  12.213  0.00  0.00    +0.000 A 
ATOM     20  N   UNL     1      44.886   5.733  13.194  0.00  0.00    +0.000 NA
ATOM     21  C   UNL     1      43.922   4.835  12.878  0.00  0.00    +0.000 A 
BRANCH  16  22
ATOM     22  O   UNL     1      42.765   3.388  11.399  0.00  0.00    +0.000 OA
ATOM     23  H   UNL     1      42.822   3.073  10.481  0.00  0.00    +0.000 HD
ENDBRANCH  16  22
ENDBRANCH  13  19
ENDBRANCH   1  13
TORSDOF 4
ENDMDL
MODEL 9
REMARK VINA RESULT:    -5.929      3.660      7.416
REMARK INTER + INTRA:          -7.626
REMARK INTER:                  -7.244
REMARK INTRA:                  -0.381
REMARK UNBOUND:                -0.483
REMARK  Name = 
REMARK  4 active torsions:
REMARK  status: ('A' for Active; 'I' for Inactive)
REMARK    1  A    between atoms: O_1  and  C_2
REMARK    2  A    between atoms: C_5  and  C_6
REMARK    3  A    between atoms: C_6  and  C_7
REMARK    4  A    between atoms: C_11  and  C_12
REMARK                            x       y       z     vdW  Elec       q    Type
REMARK                         _______ _______ _______ _____ _____    ______ ____
ROOT
ATOM      1  C   UNL     1      47.061   7.494  12.606  0.00  0.00    +0.000 A 
ATOM      2  C   UNL     1      46.136   8.547  12.649  0.00  0.00    +0.000 A 
ATOM      3  C   UNL     1      44.905   8.451  12.004  0.00  0.00    +0.000 A 
ATOM      4  C   UNL     1      44.575   7.292  11.299  0.00  0.00    +0.000 A 
ATOM      5  C   UNL     1      45.451   6.194  11.255  0.00  0.00    +0.000 A 
ATOM      6  C   UNL     1      46.666   6.310  11.954  0.00  0.00    +0.000 A 
ENDROOT
BRANCH   5   7
ATOM      7  C   UNL     1      45.171   5.008  10.423  0.00  0.00    +0.000 A 
ATOM      8  C   UNL     1      45.631   4.928   9.100  0.00  0.00    +0.000 A 
ATOM      9  C   UNL     1      45.413   3.769   8.371  0.00  0.00    +0.000 A 
ATOM     10  N   UNL     1      44.776   2.686   8.856  0.00  0.00    +0.000 NA
ATOM     11  C   UNL     1      44.332   2.772  10.125  0.00  0.00    +0.000 A 
ATOM     12  C   UNL     1      44.493   3.893  10.929  0.00  0.00    +0.000 A 
ENDBRANCH   5   7
BRANCH   1  13
ATOM     13  C   UNL     1      48.494   7.682  13.108  0.00  0.00    +0.000 C 
ATOM     14  C   UNL     1      49.639   7.272  12.175  0.00  0.00    +0.000 C 
ATOM     15  C   UNL     1      49.315   8.719  12.333  0.00  0.00    +0.000 C 
BRANCH  13  19
ATOM     16  C   UNL     1      49.034   7.350  17.359  0.00  0.00    +0.000 A 
ATOM     17  C   UNL     1      48.585   8.553  16.843  0.00  0.00    +0.000 A 
ATOM     18  C   UNL     1      48.442   8.677  15.458  0.00  0.00    +0.000 A 
ATOM     19  C   UNL     1      48.738   7.595  14.617  0.00  0.00    +0.000 A 
ATOM     20  N   UNL     1      49.188   6.422  15.135  0.00  0.00    +0.000 NA
ATOM     21  C   UNL     1      49.326   6.325  16.478  0.00  0.00    +0.000 A 
BRANCH  16  22
ATOM     22  O   UNL     1      49.185   7.150  18.696  0.00  0.00    +0.000 OA
ATOM     23  H   UNL     1      49.469   6.233  18.848  0.00  0.00    +0.000 HD
ENDBRANCH  16  22
ENDBRANCH  13  19
ENDBRANCH   1  13
TORSDOF 4
ENDMDL
