MODEL 1
REMARK VINA RESULT:    -7.757      0.000      0.000
REMARK INTER + INTRA:         -13.030
REMARK INTER:                 -11.838
REMARK INTRA:                  -1.192
REMARK UNBOUND:                -1.192
REMARK  Name = 
REMARK  9 active torsions:
REMARK  status: ('A' for Active; 'I' for Inactive)
REMARK    1  A    between atoms: C_2  and  C_3
REMARK    2  A    between atoms: C_3  and  C_4
REMARK    3  A    between atoms: C_4  and  N_5
REMARK    4  A    between atoms: C_4  and  C_13
REMARK    5  A    between atoms: N_5  and  C_6
REMARK    6  A    between atoms: C_6  and  C_7
REMARK    7  A    between atoms: C_16  and  C_17
REMARK    8  A    between atoms: C_17  and  N_18
REMARK    9  A    between atoms: C_19  and  C_21
REMARK                            x       y       z     vdW  Elec       q    Type
REMARK                         _______ _______ _______ _____ _____    ______ ____
ROOT
ATOM      1  C   UNL     1      45.568   5.857  11.287  0.00  0.00    +0.000 A 
ATOM      2  C   UNL     1      44.945   7.112  11.339  0.00  0.00    +0.000 A 
ATOM      3  C   UNL     1      45.457   8.146  12.129  0.00  0.00    +0.000 A 
ATOM      4  C   UNL     1      46.644   7.979  12.844  0.00  0.00    +0.000 A 
ATOM      5  C   UNL     1      47.253   6.724  12.842  0.00  0.00    +0.000 A 
ATOM      6  C   UNL     1      46.692   5.671  12.117  0.00  0.00    +0.000 A 
ENDROOT
BRANCH   1   7
ATOM      7  C   UNL     1      45.064   4.713  10.385  0.00  0.00    +0.000 C 
BRANCH   7   8
ATOM      8  N   UNL     1      45.164   5.028   8.938  0.00  0.00    +0.000 NA
ATOM      9  H   UNL     1      46.074   5.447   8.751  0.00  0.00    +0.000 HD
BRANCH   8  10
ATOM     10  C   UNL     1      44.959   3.878   8.066  0.00  0.00    +0.000 C 
BRANCH  10  11
ATOM     11  C   UNL     1      46.224   3.085   7.732  0.00  0.00    +0.000 C 
ATOM     12  C   UNL     1      46.470   3.225   6.218  0.00  0.00    +0.000 C 
ATOM     13  C   UNL     1      47.575   2.300   5.746  0.00  0.00    +0.000 C 
ATOM     14  O   UNL     1      47.287   0.951   6.107  0.00  0.00    +0.000 OA
ATOM     15  C   UNL     1      47.208   0.779   7.520  0.00  0.00    +0.000 C 
ATOM     16  C   UNL     1      46.071   1.602   8.098  0.00  0.00    +0.000 C 
ENDBRANCH  10  11
ENDBRANCH   8  10
ENDBRANCH   7   8
BRANCH   7  17
ATOM     17  C   UNL     1      43.587   4.346  10.671  0.00  0.00    +0.000 C 
BRANCH  17  19
ATOM     18  N   UNL     1      43.382   2.510  12.535  0.00  0.00    +0.000 NA
ATOM     19  C   UNL     1      43.442   3.331  11.724  0.00  0.00    +0.000 C 
ENDBRANCH  17  19
ENDBRANCH   7  17
ENDBRANCH   1   7
BRANCH   4  20
ATOM     20  C   UNL     1      47.222   9.105  13.646  0.00  0.00    +0.000 C 
BRANCH  20  21
ATOM     21  N   UNL     1      47.375   8.727  15.026  0.00  0.00    +0.000 N 
ATOM     22  C   UNL     1      48.604   8.380  15.519  0.00  0.00    +0.000 C 
ATOM     23  O   UNL     1      49.625   8.466  14.842  0.00  0.00    +0.000 OA
ATOM     24  H   UNL     1      46.535   8.458  15.529  0.00  0.00    +0.000 HD
BRANCH  22  25
ATOM     25  C   UNL     1      48.648   7.937  16.915  0.00  0.00    +0.000 A 
ATOM     26  C   UNL     1      48.753   8.878  17.929  0.00  0.00    +0.000 A 
ATOM     27  S   UNL     1      48.819   8.194  19.489  0.00  0.00    +0.000 S 
ATOM     28  C   UNL     1      48.739   6.615  18.860  0.00  0.00    +0.000 A 
ATOM     29  N   UNL     1      48.795   5.531  19.681  0.00  0.00    +0.000 NA
ATOM     30  C   UNL     1      48.742   4.397  19.068  0.00  0.00    +0.000 A 
ATOM     31  N   UNL     1      48.623   4.246  17.712  0.00  0.00    +0.000 N 
ATOM     32  C   UNL     1      48.537   5.307  16.848  0.00  0.00    +0.000 A 
ATOM     33  O   UNL     1      48.376   5.138  15.641  0.00  0.00    +0.000 OA
ATOM     34  C   UNL     1      48.624   6.611  17.480  0.00  0.00    +0.000 A 
ATOM     35  H   UNL     1      48.564   3.326  17.297  0.00  0.00    +0.000 HD
ENDBRANCH  22  25
ENDBRANCH  20  21
ENDBRANCH   4  20
TORSDOF 9
ENDMDL
MODEL 2
REMARK VINA RESULT:    -7.711      2.177      2.550
REMARK INTER + INTRA:         -12.959
REMARK INTER:                 -11.551
REMARK INTRA:                  -1.408
REMARK UNBOUND:                -1.192
REMARK  Name = 
REMARK  9 active torsions:
REMARK  status: ('A' for Active; 'I' for Inactive)
REMARK    1  A    between atoms: C_2  and  C_3
REMARK    2  A    between atoms: C_3  and  C_4
REMARK    3  A    between atoms: C_4  and  N_5
REMARK    4  A    between atoms: C_4  and  C_13
REMARK    5  A    between atoms: N_5  and  C_6
REMARK    6  A    between atoms: C_6  and  C_7
REMARK    7  A    between atoms: C_16  and  C_17
REMARK    8  A    between atoms: C_17  and  N_18
REMARK    9  A    between atoms: C_19  and  C_21
REMARK                            x       y       z     vdW  Elec       q    Type
REMARK                         _______ _______ _______ _____ _____    ______ ____
ROOT
ATOM      1  C   UNL     1      45.787   4.926  11.765  0.00  0.00    +0.000 A 
ATOM      2  C   UNL     1      46.076   6.286  11.588  0.00  0.00    +0.000 A 
ATOM      3  C   UNL     1      46.787   7.011  12.549  0.00  0.00    +0.000 A 
ATOM      4  C   UNL     1      47.288   6.384  13.691  0.00  0.00    +0.000 A 
ATOM      5  C   UNL     1      46.973   5.043  13.909  0.00  0.00    +0.000 A 
ATOM      6  C   UNL     1      46.192   4.345  12.985  0.00  0.00    +0.000 A 
ENDROOT
BRANCH   1   7
ATOM      7  C   UNL     1      45.054   4.083  10.703  0.00  0.00    +0.000 C 
BRANCH   7   8
ATOM      8  N   UNL     1      44.905   4.787   9.406  0.00  0.00    +0.000 NA
ATOM      9  H   UNL     1      45.684   5.436   9.288  0.00  0.00    +0.000 HD
BRANCH   8  10
ATOM     10  C   UNL     1      44.822   3.898   8.254  0.00  0.00    +0.000 C 
BRANCH  10  11
ATOM     11  C   UNL     1      46.078   3.068   7.986  0.00  0.00    +0.000 C 
ATOM     12  C   UNL     1      46.511   3.342   6.532  0.00  0.00    +0.000 C 
ATOM     13  C   UNL     1      47.619   2.403   6.095  0.00  0.00    +0.000 C 
ATOM     14  O   UNL     1      47.225   1.045   6.277  0.00  0.00    +0.000 OA
ATOM     15  C   UNL     1      46.968   0.739   7.645  0.00  0.00    +0.000 C 
ATOM     16  C   UNL     1      45.811   1.568   8.173  0.00  0.00    +0.000 C 
ENDBRANCH  10  11
ENDBRANCH   8  10
ENDBRANCH   7   8
BRANCH   7  17
ATOM     17  C   UNL     1      43.636   3.664  11.161  0.00  0.00    +0.000 C 
BRANCH  17  19
ATOM     18  N   UNL     1      42.171   5.739  11.821  0.00  0.00    +0.000 NA
ATOM     19  C   UNL     1      42.799   4.807  11.554  0.00  0.00    +0.000 C 
ENDBRANCH  17  19
ENDBRANCH   7  17
ENDBRANCH   1   7
BRANCH   4  20
ATOM     20  C   UNL     1      48.099   7.148  14.694  0.00  0.00    +0.000 C 
BRANCH  20  21
ATOM     21  N   UNL     1      49.079   6.298  15.316  0.00  0.00    +0.000 N 
ATOM     22  C   UNL     1      49.186   6.244  16.679  0.00  0.00    +0.000 C 
ATOM     23  O   UNL     1      48.403   6.835  17.417  0.00  0.00    +0.000 OA
ATOM     24  H   UNL     1      49.847   5.974  14.736  0.00  0.00    +0.000 HD
BRANCH  22  25
ATOM     25  C   UNL     1      50.262   5.408  17.219  0.00  0.00    +0.000 A 
ATOM     26  C   UNL     1      51.360   6.009  17.818  0.00  0.00    +0.000 A 
ATOM     27  S   UNL     1      52.530   4.896  18.368  0.00  0.00    +0.000 S 
ATOM     28  C   UNL     1      51.619   3.575  17.799  0.00  0.00    +0.000 A 
ATOM     29  N   UNL     1      52.086   2.302  17.918  0.00  0.00    +0.000 NA
ATOM     30  C   UNL     1      51.302   1.402  17.428  0.00  0.00    +0.000 A 
ATOM     31  N   UNL     1      50.088   1.655  16.844  0.00  0.00    +0.000 N 
ATOM     32  C   UNL     1      49.566   2.917  16.726  0.00  0.00    +0.000 A 
ATOM     33  O   UNL     1      48.451   3.106  16.246  0.00  0.00    +0.000 OA
ATOM     34  C   UNL     1      50.422   3.976  17.232  0.00  0.00    +0.000 A 
ATOM     35  H   UNL     1      49.512   0.899  16.500  0.00  0.00    +0.000 HD
ENDBRANCH  22  25
ENDBRANCH  20  21
ENDBRANCH   4  20
TORSDOF 9
ENDMDL
MODEL 3
REMARK VINA RESULT:    -7.697      1.691      2.251
REMARK INTER + INTRA:         -12.938
REMARK INTER:                 -11.552
REMARK INTRA:                  -1.385
REMARK UNBOUND:                -1.192
REMARK  Name = 
REMARK  9 active torsions:
REMARK  status: ('A' for Active; 'I' for Inactive)
REMARK    1  A    between atoms: C_2  and  C_3
REMARK    2  A    between atoms: C_3  and  C_4
REMARK    3  A    between atoms: C_4  and  N_5
REMARK    4  A    between atoms: C_4  and  C_13
REMARK    5  A    between atoms: N_5  and  C_6
REMARK    6  A    between atoms: C_6  and  C_7
REMARK    7  A    between atoms: C_16  and  C_17
REMARK    8  A    between atoms: C_17  and  N_18
REMARK    9  A    between atoms: C_19  and  C_21
REMARK                            x       y       z     vdW  Elec       q    Type
REMARK                         _______ _______ _______ _____ _____    ______ ____
ROOT
ATOM      1  C   UNL     1      45.687   5.007  11.545  0.00  0.00    +0.000 A 
ATOM      2  C   UNL     1      46.052   6.310  11.177  0.00  0.00    +0.000 A 
ATOM      3  C   UNL     1      46.809   7.121  12.028  0.00  0.00    +0.000 A 
ATOM      4  C   UNL     1      47.280   6.634  13.248  0.00  0.00    +0.000 A 
ATOM      5  C   UNL     1      46.890   5.358  13.653  0.00  0.00    +0.000 A 
ATOM      6  C   UNL     1      46.065   4.582  12.835  0.00  0.00    +0.000 A 
ENDROOT
BRANCH   1   7
ATOM      7  C   UNL     1      44.901   4.066  10.611  0.00  0.00    +0.000 C 
BRANCH   7   8
ATOM      8  N   UNL     1      44.696   4.633   9.255  0.00  0.00    +0.000 NA
ATOM      9  H   UNL     1      45.428   5.318   9.067  0.00  0.00    +0.000 HD
BRANCH   8  10
ATOM     10  C   UNL     1      44.665   3.636   8.193  0.00  0.00    +0.000 C 
BRANCH  10  11
ATOM     11  C   UNL     1      46.012   2.983   7.879  0.00  0.00    +0.000 C 
ATOM     12  C   UNL     1      46.325   3.263   6.396  0.00  0.00    +0.000 C 
ATOM     13  C   UNL     1      47.533   2.476   5.925  0.00  0.00    +0.000 C 
ATOM     14  O   UNL     1      47.349   1.083   6.167  0.00  0.00    +0.000 OA
ATOM     15  C   UNL     1      47.210   0.794   7.556  0.00  0.00    +0.000 C 
ATOM     16  C   UNL     1      45.974   1.468   8.124  0.00  0.00    +0.000 C 
ENDBRANCH  10  11
ENDBRANCH   8  10
ENDBRANCH   7   8
BRANCH   7  17
ATOM     17  C   UNL     1      43.503   3.712  11.174  0.00  0.00    +0.000 C 
BRANCH  17  19
ATOM     18  N   UNL     1      42.141   5.862  11.815  0.00  0.00    +0.000 NA
ATOM     19  C   UNL     1      42.711   4.898  11.531  0.00  0.00    +0.000 C 
ENDBRANCH  17  19
ENDBRANCH   7  17
ENDBRANCH   1   7
BRANCH   4  20
ATOM     20  C   UNL     1      48.139   7.485  14.135  0.00  0.00    +0.000 C 
BRANCH  20  21
ATOM     21  N   UNL     1      48.042   7.059  15.505  0.00  0.00    +0.000 N 
ATOM     22  C   UNL     1      49.132   6.540  16.151  0.00  0.00    +0.000 C 
ATOM     23  O   UNL     1      50.242   6.505  15.627  0.00  0.00    +0.000 OA
ATOM     24  H   UNL     1      47.110   6.892  15.874  0.00  0.00    +0.000 HD
BRANCH  22  25
ATOM     25  C   UNL     1      48.918   6.064  17.520  0.00  0.00    +0.000 A 
ATOM     26  C   UNL     1      49.192   4.741  17.835  0.00  0.00    +0.000 A 
ATOM     27  S   UNL     1      48.864   4.345  19.461  0.00  0.00    +0.000 S 
ATOM     28  C   UNL     1      48.317   5.923  19.790  0.00  0.00    +0.000 A 
ATOM     29  N   UNL     1      47.840   6.254  21.021  0.00  0.00    +0.000 NA
ATOM     30  C   UNL     1      47.442   7.477  21.125  0.00  0.00    +0.000 A 
ATOM     31  N   UNL     1      47.491   8.404  20.117  0.00  0.00    +0.000 N 
ATOM     32  C   UNL     1      47.987   8.124  18.870  0.00  0.00    +0.000 A 
ATOM     33  O   UNL     1      48.067   8.991  18.003  0.00  0.00    +0.000 OA
ATOM     34  C   UNL     1      48.420   6.750  18.685  0.00  0.00    +0.000 A 
ATOM     35  H   UNL     1      47.184   9.354  20.272  0.00  0.00    +0.000 HD
ENDBRANCH  22  25
ENDBRANCH  20  21
ENDBRANCH   4  20
TORSDOF 9
ENDMDL
MODEL 4
REMARK VINA RESULT:    -7.289      2.985      8.654
REMARK INTER + INTRA:         -12.316
REMARK INTER:                 -10.409
REMARK INTRA:                  -1.907
REMARK UNBOUND:                -1.192
REMARK  Name = 
REMARK  9 active torsions:
REMARK  status: ('A' for Active; 'I' for Inactive)
REMARK    1  A    between atoms: C_2  and  C_3
REMARK    2  A    between atoms: C_3  and  C_4
REMARK    3  A    between atoms: C_4  and  N_5
REMARK    4  A    between atoms: C_4  and  C_13
REMARK    5  A    between atoms: N_5  and  C_6
REMARK    6  A    between atoms: C_6  and  C_7
REMARK    7  A    between atoms: C_16  and  C_17
REMARK    8  A    between atoms: C_17  and  N_18
REMARK    9  A    between atoms: C_19  and  C_21
REMARK                            x       y       z     vdW  Elec       q    Type
REMARK                         _______ _______ _______ _____ _____    ______ ____
ROOT
ATOM      1  C   UNL     1      49.137   7.877  16.046  0.00  0.00    +0.000 A 
ATOM      2  C   UNL     1      48.177   8.794  15.595  0.00  0.00    +0.000 A 
ATOM      3  C   UNL     1      47.750   8.805  14.264  0.00  0.00    +0.000 A 
ATOM      4  C   UNL     1      48.221   7.858  13.354  0.00  0.00    +0.000 A 
ATOM      5  C   UNL     1      49.211   6.967  13.771  0.00  0.00    +0.000 A 
ATOM      6  C   UNL     1      49.694   7.015  15.080  0.00  0.00    +0.000 A 
ENDROOT
BRANCH   1   7
ATOM      7  C   UNL     1      49.591   7.801  17.517  0.00  0.00    +0.000 C 
BRANCH   7   8
ATOM      8  N   UNL     1      49.184   6.540  18.185  0.00  0.00    +0.000 NA
ATOM      9  H   UNL     1      48.360   6.166  17.715  0.00  0.00    +0.000 HD
BRANCH   8  10
ATOM     10  C   UNL     1      50.232   5.528  18.231  0.00  0.00    +0.000 C 
BRANCH  10  11
ATOM     11  C   UNL     1      49.751   4.090  18.035  0.00  0.00    +0.000 C 
ATOM     12  C   UNL     1      50.949   3.269  17.519  0.00  0.00    +0.000 C 
ATOM     13  C   UNL     1      50.525   1.879  17.085  0.00  0.00    +0.000 C 
ATOM     14  O   UNL     1      49.485   1.954  16.113  0.00  0.00    +0.000 OA
ATOM     15  C   UNL     1      48.312   2.578  16.630  0.00  0.00    +0.000 C 
ATOM     16  C   UNL     1      48.599   4.015  17.023  0.00  0.00    +0.000 C 
ENDBRANCH  10  11
ENDBRANCH   8  10
ENDBRANCH   7   8
BRANCH   7  17
ATOM     17  C   UNL     1      49.032   8.969  18.366  0.00  0.00    +0.000 C 
BRANCH  17  19
ATOM     18  N   UNL     1      47.702   8.138  20.471  0.00  0.00    +0.000 NA
ATOM     19  C   UNL     1      48.258   8.512  19.530  0.00  0.00    +0.000 C 
ENDBRANCH  17  19
ENDBRANCH   7  17
ENDBRANCH   1   7
BRANCH   4  20
ATOM     20  C   UNL     1      47.721   7.833  11.941  0.00  0.00    +0.000 C 
BRANCH  20  21
ATOM     21  N   UNL     1      46.982   6.627  11.680  0.00  0.00    +0.000 N 
ATOM     22  C   UNL     1      45.618   6.608  11.798  0.00  0.00    +0.000 C 
ATOM     23  O   UNL     1      44.972   7.625  12.034  0.00  0.00    +0.000 OA
ATOM     24  H   UNL     1      47.501   5.754  11.687  0.00  0.00    +0.000 HD
BRANCH  22  25
ATOM     25  C   UNL     1      44.960   5.316  11.585  0.00  0.00    +0.000 A 
ATOM     26  C   UNL     1      44.229   4.743  12.616  0.00  0.00    +0.000 A 
ATOM     27  S   UNL     1      43.552   3.231  12.212  0.00  0.00    +0.000 S 
ATOM     28  C   UNL     1      44.236   3.280  10.655  0.00  0.00    +0.000 A 
ATOM     29  N   UNL     1      44.073   2.244   9.787  0.00  0.00    +0.000 NA
ATOM     30  C   UNL     1      44.660   2.407   8.650  0.00  0.00    +0.000 A 
ATOM     31  N   UNL     1      45.383   3.515   8.294  0.00  0.00    +0.000 N 
ATOM     32  C   UNL     1      45.553   4.593   9.124  0.00  0.00    +0.000 A 
ATOM     33  O   UNL     1      46.162   5.594   8.756  0.00  0.00    +0.000 OA
ATOM     34  C   UNL     1      44.940   4.451  10.433  0.00  0.00    +0.000 A 
ATOM     35  H   UNL     1      45.800   3.588   7.376  0.00  0.00    +0.000 HD
ENDBRANCH  22  25
ENDBRANCH  20  21
ENDBRANCH   4  20
TORSDOF 9
ENDMDL
MODEL 5
REMARK VINA RESULT:    -7.008      3.638      8.418
REMARK INTER + INTRA:         -11.887
REMARK INTER:                 -10.085
REMARK INTRA:                  -1.803
REMARK UNBOUND:                -1.192
REMARK  Name = 
REMARK  9 active torsions:
REMARK  status: ('A' for Active; 'I' for Inactive)
REMARK    1  A    between atoms: C_2  and  C_3
REMARK    2  A    between atoms: C_3  and  C_4
REMARK    3  A    between atoms: C_4  and  N_5
REMARK    4  A    between atoms: C_4  and  C_13
REMARK    5  A    between atoms: N_5  and  C_6
REMARK    6  A    between atoms: C_6  and  C_7
REMARK    7  A    between atoms: C_16  and  C_17
REMARK    8  A    between atoms: C_17  and  N_18
REMARK    9  A    between atoms: C_19  and  C_21
REMARK                            x       y       z     vdW  Elec       q    Type
REMARK                         _______ _______ _______ _____ _____    ______ ____
ROOT
ATOM      1  C   UNL     1      48.776   7.521  16.405  0.00  0.00    +0.000 A 
ATOM      2  C   UNL     1      48.884   6.498  15.451  0.00  0.00    +0.000 A 
ATOM      3  C   UNL     1      48.595   6.728  14.102  0.00  0.00    +0.000 A 
ATOM      4  C   UNL     1      48.253   8.004  13.652  0.00  0.00    +0.000 A 
ATOM      5  C   UNL     1      48.096   9.023  14.591  0.00  0.00    +0.000 A 
ATOM      6  C   UNL     1      48.304   8.768  15.948  0.00  0.00    +0.000 A 
ENDROOT
BRANCH   1   7
ATOM      7  C   UNL     1      49.138   7.318  17.889  0.00  0.00    +0.000 C 
BRANCH   7   8
ATOM      8  N   UNL     1      49.893   6.064  18.136  0.00  0.00    +0.000 NA
ATOM      9  H   UNL     1      50.791   6.295  18.561  0.00  0.00    +0.000 HD
BRANCH   8  10
ATOM     10  C   UNL     1      49.184   5.099  18.967  0.00  0.00    +0.000 C 
BRANCH  10  11
ATOM     11  C   UNL     1      49.088   3.689  18.382  0.00  0.00    +0.000 C 
ATOM     12  C   UNL     1      50.472   3.335  17.804  0.00  0.00    +0.000 C 
ATOM     13  C   UNL     1      50.428   2.045  17.007  0.00  0.00    +0.000 C 
ATOM     14  O   UNL     1      49.439   2.123  15.983  0.00  0.00    +0.000 OA
ATOM     15  C   UNL     1      48.129   2.299  16.517  0.00  0.00    +0.000 C 
ATOM     16  C   UNL     1      48.029   3.611  17.273  0.00  0.00    +0.000 C 
ENDBRANCH  10  11
ENDBRANCH   8  10
ENDBRANCH   7   8
BRANCH   7  17
ATOM     17  C   UNL     1      47.887   7.284  18.801  0.00  0.00    +0.000 C 
BRANCH  17  19
ATOM     18  N   UNL     1      47.391   9.559  20.011  0.00  0.00    +0.000 NA
ATOM     19  C   UNL     1      47.614   8.575  19.449  0.00  0.00    +0.000 C 
ENDBRANCH  17  19
ENDBRANCH   7  17
ENDBRANCH   1   7
BRANCH   4  20
ATOM     20  C   UNL     1      48.000   8.263  12.197  0.00  0.00    +0.000 C 
BRANCH  20  21
ATOM     21  N   UNL     1      47.413   7.111  11.566  0.00  0.00    +0.000 N 
ATOM     22  C   UNL     1      46.059   7.035  11.379  0.00  0.00    +0.000 C 
ATOM     23  O   UNL     1      45.312   7.971  11.652  0.00  0.00    +0.000 OA
ATOM     24  H   UNL     1      47.976   6.266  11.526  0.00  0.00    +0.000 HD
BRANCH  22  25
ATOM     25  C   UNL     1      45.546   5.792  10.797  0.00  0.00    +0.000 A 
ATOM     26  C   UNL     1      45.715   5.551   9.442  0.00  0.00    +0.000 A 
ATOM     27  S   UNL     1      45.037   4.075   8.922  0.00  0.00    +0.000 S 
ATOM     28  C   UNL     1      44.470   3.722  10.488  0.00  0.00    +0.000 A 
ATOM     29  N   UNL     1      43.750   2.594  10.733  0.00  0.00    +0.000 NA
ATOM     30  C   UNL     1      43.369   2.463  11.959  0.00  0.00    +0.000 A 
ATOM     31  N   UNL     1      43.655   3.348  12.965  0.00  0.00    +0.000 N 
ATOM     32  C   UNL     1      44.398   4.483  12.772  0.00  0.00    +0.000 A 
ATOM     33  O   UNL     1      44.683   5.228  13.706  0.00  0.00    +0.000 OA
ATOM     34  C   UNL     1      44.827   4.699  11.401  0.00  0.00    +0.000 A 
ATOM     35  H   UNL     1      43.344   3.173  13.911  0.00  0.00    +0.000 HD
ENDBRANCH  22  25
ENDBRANCH  20  21
ENDBRANCH   4  20
TORSDOF 9
ENDMDL
MODEL 6
REMARK VINA RESULT:    -6.628      4.022      9.573
REMARK INTER + INTRA:         -11.308
REMARK INTER:                  -9.608
REMARK INTRA:                  -1.700
REMARK UNBOUND:                -1.192
REMARK  Name = 
REMARK  9 active torsions:
REMARK  status: ('A' for Active; 'I' for Inactive)
REMARK    1  A    between atoms: C_2  and  C_3
REMARK    2  A    between atoms: C_3  and  C_4
REMARK    3  A    between atoms: C_4  and  N_5
REMARK    4  A    between atoms: C_4  and  C_13
REMARK    5  A    between atoms: N_5  and  C_6
REMARK    6  A    between atoms: C_6  and  C_7
REMARK    7  A    between atoms: C_16  and  C_17
REMARK    8  A    between atoms: C_17  and  N_18
REMARK    9  A    between atoms: C_19  and  C_21
REMARK                            x       y       z     vdW  Elec       q    Type
REMARK                         _______ _______ _______ _____ _____    ______ ____
ROOT
ATOM      1  C   UNL     1      51.403   4.321  17.644  0.00  0.00    +0.000 A 
ATOM      2  C   UNL     1      50.505   5.367  17.390  0.00  0.00    +0.000 A 
ATOM      3  C   UNL     1      49.163   5.118  17.089  0.00  0.00    +0.000 A 
ATOM      4  C   UNL     1      48.659   3.816  17.096  0.00  0.00    +0.000 A 
ATOM      5  C   UNL     1      49.545   2.758  17.301  0.00  0.00    +0.000 A 
ATOM      6  C   UNL     1      50.901   3.009  17.519  0.00  0.00    +0.000 A 
ENDROOT
BRANCH   1   7
ATOM      7  C   UNL     1      52.875   4.561  18.033  0.00  0.00    +0.000 C 
BRANCH   7   8
ATOM      8  N   UNL     1      53.642   5.278  16.984  0.00  0.00    +0.000 NA
ATOM      9  H   UNL     1      53.047   5.407  16.166  0.00  0.00    +0.000 HD
BRANCH   8  10
ATOM     10  C   UNL     1      54.177   6.563  17.416  0.00  0.00    +0.000 C 
BRANCH  10  11
ATOM     11  C   UNL     1      53.502   7.786  16.793  0.00  0.00    +0.000 C 
ATOM     12  C   UNL     1      52.477   8.317  17.813  0.00  0.00    +0.000 C 
ATOM     13  C   UNL     1      51.599   9.397  17.210  0.00  0.00    +0.000 C 
ATOM     14  O   UNL     1      50.962   8.920  16.027  0.00  0.00    +0.000 OA
ATOM     15  C   UNL     1      51.902   8.569  15.015  0.00  0.00    +0.000 C 
ATOM     16  C   UNL     1      52.790   7.429  15.481  0.00  0.00    +0.000 C 
ENDBRANCH  10  11
ENDBRANCH   8  10
ENDBRANCH   7   8
BRANCH   7  17
ATOM     17  C   UNL     1      53.629   3.240  18.326  0.00  0.00    +0.000 C 
BRANCH  17  19
ATOM     18  N   UNL     1      54.088   2.802  20.873  0.00  0.00    +0.000 NA
ATOM     19  C   UNL     1      53.866   3.022  19.761  0.00  0.00    +0.000 C 
ENDBRANCH  17  19
ENDBRANCH   7  17
ENDBRANCH   1   7
BRANCH   4  20
ATOM     20  C   UNL     1      47.207   3.553  16.830  0.00  0.00    +0.000 C 
BRANCH  20  21
ATOM     21  N   UNL     1      46.694   4.461  15.839  0.00  0.00    +0.000 N 
ATOM     22  C   UNL     1      46.827   4.182  14.506  0.00  0.00    +0.000 C 
ATOM     23  O   UNL     1      47.295   3.119  14.107  0.00  0.00    +0.000 OA
ATOM     24  H   UNL     1      46.498   5.412  16.139  0.00  0.00    +0.000 HD
BRANCH  22  25
ATOM     25  C   UNL     1      46.342   5.201  13.571  0.00  0.00    +0.000 A 
ATOM     26  C   UNL     1      47.115   6.325  13.322  0.00  0.00    +0.000 A 
ATOM     27  S   UNL     1      46.394   7.422  12.233  0.00  0.00    +0.000 S 
ATOM     28  C   UNL     1      45.010   6.443  12.080  0.00  0.00    +0.000 A 
ATOM     29  N   UNL     1      43.960   6.833  11.307  0.00  0.00    +0.000 NA
ATOM     30  C   UNL     1      42.971   6.003  11.297  0.00  0.00    +0.000 A 
ATOM     31  N   UNL     1      42.942   4.813  11.976  0.00  0.00    +0.000 N 
ATOM     32  C   UNL     1      43.985   4.367  12.745  0.00  0.00    +0.000 A 
ATOM     33  O   UNL     1      43.949   3.270  13.298  0.00  0.00    +0.000 OA
ATOM     34  C   UNL     1      45.114   5.277  12.820  0.00  0.00    +0.000 A 
ATOM     35  H   UNL     1      42.142   4.198  11.906  0.00  0.00    +0.000 HD
ENDBRANCH  22  25
ENDBRANCH  20  21
ENDBRANCH   4  20
TORSDOF 9
ENDMDL
MODEL 7
REMARK VINA RESULT:    -6.552      2.784      4.108
REMARK INTER + INTRA:         -11.190
REMARK INTER:                  -9.276
REMARK INTRA:                  -1.914
REMARK UNBOUND:                -1.192
REMARK  Name = 
REMARK  9 active torsions:
REMARK  status: ('A' for Active; 'I' for Inactive)
REMARK    1  A    between atoms: C_2  and  C_3
REMARK    2  A    between atoms: C_3  and  C_4
REMARK    3  A    between atoms: C_4  and  N_5
REMARK    4  A    between atoms: C_4  and  C_13
REMARK    5  A    between atoms: N_5  and  C_6
REMARK    6  A    between atoms: C_6  and  C_7
REMARK    7  A    between atoms: C_16  and  C_17
REMARK    8  A    between atoms: C_17  and  N_18
REMARK    9  A    between atoms: C_19  and  C_21
REMARK                            x       y       z     vdW  Elec       q    Type
REMARK                         _______ _______ _______ _____ _____    ______ ____
ROOT
ATOM      1  C   UNL     1      45.488   8.351  11.831  0.00  0.00    +0.000 A 
ATOM      2  C   UNL     1      46.103   7.092  11.785  0.00  0.00    +0.000 A 
ATOM      3  C   UNL     1      47.434   6.917  12.176  0.00  0.00    +0.000 A 
ATOM      4  C   UNL     1      48.174   7.984  12.688  0.00  0.00    +0.000 A 
ATOM      5  C   UNL     1      47.596   9.253  12.699  0.00  0.00    +0.000 A 
ATOM      6  C   UNL     1      46.294   9.437  12.229  0.00  0.00    +0.000 A 
ENDROOT
BRANCH   1   7
ATOM      7  C   UNL     1      44.008   8.570  11.460  0.00  0.00    +0.000 C 
BRANCH   7   8
ATOM      8  N   UNL     1      43.414   7.417  10.739  0.00  0.00    +0.000 NA
ATOM      9  H   UNL     1      44.160   6.879  10.300  0.00  0.00    +0.000 HD
BRANCH   8  10
ATOM     10  C   UNL     1      42.603   6.546  11.580  0.00  0.00    +0.000 C 
BRANCH  10  11
ATOM     11  C   UNL     1      42.858   5.049  11.396  0.00  0.00    +0.000 C 
ATOM     12  C   UNL     1      43.538   4.535  12.680  0.00  0.00    +0.000 C 
ATOM     13  C   UNL     1      44.031   3.110  12.516  0.00  0.00    +0.000 C 
ATOM     14  O   UNL     1      44.897   3.006  11.389  0.00  0.00    +0.000 OA
ATOM     15  C   UNL     1      44.233   3.334  10.171  0.00  0.00    +0.000 C 
ATOM     16  C   UNL     1      43.764   4.777  10.186  0.00  0.00    +0.000 C 
ENDBRANCH  10  11
ENDBRANCH   8  10
ENDBRANCH   7   8
BRANCH   7  17
ATOM     17  C   UNL     1      43.804   9.819  10.568  0.00  0.00    +0.000 C 
BRANCH  17  19
ATOM     18  N   UNL     1      41.280  10.526  10.429  0.00  0.00    +0.000 NA
ATOM     19  C   UNL     1      42.394  10.221  10.456  0.00  0.00    +0.000 C 
ENDBRANCH  17  19
ENDBRANCH   7  17
ENDBRANCH   1   7
BRANCH   4  20
ATOM     20  C   UNL     1      49.583   7.785  13.161  0.00  0.00    +0.000 C 
BRANCH  20  21
ATOM     21  N   UNL     1      49.629   6.852  14.255  0.00  0.00    +0.000 N 
ATOM     22  C   UNL     1      49.474   7.285  15.544  0.00  0.00    +0.000 C 
ATOM     23  O   UNL     1      49.199   8.452  15.809  0.00  0.00    +0.000 OA
ATOM     24  H   UNL     1      50.050   5.945  14.075  0.00  0.00    +0.000 HD
BRANCH  22  25
ATOM     25  C   UNL     1      49.612   6.275  16.597  0.00  0.00    +0.000 A 
ATOM     26  C   UNL     1      50.634   6.391  17.526  0.00  0.00    +0.000 A 
ATOM     27  S   UNL     1      50.668   5.120  18.663  0.00  0.00    +0.000 S 
ATOM     28  C   UNL     1      49.333   4.358  17.933  0.00  0.00    +0.000 A 
ATOM     29  N   UNL     1      48.863   3.170  18.403  0.00  0.00    +0.000 NA
ATOM     30  C   UNL     1      47.859   2.699  17.743  0.00  0.00    +0.000 A 
ATOM     31  N   UNL     1      47.273   3.312  16.667  0.00  0.00    +0.000 N 
ATOM     32  C   UNL     1      47.695   4.520  16.175  0.00  0.00    +0.000 A 
ATOM     33  O   UNL     1      47.113   5.069  15.243  0.00  0.00    +0.000 OA
ATOM     34  C   UNL     1      48.845   5.084  16.860  0.00  0.00    +0.000 A 
ATOM     35  H   UNL     1      46.473   2.898  16.208  0.00  0.00    +0.000 HD
ENDBRANCH  22  25
ENDBRANCH  20  21
ENDBRANCH   4  20
TORSDOF 9
ENDMDL
MODEL 8
REMARK VINA RESULT:    -6.459      3.726      8.665
REMARK INTER + INTRA:         -11.049
REMARK INTER:                  -8.682
REMARK INTRA:                  -2.367
REMARK UNBOUND:                -1.192
REMARK  Name = 
REMARK  9 active torsions:
REMARK  status: ('A' for Active; 'I' for Inactive)
REMARK    1  A    between atoms: C_2  and  C_3
REMARK    2  A    between atoms: C_3  and  C_4
REMARK    3  A    between atoms: C_4  and  N_5
REMARK    4  A    between atoms: C_4  and  C_13
REMARK    5  A    between atoms: N_5  and  C_6
REMARK    6  A    between atoms: C_6  and  C_7
REMARK    7  A    between atoms: C_16  and  C_17
REMARK    8  A    between atoms: C_17  and  N_18
REMARK    9  A    between atoms: C_19  and  C_21
REMARK                            x       y       z     vdW  Elec       q    Type
REMARK                         _______ _______ _______ _____ _____    ______ ____
ROOT
ATOM      1  C   UNL     1      50.095   6.980  17.948  0.00  0.00    +0.000 A 
ATOM      2  C   UNL     1      50.327   6.516  16.645  0.00  0.00    +0.000 A 
ATOM      3  C   UNL     1      49.657   7.066  15.547  0.00  0.00    +0.000 A 
ATOM      4  C   UNL     1      48.781   8.140  15.709  0.00  0.00    +0.000 A 
ATOM      5  C   UNL     1      48.502   8.585  17.001  0.00  0.00    +0.000 A 
ATOM      6  C   UNL     1      49.111   7.978  18.101  0.00  0.00    +0.000 A 
ENDROOT
BRANCH   1   7
ATOM      7  C   UNL     1      50.855   6.436  19.173  0.00  0.00    +0.000 C 
BRANCH   7   8
ATOM      8  N   UNL     1      50.663   4.979  19.375  0.00  0.00    +0.000 NA
ATOM      9  H   UNL     1      51.322   4.651  20.081  0.00  0.00    +0.000 HD
BRANCH   8  10
ATOM     10  C   UNL     1      49.305   4.607  19.753  0.00  0.00    +0.000 C 
BRANCH  10  11
ATOM     11  C   UNL     1      48.587   3.690  18.762  0.00  0.00    +0.000 C 
ATOM     12  C   UNL     1      49.660   3.069  17.846  0.00  0.00    +0.000 C 
ATOM     13  C   UNL     1      49.034   2.314  16.689  0.00  0.00    +0.000 C 
ATOM     14  O   UNL     1      48.149   3.160  15.960  0.00  0.00    +0.000 OA
ATOM     15  C   UNL     1      47.063   3.618  16.761  0.00  0.00    +0.000 C 
ATOM     16  C   UNL     1      47.568   4.465  17.915  0.00  0.00    +0.000 C 
ENDBRANCH  10  11
ENDBRANCH   8  10
ENDBRANCH   7   8
BRANCH   7  17
ATOM     17  C   UNL     1      50.432   7.139  20.487  0.00  0.00    +0.000 C 
BRANCH  17  19
ATOM     18  N   UNL     1      52.394   8.529  21.539  0.00  0.00    +0.000 NA
ATOM     19  C   UNL     1      51.525   7.903  21.106  0.00  0.00    +0.000 C 
ENDBRANCH  17  19
ENDBRANCH   7  17
ENDBRANCH   1   7
BRANCH   4  20
ATOM     20  C   UNL     1      48.106   8.766  14.525  0.00  0.00    +0.000 C 
BRANCH  20  21
ATOM     21  N   UNL     1      47.080   7.903  14.004  0.00  0.00    +0.000 N 
ATOM     22  C   UNL     1      46.787   7.902  12.667  0.00  0.00    +0.000 C 
ATOM     23  O   UNL     1      47.439   8.554  11.857  0.00  0.00    +0.000 OA
ATOM     24  H   UNL     1      46.411   7.524  14.668  0.00  0.00    +0.000 HD
BRANCH  22  25
ATOM     25  C   UNL     1      45.676   7.046  12.241  0.00  0.00    +0.000 A 
ATOM     26  C   UNL     1      44.593   7.609  11.582  0.00  0.00    +0.000 A 
ATOM     27  S   UNL     1      43.378   6.481  11.180  0.00  0.00    +0.000 S 
ATOM     28  C   UNL     1      44.248   5.207  11.899  0.00  0.00    +0.000 A 
ATOM     29  N   UNL     1      43.736   3.947  11.940  0.00  0.00    +0.000 NA
ATOM     30  C   UNL     1      44.494   3.085  12.530  0.00  0.00    +0.000 A 
ATOM     31  N   UNL     1      45.722   3.363  13.069  0.00  0.00    +0.000 N 
ATOM     32  C   UNL     1      46.290   4.610  13.029  0.00  0.00    +0.000 A 
ATOM     33  O   UNL     1      47.416   4.815  13.474  0.00  0.00    +0.000 OA
ATOM     34  C   UNL     1      45.466   5.630  12.404  0.00  0.00    +0.000 A 
ATOM     35  H   UNL     1      46.276   2.634  13.499  0.00  0.00    +0.000 HD
ENDBRANCH  22  25
ENDBRANCH  20  21
ENDBRANCH   4  20
TORSDOF 9
ENDMDL
MODEL 9
REMARK VINA RESULT:    -6.392      3.713      9.118
REMARK INTER + INTRA:         -10.946
REMARK INTER:                  -9.597
REMARK INTRA:                  -1.350
REMARK UNBOUND:                -1.192
REMARK  Name = 
REMARK  9 active torsions:
REMARK  status: ('A' for Active; 'I' for Inactive)
REMARK    1  A    between atoms: C_2  and  C_3
REMARK    2  A    between atoms: C_3  and  C_4
REMARK    3  A    between atoms: C_4  and  N_5
REMARK    4  A    between atoms: C_4  and  C_13
REMARK    5  A    between atoms: N_5  and  C_6
REMARK    6  A    between atoms: C_6  and  C_7
REMARK    7  A    between atoms: C_16  and  C_17
REMARK    8  A    between atoms: C_17  and  N_18
REMARK    9  A    between atoms: C_19  and  C_21
REMARK                            x       y       z     vdW  Elec       q    Type
REMARK                         _______ _______ _______ _____ _____    ______ ____
ROOT
ATOM      1  C   UNL     1      49.128   5.660  17.285  0.00  0.00    +0.000 A 
ATOM      2  C   UNL     1      48.312   4.969  16.378  0.00  0.00    +0.000 A 
ATOM      3  C   UNL     1      47.960   5.527  15.145  0.00  0.00    +0.000 A 
ATOM      4  C   UNL     1      48.464   6.767  14.751  0.00  0.00    +0.000 A 
ATOM      5  C   UNL     1      49.240   7.490  15.658  0.00  0.00    +0.000 A 
ATOM      6  C   UNL     1      49.520   6.964  16.920  0.00  0.00    +0.000 A 
ENDROOT
BRANCH   1   7
ATOM      7  C   UNL     1      49.580   5.053  18.628  0.00  0.00    +0.000 C 
BRANCH   7   8
ATOM      8  N   UNL     1      50.482   3.887  18.464  0.00  0.00    +0.000 NA
ATOM      9  H   UNL     1      50.202   3.364  17.634  0.00  0.00    +0.000 HD
BRANCH   8  10
ATOM     10  C   UNL     1      51.894   4.237  18.376  0.00  0.00    +0.000 C 
BRANCH  10  11
ATOM     11  C   UNL     1      52.826   3.080  18.010  0.00  0.00    +0.000 C 
ATOM     12  C   UNL     1      51.941   1.861  17.683  0.00  0.00    +0.000 C 
ATOM     13  C   UNL     1      52.768   0.601  17.519  0.00  0.00    +0.000 C 
ATOM     14  O   UNL     1      53.568   0.373  18.677  0.00  0.00    +0.000 OA
ATOM     15  C   UNL     1      54.500   1.428  18.902  0.00  0.00    +0.000 C 
ATOM     16  C   UNL     1      53.776   2.736  19.164  0.00  0.00    +0.000 C 
ENDBRANCH  10  11
ENDBRANCH   8  10
ENDBRANCH   7   8
BRANCH   7  17
ATOM     17  C   UNL     1      48.385   4.587  19.495  0.00  0.00    +0.000 C 
BRANCH  17  19
ATOM     18  N   UNL     1      47.263   6.497  20.903  0.00  0.00    +0.000 NA
ATOM     19  C   UNL     1      47.782   5.678  20.275  0.00  0.00    +0.000 C 
ENDBRANCH  17  19
ENDBRANCH   7  17
ENDBRANCH   1   7
BRANCH   4  20
ATOM     20  C   UNL     1      48.133   7.339  13.406  0.00  0.00    +0.000 C 
BRANCH  20  21
ATOM     21  N   UNL     1      47.477   6.362  12.580  0.00  0.00    +0.000 N 
ATOM     22  C   UNL     1      46.407   6.714  11.803  0.00  0.00    +0.000 C 
ATOM     23  O   UNL     1      46.029   7.878  11.706  0.00  0.00    +0.000 OA
ATOM     24  H   UNL     1      47.640   5.383  12.801  0.00  0.00    +0.000 HD
BRANCH  22  25
ATOM     25  C   UNL     1      45.757   5.635  11.054  0.00  0.00    +0.000 A 
ATOM     26  C   UNL     1      45.843   5.615   9.669  0.00  0.00    +0.000 A 
ATOM     27  S   UNL     1      45.010   4.310   8.954  0.00  0.00    +0.000 S 
ATOM     28  C   UNL     1      44.484   3.745  10.470  0.00  0.00    +0.000 A 
ATOM     29  N   UNL     1      43.674   2.655  10.567  0.00  0.00    +0.000 NA
ATOM     30  C   UNL     1      43.338   2.349  11.774  0.00  0.00    +0.000 A 
ATOM     31  N   UNL     1      43.748   3.023  12.895  0.00  0.00    +0.000 N 
ATOM     32  C   UNL     1      44.583   4.109  12.849  0.00  0.00    +0.000 A 
ATOM     33  O   UNL     1      44.976   4.658  13.875  0.00  0.00    +0.000 OA
ATOM     34  C   UNL     1      44.969   4.519  11.510  0.00  0.00    +0.000 A 
ATOM     35  H   UNL     1      43.464   2.716  13.816  0.00  0.00    +0.000 HD
ENDBRANCH  22  25
ENDBRANCH  20  21
ENDBRANCH   4  20
TORSDOF 9
ENDMDL
