MODEL 1
REMARK VINA RESULT:    -8.074      0.000      0.000
REMARK INTER + INTRA:         -12.936
REMARK INTER:                 -11.378
REMARK INTRA:                  -1.558
REMARK UNBOUND:                -1.558
REMARK  Name = 
REMARK  8 active torsions:
REMARK  status: ('A' for Active; 'I' for Inactive)
REMARK    1  A    between atoms: C_1  and  C_2
REMARK    2  A    between atoms: C_2  and  N_3
REMARK    3  A    between atoms: C_2  and  C_18
REMARK    4  A    between atoms: N_3  and  C_4
REMARK    5  A    between atoms: C_7  and  C_8
REMARK    6  A    between atoms: C_8  and  N_9
REMARK    7  A    between atoms: N_9  and  C_10
REMARK    8  A    between atoms: C_18  and  C_20
REMARK                            x       y       z     vdW  Elec       q    Type
REMARK                         _______ _______ _______ _____ _____    ______ ____
ROOT
ATOM      1  N   UNL     1      46.051   7.559  13.310  0.00  0.00    +0.000 N 
ATOM      2  H   UNL     1      45.748   7.553  14.285  0.00  0.00    +0.000 HD
ENDROOT
BRANCH   1   3
ATOM      3  C   UNL     1      45.545   6.513  12.534  0.00  0.00    +0.000 A 
ATOM      4  C   UNL     1      44.860   5.412  13.068  0.00  0.00    +0.000 A 
ATOM      5  C   UNL     1      44.534   4.307  12.286  0.00  0.00    +0.000 A 
ATOM      6  C   UNL     1      44.806   4.315  10.921  0.00  0.00    +0.000 A 
ATOM      7  C   UNL     1      45.424   5.443  10.363  0.00  0.00    +0.000 A 
ATOM      8  C   UNL     1      45.779   6.532  11.159  0.00  0.00    +0.000 A 
BRANCH   6   9
ATOM      9  C   UNL     1      44.518   3.127  10.051  0.00  0.00    +0.000 C 
BRANCH   9  10
ATOM     10  N   UNL     1      44.277   3.469   8.646  0.00  0.00    +0.000 NA
ATOM     11  H   UNL     1      44.452   4.468   8.531  0.00  0.00    +0.000 HD
BRANCH  10  12
ATOM     12  C   UNL     1      45.150   2.725   7.722  0.00  0.00    +0.000 C 
ATOM     13  C   UNL     1      45.852   1.592   8.493  0.00  0.00    +0.000 C 
ATOM     14  C   UNL     1      46.835   0.829   7.603  0.00  0.00    +0.000 C 
ATOM     15  C   UNL     1      47.842   1.771   6.951  0.00  0.00    +0.000 C 
ATOM     16  C   UNL     1      47.135   2.835   6.121  0.00  0.00    +0.000 C 
ATOM     17  C   UNL     1      46.164   3.623   6.985  0.00  0.00    +0.000 C 
ENDBRANCH  10  12
ENDBRANCH   9  10
ENDBRANCH   6   9
ENDBRANCH   1   3
BRANCH   1  19
ATOM     18  C   UNL     1      47.569   9.397  13.702  0.00  0.00    +0.000 C 
ATOM     19  C   UNL     1      47.454   7.997  13.100  0.00  0.00    +0.000 C 
BRANCH  19  20
ATOM     20  C   UNL     1      48.460   6.882  13.522  0.00  0.00    +0.000 C 
ATOM     21  O   UNL     1      49.203   6.390  12.661  0.00  0.00    +0.000 OA
BRANCH  20  22
ATOM     22  C   UNL     1      48.688   6.451  14.927  0.00  0.00    +0.000 A 
ATOM     23  C   UNL     1      49.500   7.247  15.729  0.00  0.00    +0.000 A 
ATOM     24  S   UNL     1      49.537   6.793  17.367  0.00  0.00    +0.000 S 
ATOM     25  C   UNL     1      48.475   5.503  17.078  0.00  0.00    +0.000 A 
ATOM     26  N   UNL     1      48.034   4.721  18.098  0.00  0.00    +0.000 NA
ATOM     27  C   UNL     1      47.197   3.804  17.744  0.00  0.00    +0.000 A 
ATOM     28  N   UNL     1      46.810   3.562  16.452  0.00  0.00    +0.000 N 
ATOM     29  C   UNL     1      47.473   4.142  15.405  0.00  0.00    +0.000 A 
ATOM     30  O   UNL     1      47.538   3.582  14.296  0.00  0.00    +0.000 OA
ATOM     31  C   UNL     1      48.198   5.351  15.724  0.00  0.00    +0.000 A 
ATOM     32  H   UNL     1      46.276   2.732  16.240  0.00  0.00    +0.000 HD
ENDBRANCH  20  22
ENDBRANCH  19  20
ENDBRANCH   1  19
TORSDOF 7
ENDMDL
MODEL 2
REMARK VINA RESULT:    -7.880      1.344      1.757
REMARK INTER + INTRA:         -12.664
REMARK INTER:                 -11.559
REMARK INTRA:                  -1.105
REMARK UNBOUND:                -1.558
REMARK  Name = 
REMARK  8 active torsions:
REMARK  status: ('A' for Active; 'I' for Inactive)
REMARK    1  A    between atoms: C_1  and  C_2
REMARK    2  A    between atoms: C_2  and  N_3
REMARK    3  A    between atoms: C_2  and  C_18
REMARK    4  A    between atoms: N_3  and  C_4
REMARK    5  A    between atoms: C_7  and  C_8
REMARK    6  A    between atoms: C_8  and  N_9
REMARK    7  A    between atoms: N_9  and  C_10
REMARK    8  A    between atoms: C_18  and  C_20
REMARK                            x       y       z     vdW  Elec       q    Type
REMARK                         _______ _______ _______ _____ _____    ______ ____
ROOT
ATOM      1  N   UNL     1      46.485   6.549  13.610  0.00  0.00    +0.000 N 
ATOM      2  H   UNL     1      46.071   6.651  14.537  0.00  0.00    +0.000 HD
ENDROOT
BRANCH   1   3
ATOM      3  C   UNL     1      45.809   5.670  12.761  0.00  0.00    +0.000 A 
ATOM      4  C   UNL     1      45.789   4.278  12.943  0.00  0.00    +0.000 A 
ATOM      5  C   UNL     1      45.260   3.425  11.978  0.00  0.00    +0.000 A 
ATOM      6  C   UNL     1      44.652   3.949  10.841  0.00  0.00    +0.000 A 
ATOM      7  C   UNL     1      44.600   5.343  10.686  0.00  0.00    +0.000 A 
ATOM      8  C   UNL     1      45.163   6.190  11.639  0.00  0.00    +0.000 A 
BRANCH   6   9
ATOM      9  C   UNL     1      44.115   3.067   9.753  0.00  0.00    +0.000 C 
BRANCH   9  10
ATOM     10  N   UNL     1      44.959   1.902   9.467  0.00  0.00    +0.000 NA
ATOM     11  H   UNL     1      44.364   1.173   9.071  0.00  0.00    +0.000 HD
BRANCH  10  12
ATOM     12  C   UNL     1      46.039   2.203   8.513  0.00  0.00    +0.000 C 
ATOM     13  C   UNL     1      45.545   3.262   7.509  0.00  0.00    +0.000 C 
ATOM     14  C   UNL     1      46.599   3.561   6.441  0.00  0.00    +0.000 C 
ATOM     15  C   UNL     1      47.054   2.288   5.735  0.00  0.00    +0.000 C 
ATOM     16  C   UNL     1      47.619   1.284   6.732  0.00  0.00    +0.000 C 
ATOM     17  C   UNL     1      46.586   0.952   7.795  0.00  0.00    +0.000 C 
ENDBRANCH  10  12
ENDBRANCH   9  10
ENDBRANCH   6   9
ENDBRANCH   1   3
BRANCH   1  19
ATOM     18  C   UNL     1      48.375   7.172  12.239  0.00  0.00    +0.000 C 
ATOM     19  C   UNL     1      47.969   6.572  13.586  0.00  0.00    +0.000 C 
BRANCH  19  20
ATOM     20  C   UNL     1      48.542   7.167  14.909  0.00  0.00    +0.000 C 
ATOM     21  O   UNL     1      48.311   8.354  15.180  0.00  0.00    +0.000 OA
BRANCH  20  22
ATOM     22  C   UNL     1      49.246   6.369  15.948  0.00  0.00    +0.000 A 
ATOM     23  C   UNL     1      50.583   6.660  16.200  0.00  0.00    +0.000 A 
ATOM     24  S   UNL     1      51.243   5.844  17.538  0.00  0.00    +0.000 S 
ATOM     25  C   UNL     1      49.772   5.054  17.837  0.00  0.00    +0.000 A 
ATOM     26  N   UNL     1      49.628   4.230  18.907  0.00  0.00    +0.000 NA
ATOM     27  C   UNL     1      48.446   3.729  19.040  0.00  0.00    +0.000 A 
ATOM     28  N   UNL     1      47.413   3.931  18.162  0.00  0.00    +0.000 N 
ATOM     29  C   UNL     1      47.639   4.506  16.942  0.00  0.00    +0.000 A 
ATOM     30  O   UNL     1      46.924   4.232  15.960  0.00  0.00    +0.000 OA
ATOM     31  C   UNL     1      48.830   5.319  16.849  0.00  0.00    +0.000 A 
ATOM     32  H   UNL     1      46.571   3.383  18.251  0.00  0.00    +0.000 HD
ENDBRANCH  20  22
ENDBRANCH  19  20
ENDBRANCH   1  19
TORSDOF 7
ENDMDL
MODEL 3
REMARK VINA RESULT:    -7.357      1.757      2.295
REMARK INTER + INTRA:         -11.926
REMARK INTER:                 -11.041
REMARK INTRA:                  -0.885
REMARK UNBOUND:                -1.558
REMARK  Name = 
REMARK  8 active torsions:
REMARK  status: ('A' for Active; 'I' for Inactive)
REMARK    1  A    between atoms: C_1  and  C_2
REMARK    2  A    between atoms: C_2  and  N_3
REMARK    3  A    between atoms: C_2  and  C_18
REMARK    4  A    between atoms: N_3  and  C_4
REMARK    5  A    between atoms: C_7  and  C_8
REMARK    6  A    between atoms: C_8  and  N_9
REMARK    7  A    between atoms: N_9  and  C_10
REMARK    8  A    between atoms: C_18  and  C_20
REMARK                            x       y       z     vdW  Elec       q    Type
REMARK                         _______ _______ _______ _____ _____    ______ ____
ROOT
ATOM      1  N   UNL     1      47.127   7.038  13.766  0.00  0.00    +0.000 N 
ATOM      2  H   UNL     1      46.634   7.544  14.503  0.00  0.00    +0.000 HD
ENDROOT
BRANCH   1   3
ATOM      3  C   UNL     1      46.304   6.313  12.902  0.00  0.00    +0.000 A 
ATOM      4  C   UNL     1      45.450   5.284  13.327  0.00  0.00    +0.000 A 
ATOM      5  C   UNL     1      44.785   4.466  12.417  0.00  0.00    +0.000 A 
ATOM      6  C   UNL     1      44.887   4.716  11.051  0.00  0.00    +0.000 A 
ATOM      7  C   UNL     1      45.680   5.789  10.619  0.00  0.00    +0.000 A 
ATOM      8  C   UNL     1      46.370   6.583  11.535  0.00  0.00    +0.000 A 
BRANCH   6   9
ATOM      9  C   UNL     1      44.230   3.830  10.034  0.00  0.00    +0.000 C 
BRANCH   9  10
ATOM     10  N   UNL     1      44.433   4.268   8.650  0.00  0.00    +0.000 NA
ATOM     11  H   UNL     1      45.004   5.114   8.668  0.00  0.00    +0.000 HD
BRANCH  10  12
ATOM     12  C   UNL     1      45.114   3.255   7.827  0.00  0.00    +0.000 C 
ATOM     13  C   UNL     1      45.529   2.073   8.722  0.00  0.00    +0.000 C 
ATOM     14  C   UNL     1      46.311   1.018   7.937  0.00  0.00    +0.000 C 
ATOM     15  C   UNL     1      47.513   1.632   7.227  0.00  0.00    +0.000 C 
ATOM     16  C   UNL     1      47.078   2.743   6.279  0.00  0.00    +0.000 C 
ATOM     17  C   UNL     1      46.313   3.816   7.036  0.00  0.00    +0.000 C 
ENDBRANCH  10  12
ENDBRANCH   9  10
ENDBRANCH   6   9
ENDBRANCH   1   3
BRANCH   1  19
ATOM     18  C   UNL     1      49.487   7.529  13.931  0.00  0.00    +0.000 C 
ATOM     19  C   UNL     1      48.428   6.454  14.178  0.00  0.00    +0.000 C 
BRANCH  19  20
ATOM     20  C   UNL     1      48.320   5.774  15.578  0.00  0.00    +0.000 C 
ATOM     21  O   UNL     1      47.827   4.640  15.655  0.00  0.00    +0.000 OA
BRANCH  20  22
ATOM     22  C   UNL     1      48.893   6.341  16.828  0.00  0.00    +0.000 A 
ATOM     23  C   UNL     1      48.634   7.677  17.117  0.00  0.00    +0.000 A 
ATOM     24  S   UNL     1      49.151   8.180  18.657  0.00  0.00    +0.000 S 
ATOM     25  C   UNL     1      49.756   6.634  19.006  0.00  0.00    +0.000 A 
ATOM     26  N   UNL     1      50.292   6.353  20.222  0.00  0.00    +0.000 NA
ATOM     27  C   UNL     1      50.674   5.128  20.367  0.00  0.00    +0.000 A 
ATOM     28  N   UNL     1      50.621   4.176  19.383  0.00  0.00    +0.000 N 
ATOM     29  C   UNL     1      50.364   4.527  18.086  0.00  0.00    +0.000 A 
ATOM     30  O   UNL     1      50.817   3.860  17.139  0.00  0.00    +0.000 OA
ATOM     31  C   UNL     1      49.673   5.783  17.909  0.00  0.00    +0.000 A 
ATOM     32  H   UNL     1      51.079   3.288  19.525  0.00  0.00    +0.000 HD
ENDBRANCH  20  22
ENDBRANCH  19  20
ENDBRANCH   1  19
TORSDOF 7
ENDMDL
MODEL 4
REMARK VINA RESULT:    -7.227      2.129      2.791
REMARK INTER + INTRA:         -11.743
REMARK INTER:                 -10.661
REMARK INTRA:                  -1.082
REMARK UNBOUND:                -1.558
REMARK  Name = 
REMARK  8 active torsions:
REMARK  status: ('A' for Active; 'I' for Inactive)
REMARK    1  A    between atoms: C_1  and  C_2
REMARK    2  A    between atoms: C_2  and  N_3
REMARK    3  A    between atoms: C_2  and  C_18
REMARK    4  A    between atoms: N_3  and  C_4
REMARK    5  A    between atoms: C_7  and  C_8
REMARK    6  A    between atoms: C_8  and  N_9
REMARK    7  A    between atoms: N_9  and  C_10
REMARK    8  A    between atoms: C_18  and  C_20
REMARK                            x       y       z     vdW  Elec       q    Type
REMARK                         _______ _______ _______ _____ _____    ______ ____
ROOT
ATOM      1  N   UNL     1      47.355   6.997  13.955  0.00  0.00    +0.000 N 
ATOM      2  H   UNL     1      46.834   7.137  14.823  0.00  0.00    +0.000 HD
ENDROOT
BRANCH   1   3
ATOM      3  C   UNL     1      46.703   6.212  13.002  0.00  0.00    +0.000 A 
ATOM      4  C   UNL     1      46.412   6.653  11.702  0.00  0.00    +0.000 A 
ATOM      5  C   UNL     1      45.604   5.911  10.844  0.00  0.00    +0.000 A 
ATOM      6  C   UNL     1      45.138   4.659  11.235  0.00  0.00    +0.000 A 
ATOM      7  C   UNL     1      45.485   4.176  12.505  0.00  0.00    +0.000 A 
ATOM      8  C   UNL     1      46.266   4.940  13.372  0.00  0.00    +0.000 A 
BRANCH   6   9
ATOM      9  C   UNL     1      44.224   3.849  10.364  0.00  0.00    +0.000 C 
BRANCH   9  10
ATOM     10  N   UNL     1      44.223   4.267   8.959  0.00  0.00    +0.000 NA
ATOM     11  H   UNL     1      44.702   5.166   8.898  0.00  0.00    +0.000 HD
BRANCH  10  12
ATOM     12  C   UNL     1      44.905   3.304   8.079  0.00  0.00    +0.000 C 
ATOM     13  C   UNL     1      45.328   2.076   8.905  0.00  0.00    +0.000 C 
ATOM     14  C   UNL     1      46.113   1.070   8.061  0.00  0.00    +0.000 C 
ATOM     15  C   UNL     1      47.310   1.728   7.383  0.00  0.00    +0.000 C 
ATOM     16  C   UNL     1      46.868   2.888   6.501  0.00  0.00    +0.000 C 
ATOM     17  C   UNL     1      46.100   3.914   7.318  0.00  0.00    +0.000 C 
ENDBRANCH  10  12
ENDBRANCH   9  10
ENDBRANCH   6   9
ENDBRANCH   1   3
BRANCH   1  19
ATOM     18  C   UNL     1      49.479   7.676  13.027  0.00  0.00    +0.000 C 
ATOM     19  C   UNL     1      48.821   6.847  14.130  0.00  0.00    +0.000 C 
BRANCH  19  20
ATOM     20  C   UNL     1      49.235   7.061  15.619  0.00  0.00    +0.000 C 
ATOM     21  O   UNL     1      50.046   7.958  15.890  0.00  0.00    +0.000 OA
BRANCH  20  22
ATOM     22  C   UNL     1      48.618   6.347  16.768  0.00  0.00    +0.000 A 
ATOM     23  C   UNL     1      48.438   4.971  16.660  0.00  0.00    +0.000 A 
ATOM     24  S   UNL     1      47.922   4.212  18.092  0.00  0.00    +0.000 S 
ATOM     25  C   UNL     1      47.905   5.692  18.921  0.00  0.00    +0.000 A 
ATOM     26  N   UNL     1      47.603   5.746  20.244  0.00  0.00    +0.000 NA
ATOM     27  C   UNL     1      47.669   6.927  20.760  0.00  0.00    +0.000 A 
ATOM     28  N   UNL     1      47.950   8.068  20.053  0.00  0.00    +0.000 N 
ATOM     29  C   UNL     1      47.958   8.057  18.686  0.00  0.00    +0.000 A 
ATOM     30  O   UNL     1      47.672   9.078  18.034  0.00  0.00    +0.000 OA
ATOM     31  C   UNL     1      48.170   6.764  18.077  0.00  0.00    +0.000 A 
ATOM     32  H   UNL     1      47.831   8.968  20.495  0.00  0.00    +0.000 HD
ENDBRANCH  20  22
ENDBRANCH  19  20
ENDBRANCH   1  19
TORSDOF 7
ENDMDL
MODEL 5
REMARK VINA RESULT:    -6.973      2.112      2.666
REMARK INTER + INTRA:         -11.385
REMARK INTER:                 -10.367
REMARK INTRA:                  -1.017
REMARK UNBOUND:                -1.558
REMARK  Name = 
REMARK  8 active torsions:
REMARK  status: ('A' for Active; 'I' for Inactive)
REMARK    1  A    between atoms: C_1  and  C_2
REMARK    2  A    between atoms: C_2  and  N_3
REMARK    3  A    between atoms: C_2  and  C_18
REMARK    4  A    between atoms: N_3  and  C_4
REMARK    5  A    between atoms: C_7  and  C_8
REMARK    6  A    between atoms: C_8  and  N_9
REMARK    7  A    between atoms: N_9  and  C_10
REMARK    8  A    between atoms: C_18  and  C_20
REMARK                            x       y       z     vdW  Elec       q    Type
REMARK                         _______ _______ _______ _____ _____    ______ ____
ROOT
ATOM      1  N   UNL     1      47.116   7.071  13.993  0.00  0.00    +0.000 N 
ATOM      2  H   UNL     1      46.705   7.440  14.852  0.00  0.00    +0.000 HD
ENDROOT
BRANCH   1   3
ATOM      3  C   UNL     1      46.255   6.283  13.225  0.00  0.00    +0.000 A 
ATOM      4  C   UNL     1      46.108   4.898  13.401  0.00  0.00    +0.000 A 
ATOM      5  C   UNL     1      45.382   4.123  12.501  0.00  0.00    +0.000 A 
ATOM      6  C   UNL     1      44.706   4.729  11.446  0.00  0.00    +0.000 A 
ATOM      7  C   UNL     1      44.786   6.122  11.305  0.00  0.00    +0.000 A 
ATOM      8  C   UNL     1      45.543   6.889  12.190  0.00  0.00    +0.000 A 
BRANCH   6   9
ATOM      9  C   UNL     1      43.954   3.928  10.424  0.00  0.00    +0.000 C 
BRANCH   9  10
ATOM     10  N   UNL     1      44.549   2.616  10.148  0.00  0.00    +0.000 NA
ATOM     11  H   UNL     1      43.819   2.015   9.764  0.00  0.00    +0.000 HD
BRANCH  10  12
ATOM     12  C   UNL     1      45.660   2.687   9.186  0.00  0.00    +0.000 C 
ATOM     13  C   UNL     1      45.420   3.863   8.222  0.00  0.00    +0.000 C 
ATOM     14  C   UNL     1      46.505   3.943   7.146  0.00  0.00    +0.000 C 
ATOM     15  C   UNL     1      46.642   2.622   6.396  0.00  0.00    +0.000 C 
ATOM     16  C   UNL     1      46.966   1.482   7.353  0.00  0.00    +0.000 C 
ATOM     17  C   UNL     1      45.893   1.366   8.423  0.00  0.00    +0.000 C 
ENDBRANCH  10  12
ENDBRANCH   9  10
ENDBRANCH   6   9
ENDBRANCH   1   3
BRANCH   1  19
ATOM     18  C   UNL     1      49.206   7.050  12.782  0.00  0.00    +0.000 C 
ATOM     19  C   UNL     1      48.542   6.675  14.108  0.00  0.00    +0.000 C 
BRANCH  19  20
ATOM     20  C   UNL     1      49.156   7.169  15.454  0.00  0.00    +0.000 C 
ATOM     21  O   UNL     1      48.484   7.919  16.178  0.00  0.00    +0.000 OA
BRANCH  20  22
ATOM     22  C   UNL     1      50.453   6.695  16.004  0.00  0.00    +0.000 A 
ATOM     23  C   UNL     1      51.602   7.406  15.670  0.00  0.00    +0.000 A 
ATOM     24  S   UNL     1      53.002   6.919  16.504  0.00  0.00    +0.000 S 
ATOM     25  C   UNL     1      52.138   5.726  17.345  0.00  0.00    +0.000 A 
ATOM     26  N   UNL     1      52.743   4.964  18.292  0.00  0.00    +0.000 NA
ATOM     27  C   UNL     1      51.961   4.126  18.884  0.00  0.00    +0.000 A 
ATOM     28  N   UNL     1      50.639   3.940  18.569  0.00  0.00    +0.000 N 
ATOM     29  C   UNL     1      50.112   4.484  17.430  0.00  0.00    +0.000 A 
ATOM     30  O   UNL     1      49.160   3.942  16.841  0.00  0.00    +0.000 OA
ATOM     31  C   UNL     1      50.825   5.623  16.899  0.00  0.00    +0.000 A 
ATOM     32  H   UNL     1      50.137   3.161  18.969  0.00  0.00    +0.000 HD
ENDBRANCH  20  22
ENDBRANCH  19  20
ENDBRANCH   1  19
TORSDOF 7
ENDMDL
MODEL 6
REMARK VINA RESULT:    -6.911      2.862      3.934
REMARK INTER + INTRA:         -11.297
REMARK INTER:                 -10.891
REMARK INTRA:                  -0.407
REMARK UNBOUND:                -1.558
REMARK  Name = 
REMARK  8 active torsions:
REMARK  status: ('A' for Active; 'I' for Inactive)
REMARK    1  A    between atoms: C_1  and  C_2
REMARK    2  A    between atoms: C_2  and  N_3
REMARK    3  A    between atoms: C_2  and  C_18
REMARK    4  A    between atoms: N_3  and  C_4
REMARK    5  A    between atoms: C_7  and  C_8
REMARK    6  A    between atoms: C_8  and  N_9
REMARK    7  A    between atoms: N_9  and  C_10
REMARK    8  A    between atoms: C_18  and  C_20
REMARK                            x       y       z     vdW  Elec       q    Type
REMARK                         _______ _______ _______ _____ _____    ______ ____
ROOT
ATOM      1  N   UNL     1      47.749   5.566  15.613  0.00  0.00    +0.000 N 
ATOM      2  H   UNL     1      47.527   6.400  16.159  0.00  0.00    +0.000 HD
ENDROOT
BRANCH   1   3
ATOM      3  C   UNL     1      47.310   5.600  14.288  0.00  0.00    +0.000 A 
ATOM      4  C   UNL     1      47.937   6.351  13.282  0.00  0.00    +0.000 A 
ATOM      5  C   UNL     1      47.365   6.503  12.022  0.00  0.00    +0.000 A 
ATOM      6  C   UNL     1      46.189   5.829  11.705  0.00  0.00    +0.000 A 
ATOM      7  C   UNL     1      45.593   5.015  12.680  0.00  0.00    +0.000 A 
ATOM      8  C   UNL     1      46.154   4.895  13.951  0.00  0.00    +0.000 A 
BRANCH   6   9
ATOM      9  C   UNL     1      45.511   6.003  10.378  0.00  0.00    +0.000 C 
BRANCH   9  10
ATOM     10  N   UNL     1      44.353   5.124  10.186  0.00  0.00    +0.000 NA
ATOM     11  H   UNL     1      43.564   5.703   9.895  0.00  0.00    +0.000 HD
BRANCH  10  12
ATOM     12  C   UNL     1      44.586   4.091   9.163  0.00  0.00    +0.000 C 
ATOM     13  C   UNL     1      44.708   2.718   9.850  0.00  0.00    +0.000 C 
ATOM     14  C   UNL     1      45.029   1.610   8.845  0.00  0.00    +0.000 C 
ATOM     15  C   UNL     1      46.275   1.943   8.031  0.00  0.00    +0.000 C 
ATOM     16  C   UNL     1      46.106   3.262   7.288  0.00  0.00    +0.000 C 
ATOM     17  C   UNL     1      45.805   4.386   8.265  0.00  0.00    +0.000 C 
ENDBRANCH  10  12
ENDBRANCH   9  10
ENDBRANCH   6   9
ENDBRANCH   1   3
BRANCH   1  19
ATOM     18  C   UNL     1      47.828   3.166  15.344  0.00  0.00    +0.000 C 
ATOM     19  C   UNL     1      47.661   4.290  16.367  0.00  0.00    +0.000 C 
BRANCH  19  20
ATOM     20  C   UNL     1      48.562   4.326  17.640  0.00  0.00    +0.000 C 
ATOM     21  O   UNL     1      48.029   4.215  18.753  0.00  0.00    +0.000 OA
BRANCH  20  22
ATOM     22  C   UNL     1      50.049   4.352  17.610  0.00  0.00    +0.000 A 
ATOM     23  C   UNL     1      50.679   5.593  17.586  0.00  0.00    +0.000 A 
ATOM     24  S   UNL     1      52.369   5.529  17.761  0.00  0.00    +0.000 S 
ATOM     25  C   UNL     1      52.338   3.837  17.867  0.00  0.00    +0.000 A 
ATOM     26  N   UNL     1      53.477   3.131  18.090  0.00  0.00    +0.000 NA
ATOM     27  C   UNL     1      53.305   1.856  18.191  0.00  0.00    +0.000 A 
ATOM     28  N   UNL     1      52.101   1.219  18.027  0.00  0.00    +0.000 N 
ATOM     29  C   UNL     1      51.024   1.887  17.513  0.00  0.00    +0.000 A 
ATOM     30  O   UNL     1      50.145   1.287  16.868  0.00  0.00    +0.000 OA
ATOM     31  C   UNL     1      51.065   3.325  17.645  0.00  0.00    +0.000 A 
ATOM     32  H   UNL     1      52.076   0.212  17.968  0.00  0.00    +0.000 HD
ENDBRANCH  20  22
ENDBRANCH  19  20
ENDBRANCH   1  19
TORSDOF 7
ENDMDL
MODEL 7
REMARK VINA RESULT:    -6.720      2.937      5.053
REMARK INTER + INTRA:         -11.029
REMARK INTER:                  -9.742
REMARK INTRA:                  -1.287
REMARK UNBOUND:                -1.558
REMARK  Name = 
REMARK  8 active torsions:
REMARK  status: ('A' for Active; 'I' for Inactive)
REMARK    1  A    between atoms: C_1  and  C_2
REMARK    2  A    between atoms: C_2  and  N_3
REMARK    3  A    between atoms: C_2  and  C_18
REMARK    4  A    between atoms: N_3  and  C_4
REMARK    5  A    between atoms: C_7  and  C_8
REMARK    6  A    between atoms: C_8  and  N_9
REMARK    7  A    between atoms: N_9  and  C_10
REMARK    8  A    between atoms: C_18  and  C_20
REMARK                            x       y       z     vdW  Elec       q    Type
REMARK                         _______ _______ _______ _____ _____    ______ ____
ROOT
ATOM      1  N   UNL     1      48.228   6.937  13.705  0.00  0.00    +0.000 N 
ATOM      2  H   UNL     1      49.209   6.702  13.547  0.00  0.00    +0.000 HD
ENDROOT
BRANCH   1   3
ATOM      3  C   UNL     1      47.321   6.233  12.910  0.00  0.00    +0.000 A 
ATOM      4  C   UNL     1      47.022   6.578  11.583  0.00  0.00    +0.000 A 
ATOM      5  C   UNL     1      45.983   5.966  10.887  0.00  0.00    +0.000 A 
ATOM      6  C   UNL     1      45.271   4.924  11.473  0.00  0.00    +0.000 A 
ATOM      7  C   UNL     1      45.612   4.520  12.772  0.00  0.00    +0.000 A 
ATOM      8  C   UNL     1      46.630   5.161  13.476  0.00  0.00    +0.000 A 
BRANCH   6   9
ATOM      9  C   UNL     1      44.112   4.270  10.779  0.00  0.00    +0.000 C 
BRANCH   9  10
ATOM     10  N   UNL     1      43.996   4.625   9.361  0.00  0.00    +0.000 NA
ATOM     11  H   UNL     1      44.490   5.506   9.216  0.00  0.00    +0.000 HD
BRANCH  10  12
ATOM     12  C   UNL     1      44.573   3.605   8.471  0.00  0.00    +0.000 C 
ATOM     13  C   UNL     1      44.817   2.313   9.273  0.00  0.00    +0.000 C 
ATOM     14  C   UNL     1      45.489   1.236   8.419  0.00  0.00    +0.000 C 
ATOM     15  C   UNL     1      46.776   1.753   7.785  0.00  0.00    +0.000 C 
ATOM     16  C   UNL     1      46.506   2.981   6.925  0.00  0.00    +0.000 C 
ATOM     17  C   UNL     1      45.854   4.076   7.752  0.00  0.00    +0.000 C 
ENDBRANCH  10  12
ENDBRANCH   9  10
ENDBRANCH   6   9
ENDBRANCH   1   3
BRANCH   1  19
ATOM     18  C   UNL     1      48.400   8.614  15.436  0.00  0.00    +0.000 C 
ATOM     19  C   UNL     1      47.972   8.372  13.988  0.00  0.00    +0.000 C 
BRANCH  19  20
ATOM     20  C   UNL     1      48.531   9.278  12.848  0.00  0.00    +0.000 C 
ATOM     21  O   UNL     1      49.624   8.990  12.338  0.00  0.00    +0.000 OA
BRANCH  20  22
ATOM     22  C   UNL     1      47.779  10.401  12.229  0.00  0.00    +0.000 A 
ATOM     23  C   UNL     1      48.469  11.580  11.963  0.00  0.00    +0.000 A 
ATOM     24  S   UNL     1      47.587  12.728  11.071  0.00  0.00    +0.000 S 
ATOM     25  C   UNL     1      46.236  11.705  11.007  0.00  0.00    +0.000 A 
ATOM     26  N   UNL     1      45.122  12.064  10.318  0.00  0.00    +0.000 NA
ATOM     27  C   UNL     1      44.186  11.174  10.316  0.00  0.00    +0.000 A 
ATOM     28  N   UNL     1      44.243   9.983  10.993  0.00  0.00    +0.000 N 
ATOM     29  C   UNL     1      45.225   9.754  11.917  0.00  0.00    +0.000 A 
ATOM     30  O   UNL     1      45.030   8.999  12.887  0.00  0.00    +0.000 OA
ATOM     31  C   UNL     1      46.419  10.554  11.766  0.00  0.00    +0.000 A 
ATOM     32  H   UNL     1      43.414   9.414  11.067  0.00  0.00    +0.000 HD
ENDBRANCH  20  22
ENDBRANCH  19  20
ENDBRANCH   1  19
TORSDOF 7
ENDMDL
MODEL 8
REMARK VINA RESULT:    -6.631      2.923      3.709
REMARK INTER + INTRA:         -10.903
REMARK INTER:                  -9.729
REMARK INTRA:                  -1.174
REMARK UNBOUND:                -1.558
REMARK  Name = 
REMARK  8 active torsions:
REMARK  status: ('A' for Active; 'I' for Inactive)
REMARK    1  A    between atoms: C_1  and  C_2
REMARK    2  A    between atoms: C_2  and  N_3
REMARK    3  A    between atoms: C_2  and  C_18
REMARK    4  A    between atoms: N_3  and  C_4
REMARK    5  A    between atoms: C_7  and  C_8
REMARK    6  A    between atoms: C_8  and  N_9
REMARK    7  A    between atoms: N_9  and  C_10
REMARK    8  A    between atoms: C_18  and  C_20
REMARK                            x       y       z     vdW  Elec       q    Type
REMARK                         _______ _______ _______ _____ _____    ______ ____
ROOT
ATOM      1  N   UNL     1      48.367   7.501  15.364  0.00  0.00    +0.000 N 
ATOM      2  H   UNL     1      47.821   7.591  16.222  0.00  0.00    +0.000 HD
ENDROOT
BRANCH   1   3
ATOM      3  C   UNL     1      47.626   7.153  14.232  0.00  0.00    +0.000 A 
ATOM      4  C   UNL     1      47.296   5.830  13.899  0.00  0.00    +0.000 A 
ATOM      5  C   UNL     1      46.718   5.510  12.674  0.00  0.00    +0.000 A 
ATOM      6  C   UNL     1      46.369   6.520  11.783  0.00  0.00    +0.000 A 
ATOM      7  C   UNL     1      46.627   7.852  12.138  0.00  0.00    +0.000 A 
ATOM      8  C   UNL     1      47.239   8.163  13.352  0.00  0.00    +0.000 A 
BRANCH   6   9
ATOM      9  C   UNL     1      45.790   6.218  10.432  0.00  0.00    +0.000 C 
BRANCH   9  10
ATOM     10  N   UNL     1      44.651   5.296  10.470  0.00  0.00    +0.000 NA
ATOM     11  H   UNL     1      43.798   5.847  10.361  0.00  0.00    +0.000 HD
BRANCH  10  12
ATOM     12  C   UNL     1      44.702   4.284   9.402  0.00  0.00    +0.000 C 
ATOM     13  C   UNL     1      44.764   2.883  10.038  0.00  0.00    +0.000 C 
ATOM     14  C   UNL     1      44.897   1.788   8.977  0.00  0.00    +0.000 C 
ATOM     15  C   UNL     1      46.090   2.042   8.062  0.00  0.00    +0.000 C 
ATOM     16  C   UNL     1      45.971   3.396   7.374  0.00  0.00    +0.000 C 
ATOM     17  C   UNL     1      45.856   4.507   8.405  0.00  0.00    +0.000 C 
ENDBRANCH  10  12
ENDBRANCH   9  10
ENDBRANCH   6   9
ENDBRANCH   1   3
BRANCH   1  19
ATOM     18  C   UNL     1      50.722   7.997  15.147  0.00  0.00    +0.000 C 
ATOM     19  C   UNL     1      49.718   6.915  15.547  0.00  0.00    +0.000 C 
BRANCH  19  20
ATOM     20  C   UNL     1      49.842   6.211  16.934  0.00  0.00    +0.000 C 
ATOM     21  O   UNL     1      49.934   6.911  17.953  0.00  0.00    +0.000 OA
BRANCH  20  22
ATOM     22  C   UNL     1      49.725   4.743  17.139  0.00  0.00    +0.000 A 
ATOM     23  C   UNL     1      48.481   4.153  16.931  0.00  0.00    +0.000 A 
ATOM     24  S   UNL     1      48.488   2.454  16.986  0.00  0.00    +0.000 S 
ATOM     25  C   UNL     1      50.154   2.427  17.301  0.00  0.00    +0.000 A 
ATOM     26  N   UNL     1      50.826   1.251  17.402  0.00  0.00    +0.000 NA
ATOM     27  C   UNL     1      52.096   1.377  17.600  0.00  0.00    +0.000 A 
ATOM     28  N   UNL     1      52.742   2.574  17.767  0.00  0.00    +0.000 N 
ATOM     29  C   UNL     1      52.032   3.727  17.963  0.00  0.00    +0.000 A 
ATOM     30  O   UNL     1      52.507   4.668  18.624  0.00  0.00    +0.000 OA
ATOM     31  C   UNL     1      50.669   3.706  17.484  0.00  0.00    +0.000 A 
ATOM     32  H   UNL     1      53.704   2.582  18.071  0.00  0.00    +0.000 HD
ENDBRANCH  20  22
ENDBRANCH  19  20
ENDBRANCH   1  19
TORSDOF 7
ENDMDL
MODEL 9
REMARK VINA RESULT:    -6.394      2.014      3.479
REMARK INTER + INTRA:         -10.568
REMARK INTER:                  -9.451
REMARK INTRA:                  -1.117
REMARK UNBOUND:                -1.558
REMARK  Name = 
REMARK  8 active torsions:
REMARK  status: ('A' for Active; 'I' for Inactive)
REMARK    1  A    between atoms: C_1  and  C_2
REMARK    2  A    between atoms: C_2  and  N_3
REMARK    3  A    between atoms: C_2  and  C_18
REMARK    4  A    between atoms: N_3  and  C_4
REMARK    5  A    between atoms: C_7  and  C_8
REMARK    6  A    between atoms: C_8  and  N_9
REMARK    7  A    between atoms: N_9  and  C_10
REMARK    8  A    between atoms: C_18  and  C_20
REMARK                            x       y       z     vdW  Elec       q    Type
REMARK                         _______ _______ _______ _____ _____    ______ ____
ROOT
ATOM      1  N   UNL     1      46.970   5.338  15.163  0.00  0.00    +0.000 N 
ATOM      2  H   UNL     1      46.505   6.062  15.712  0.00  0.00    +0.000 HD
ENDROOT
BRANCH   1   3
ATOM      3  C   UNL     1      46.638   5.328  13.806  0.00  0.00    +0.000 A 
ATOM      4  C   UNL     1      47.231   6.174  12.857  0.00  0.00    +0.000 A 
ATOM      5  C   UNL     1      46.745   6.261  11.555  0.00  0.00    +0.000 A 
ATOM      6  C   UNL     1      45.705   5.433  11.142  0.00  0.00    +0.000 A 
ATOM      7  C   UNL     1      45.155   4.530  12.063  0.00  0.00    +0.000 A 
ATOM      8  C   UNL     1      45.623   4.473  13.376  0.00  0.00    +0.000 A 
BRANCH   6   9
ATOM      9  C   UNL     1      45.118   5.529   9.764  0.00  0.00    +0.000 C 
BRANCH   9  10
ATOM     10  N   UNL     1      44.224   4.417   9.425  0.00  0.00    +0.000 NA
ATOM     11  H   UNL     1      43.367   4.811   9.035  0.00  0.00    +0.000 HD
BRANCH  10  12
ATOM     12  C   UNL     1      44.813   3.495   8.441  0.00  0.00    +0.000 C 
ATOM     13  C   UNL     1      45.206   2.185   9.149  0.00  0.00    +0.000 C 
ATOM     14  C   UNL     1      45.896   1.211   8.192  0.00  0.00    +0.000 C 
ATOM     15  C   UNL     1      47.094   1.860   7.507  0.00  0.00    +0.000 C 
ATOM     16  C   UNL     1      46.675   3.107   6.739  0.00  0.00    +0.000 C 
ATOM     17  C   UNL     1      46.002   4.102   7.670  0.00  0.00    +0.000 C 
ENDBRANCH  10  12
ENDBRANCH   9  10
ENDBRANCH   6   9
ENDBRANCH   1   3
BRANCH   1  19
ATOM     18  C   UNL     1      47.855   3.106  14.887  0.00  0.00    +0.000 C 
ATOM     19  C   UNL     1      47.150   4.044  15.868  0.00  0.00    +0.000 C 
BRANCH  19  20
ATOM     20  C   UNL     1      47.736   4.260  17.298  0.00  0.00    +0.000 C 
ATOM     21  O   UNL     1      48.106   3.271  17.947  0.00  0.00    +0.000 OA
BRANCH  20  22
ATOM     22  C   UNL     1      48.009   5.593  17.896  0.00  0.00    +0.000 A 
ATOM     23  C   UNL     1      47.223   5.999  18.971  0.00  0.00    +0.000 A 
ATOM     24  S   UNL     1      47.738   7.437  19.718  0.00  0.00    +0.000 S 
ATOM     25  C   UNL     1      49.031   7.591  18.631  0.00  0.00    +0.000 A 
ATOM     26  N   UNL     1      49.928   8.603  18.753  0.00  0.00    +0.000 NA
ATOM     27  C   UNL     1      50.885   8.576  17.887  0.00  0.00    +0.000 A 
ATOM     28  N   UNL     1      50.989   7.660  16.872  0.00  0.00    +0.000 N 
ATOM     29  C   UNL     1      49.941   6.834  16.568  0.00  0.00    +0.000 A 
ATOM     30  O   UNL     1      49.771   6.412  15.410  0.00  0.00    +0.000 OA
ATOM     31  C   UNL     1      48.991   6.621  17.635  0.00  0.00    +0.000 A 
ATOM     32  H   UNL     1      51.677   7.798  16.146  0.00  0.00    +0.000 HD
ENDBRANCH  20  22
ENDBRANCH  19  20
ENDBRANCH   1  19
TORSDOF 7
ENDMDL
