MODEL 1
REMARK VINA RESULT:    -7.918      0.000      0.000
REMARK INTER + INTRA:         -11.903
REMARK INTER:                 -11.158
REMARK INTRA:                  -0.744
REMARK UNBOUND:                -0.744
REMARK  Name = 
REMARK  8 active torsions:
REMARK  status: ('A' for Active; 'I' for Inactive)
REMARK    1  A    between atoms: C_1  and  N_2
REMARK    2  A    between atoms: N_2  and  C_3
REMARK    3  A    between atoms: N_2  and  C_24
REMARK    4  A    between atoms: C_3  and  C_4
REMARK    5  A    between atoms: C_7  and  C_8
REMARK    6  A    between atoms: C_8  and  N_9
REMARK    7  A    between atoms: C_10  and  C_12
REMARK    8  A    between atoms: C_24  and  C_25
REMARK                            x       y       z     vdW  Elec       q    Type
REMARK                         _______ _______ _______ _____ _____    ______ ____
ROOT
ATOM      1  C   UNL     1      44.633   5.258  10.804  0.00  0.00    +0.000 A 
ATOM      2  C   UNL     1      44.231   5.546  12.114  0.00  0.00    +0.000 A 
ATOM      3  C   UNL     1      44.990   6.400  12.922  0.00  0.00    +0.000 A 
ATOM      4  C   UNL     1      46.149   7.008  12.422  0.00  0.00    +0.000 A 
ATOM      5  C   UNL     1      46.603   6.645  11.148  0.00  0.00    +0.000 A 
ATOM      6  C   UNL     1      45.859   5.770  10.353  0.00  0.00    +0.000 A 
ENDROOT
BRANCH   1   7
ATOM      7  C   UNL     1      43.729   4.473   9.870  0.00  0.00    +0.000 C 
BRANCH   7   9
ATOM      8  C   UNL     1      43.551   2.544  11.285  0.00  0.00    +0.000 C 
ATOM      9  N   UNL     1      43.906   2.994   9.934  0.00  0.00    +0.000 NA
BRANCH   9  10
ATOM     10  C   UNL     1      45.288   2.600   9.598  0.00  0.00    +0.000 C 
BRANCH  10  11
ATOM     11  C   UNL     1      45.647   2.388   8.104  0.00  0.00    +0.000 C 
ATOM     12  C   UNL     1      46.597   1.178   8.005  0.00  0.00    +0.000 C 
ATOM     13  C   UNL     1      47.107   0.978   6.589  0.00  0.00    +0.000 C 
ATOM     14  O   UNL     1      47.743   2.162   6.118  0.00  0.00    +0.000 OA
ATOM     15  C   UNL     1      46.830   3.256   6.039  0.00  0.00    +0.000 C 
ATOM     16  C   UNL     1      46.273   3.614   7.418  0.00  0.00    +0.000 C 
ENDBRANCH  10  11
ENDBRANCH   9  10
ENDBRANCH   7   9
ENDBRANCH   1   7
BRANCH   4  17
ATOM     17  C   UNL     1      46.900   8.041  13.223  0.00  0.00    +0.000 C 
BRANCH  17  18
ATOM     18  N   UNL     1      47.381   7.496  14.463  0.00  0.00    +0.000 N 
ATOM     19  C   UNL     1      48.525   6.743  14.521  0.00  0.00    +0.000 C 
ATOM     20  O   UNL     1      49.222   6.522  13.538  0.00  0.00    +0.000 OA
ATOM     21  H   UNL     1      46.709   7.445  15.220  0.00  0.00    +0.000 HD
BRANCH  19  22
ATOM     22  C   UNL     1      48.907   6.284  15.860  0.00  0.00    +0.000 A 
ATOM     23  C   UNL     1      49.802   7.025  16.619  0.00  0.00    +0.000 A 
ATOM     24  S   UNL     1      50.055   6.389  18.181  0.00  0.00    +0.000 S 
ATOM     25  C   UNL     1      49.030   5.065  17.869  0.00  0.00    +0.000 A 
ATOM     26  N   UNL     1      48.818   4.105  18.808  0.00  0.00    +0.000 NA
ATOM     27  C   UNL     1      48.046   3.145  18.427  0.00  0.00    +0.000 A 
ATOM     28  N   UNL     1      47.459   3.058  17.187  0.00  0.00    +0.000 N 
ATOM     29  C   UNL     1      47.610   4.026  16.225  0.00  0.00    +0.000 A 
ATOM     30  O   UNL     1      47.017   3.950  15.151  0.00  0.00    +0.000 OA
ATOM     31  C   UNL     1      48.485   5.119  16.603  0.00  0.00    +0.000 A 
ATOM     32  H   UNL     1      46.848   2.292  16.955  0.00  0.00    +0.000 HD
ENDBRANCH  19  22
ENDBRANCH  17  18
ENDBRANCH   4  17
TORSDOF 7
ENDMDL
MODEL 2
REMARK VINA RESULT:    -7.619      2.812      8.226
REMARK INTER + INTRA:         -11.482
REMARK INTER:                 -10.105
REMARK INTRA:                  -1.377
REMARK UNBOUND:                -0.744
REMARK  Name = 
REMARK  8 active torsions:
REMARK  status: ('A' for Active; 'I' for Inactive)
REMARK    1  A    between atoms: C_1  and  N_2
REMARK    2  A    between atoms: N_2  and  C_3
REMARK    3  A    between atoms: N_2  and  C_24
REMARK    4  A    between atoms: C_3  and  C_4
REMARK    5  A    between atoms: C_7  and  C_8
REMARK    6  A    between atoms: C_8  and  N_9
REMARK    7  A    between atoms: C_10  and  C_12
REMARK    8  A    between atoms: C_24  and  C_25
REMARK                            x       y       z     vdW  Elec       q    Type
REMARK                         _______ _______ _______ _____ _____    ______ ____
ROOT
ATOM      1  C   UNL     1      49.020   7.989  15.927  0.00  0.00    +0.000 A 
ATOM      2  C   UNL     1      48.220   9.022  15.422  0.00  0.00    +0.000 A 
ATOM      3  C   UNL     1      47.780   8.999  14.094  0.00  0.00    +0.000 A 
ATOM      4  C   UNL     1      48.107   7.925  13.255  0.00  0.00    +0.000 A 
ATOM      5  C   UNL     1      48.985   6.944  13.730  0.00  0.00    +0.000 A 
ATOM      6  C   UNL     1      49.446   6.982  15.047  0.00  0.00    +0.000 A 
ENDROOT
BRANCH   1   7
ATOM      7  C   UNL     1      49.356   7.921  17.406  0.00  0.00    +0.000 C 
BRANCH   7   9
ATOM      8  C   UNL     1      48.359   7.104  19.429  0.00  0.00    +0.000 C 
ATOM      9  N   UNL     1      48.845   6.706  18.103  0.00  0.00    +0.000 NA
BRANCH   9  10
ATOM     10  C   UNL     1      49.890   5.670  18.220  0.00  0.00    +0.000 C 
BRANCH  10  11
ATOM     11  C   UNL     1      49.492   4.195  17.952  0.00  0.00    +0.000 C 
ATOM     12  C   UNL     1      50.755   3.429  17.512  0.00  0.00    +0.000 C 
ATOM     13  C   UNL     1      50.433   2.003  17.100  0.00  0.00    +0.000 C 
ATOM     14  O   UNL     1      49.451   1.995  16.069  0.00  0.00    +0.000 OA
ATOM     15  C   UNL     1      48.212   2.547  16.515  0.00  0.00    +0.000 C 
ATOM     16  C   UNL     1      48.372   4.015  16.913  0.00  0.00    +0.000 C 
ENDBRANCH  10  11
ENDBRANCH   9  10
ENDBRANCH   7   9
ENDBRANCH   1   7
BRANCH   4  17
ATOM     17  C   UNL     1      47.525   7.808  11.869  0.00  0.00    +0.000 C 
BRANCH  17  18
ATOM     18  N   UNL     1      46.838   6.558  11.692  0.00  0.00    +0.000 N 
ATOM     19  C   UNL     1      45.471   6.493  11.629  0.00  0.00    +0.000 C 
ATOM     20  O   UNL     1      44.758   7.489  11.682  0.00  0.00    +0.000 OA
ATOM     21  H   UNL     1      47.370   5.721  11.900  0.00  0.00    +0.000 HD
BRANCH  19  22
ATOM     22  C   UNL     1      44.916   5.154  11.412  0.00  0.00    +0.000 A 
ATOM     23  C   UNL     1      44.216   4.519  12.429  0.00  0.00    +0.000 A 
ATOM     24  S   UNL     1      43.566   3.011  11.965  0.00  0.00    +0.000 S 
ATOM     25  C   UNL     1      44.257   3.128  10.414  0.00  0.00    +0.000 A 
ATOM     26  N   UNL     1      44.098   2.135   9.498  0.00  0.00    +0.000 NA
ATOM     27  C   UNL     1      44.702   2.339   8.376  0.00  0.00    +0.000 A 
ATOM     28  N   UNL     1      45.450   3.453   8.083  0.00  0.00    +0.000 N 
ATOM     29  C   UNL     1      45.601   4.499   8.960  0.00  0.00    +0.000 A 
ATOM     30  O   UNL     1      46.221   5.510   8.640  0.00  0.00    +0.000 OA
ATOM     31  C   UNL     1      44.953   4.306  10.243  0.00  0.00    +0.000 A 
ATOM     32  H   UNL     1      45.882   3.565   7.179  0.00  0.00    +0.000 HD
ENDBRANCH  19  22
ENDBRANCH  17  18
ENDBRANCH   4  17
TORSDOF 7
ENDMDL
MODEL 3
REMARK VINA RESULT:    -7.559      1.447      1.641
REMARK INTER + INTRA:         -11.397
REMARK INTER:                 -10.666
REMARK INTRA:                  -0.731
REMARK UNBOUND:                -0.744
REMARK  Name = 
REMARK  8 active torsions:
REMARK  status: ('A' for Active; 'I' for Inactive)
REMARK    1  A    between atoms: C_1  and  N_2
REMARK    2  A    between atoms: N_2  and  C_3
REMARK    3  A    between atoms: N_2  and  C_24
REMARK    4  A    between atoms: C_3  and  C_4
REMARK    5  A    between atoms: C_7  and  C_8
REMARK    6  A    between atoms: C_8  and  N_9
REMARK    7  A    between atoms: C_10  and  C_12
REMARK    8  A    between atoms: C_24  and  C_25
REMARK                            x       y       z     vdW  Elec       q    Type
REMARK                         _______ _______ _______ _____ _____    ______ ____
ROOT
ATOM      1  C   UNL     1      45.041   5.196  11.407  0.00  0.00    +0.000 A 
ATOM      2  C   UNL     1      45.425   4.750  12.678  0.00  0.00    +0.000 A 
ATOM      3  C   UNL     1      46.535   5.305  13.324  0.00  0.00    +0.000 A 
ATOM      4  C   UNL     1      47.264   6.340  12.722  0.00  0.00    +0.000 A 
ATOM      5  C   UNL     1      46.940   6.717  11.413  0.00  0.00    +0.000 A 
ATOM      6  C   UNL     1      45.848   6.143  10.758  0.00  0.00    +0.000 A 
ENDROOT
BRANCH   1   7
ATOM      7  C   UNL     1      43.743   4.721  10.777  0.00  0.00    +0.000 C 
BRANCH   7   9
ATOM      8  C   UNL     1      43.217   2.511  11.547  0.00  0.00    +0.000 C 
ATOM      9  N   UNL     1      43.727   3.277  10.405  0.00  0.00    +0.000 NA
BRANCH   9  10
ATOM     10  C   UNL     1      45.070   2.804  10.017  0.00  0.00    +0.000 C 
BRANCH  10  11
ATOM     11  C   UNL     1      45.391   2.673   8.505  0.00  0.00    +0.000 C 
ATOM     12  C   UNL     1      46.278   1.428   8.309  0.00  0.00    +0.000 C 
ATOM     13  C   UNL     1      46.752   1.295   6.872  0.00  0.00    +0.000 C 
ATOM     14  O   UNL     1      47.439   2.476   6.466  0.00  0.00    +0.000 OA
ATOM     15  C   UNL     1      46.580   3.616   6.476  0.00  0.00    +0.000 C 
ATOM     16  C   UNL     1      46.066   3.909   7.886  0.00  0.00    +0.000 C 
ENDBRANCH  10  11
ENDBRANCH   9  10
ENDBRANCH   7   9
ENDBRANCH   1   7
BRANCH   4  17
ATOM     17  C   UNL     1      48.371   7.050  13.458  0.00  0.00    +0.000 C 
BRANCH  17  18
ATOM     18  N   UNL     1      48.159   7.020  14.879  0.00  0.00    +0.000 N 
ATOM     19  C   UNL     1      49.200   6.860  15.757  0.00  0.00    +0.000 C 
ATOM     20  O   UNL     1      50.366   6.772  15.391  0.00  0.00    +0.000 OA
ATOM     21  H   UNL     1      47.211   6.835  15.188  0.00  0.00    +0.000 HD
BRANCH  19  22
ATOM     22  C   UNL     1      48.833   6.883  17.176  0.00  0.00    +0.000 A 
ATOM     23  C   UNL     1      48.372   8.057  17.756  0.00  0.00    +0.000 A 
ATOM     24  S   UNL     1      47.907   7.871  19.386  0.00  0.00    +0.000 S 
ATOM     25  C   UNL     1      48.370   6.233  19.390  0.00  0.00    +0.000 A 
ATOM     26  N   UNL     1      48.249   5.472  20.511  0.00  0.00    +0.000 NA
ATOM     27  C   UNL     1      48.668   4.258  20.381  0.00  0.00    +0.000 A 
ATOM     28  N   UNL     1      49.194   3.732  19.227  0.00  0.00    +0.000 N 
ATOM     29  C   UNL     1      49.293   4.450  18.060  0.00  0.00    +0.000 A 
ATOM     30  O   UNL     1      49.707   3.928  17.028  0.00  0.00    +0.000 OA
ATOM     31  C   UNL     1      48.851   5.827  18.163  0.00  0.00    +0.000 A 
ATOM     32  H   UNL     1      49.485   2.768  19.181  0.00  0.00    +0.000 HD
ENDBRANCH  19  22
ENDBRANCH  17  18
ENDBRANCH   4  17
TORSDOF 7
ENDMDL
MODEL 4
REMARK VINA RESULT:    -7.502      3.410      8.069
REMARK INTER + INTRA:         -11.317
REMARK INTER:                  -9.968
REMARK INTRA:                  -1.349
REMARK UNBOUND:                -0.744
REMARK  Name = 
REMARK  8 active torsions:
REMARK  status: ('A' for Active; 'I' for Inactive)
REMARK    1  A    between atoms: C_1  and  N_2
REMARK    2  A    between atoms: N_2  and  C_3
REMARK    3  A    between atoms: N_2  and  C_24
REMARK    4  A    between atoms: C_3  and  C_4
REMARK    5  A    between atoms: C_7  and  C_8
REMARK    6  A    between atoms: C_8  and  N_9
REMARK    7  A    between atoms: C_10  and  C_12
REMARK    8  A    between atoms: C_24  and  C_25
REMARK                            x       y       z     vdW  Elec       q    Type
REMARK                         _______ _______ _______ _____ _____    ______ ____
ROOT
ATOM      1  C   UNL     1      49.963   7.091  15.992  0.00  0.00    +0.000 A 
ATOM      2  C   UNL     1      50.760   7.766  15.058  0.00  0.00    +0.000 A 
ATOM      3  C   UNL     1      50.297   7.995  13.757  0.00  0.00    +0.000 A 
ATOM      4  C   UNL     1      49.014   7.579  13.376  0.00  0.00    +0.000 A 
ATOM      5  C   UNL     1      48.258   6.821  14.277  0.00  0.00    +0.000 A 
ATOM      6  C   UNL     1      48.731   6.569  15.566  0.00  0.00    +0.000 A 
ENDROOT
BRANCH   1   7
ATOM      7  C   UNL     1      50.387   6.991  17.446  0.00  0.00    +0.000 C 
BRANCH   7   9
ATOM      8  C   UNL     1      48.931   7.134  19.348  0.00  0.00    +0.000 C 
ATOM      9  N   UNL     1      49.446   6.227  18.315  0.00  0.00    +0.000 NA
BRANCH   9  10
ATOM     10  C   UNL     1      50.107   5.058  18.929  0.00  0.00    +0.000 C 
BRANCH  10  11
ATOM     11  C   UNL     1      49.804   3.655  18.342  0.00  0.00    +0.000 C 
ATOM     12  C   UNL     1      51.093   3.118  17.691  0.00  0.00    +0.000 C 
ATOM     13  C   UNL     1      50.855   1.802  16.972  0.00  0.00    +0.000 C 
ATOM     14  O   UNL     1      49.821   1.946  16.003  0.00  0.00    +0.000 OA
ATOM     15  C   UNL     1      48.572   2.276  16.609  0.00  0.00    +0.000 C 
ATOM     16  C   UNL     1      48.645   3.623  17.330  0.00  0.00    +0.000 C 
ENDBRANCH  10  11
ENDBRANCH   9  10
ENDBRANCH   7   9
ENDBRANCH   1   7
BRANCH   4  17
ATOM     17  C   UNL     1      48.441   7.942  12.029  0.00  0.00    +0.000 C 
BRANCH  17  18
ATOM     18  N   UNL     1      47.678   6.857  11.475  0.00  0.00    +0.000 N 
ATOM     19  C   UNL     1      46.312   6.917  11.377  0.00  0.00    +0.000 C 
ATOM     20  O   UNL     1      45.668   7.902  11.716  0.00  0.00    +0.000 OA
ATOM     21  H   UNL     1      48.144   5.958  11.429  0.00  0.00    +0.000 HD
BRANCH  19  22
ATOM     22  C   UNL     1      45.676   5.750  10.759  0.00  0.00    +0.000 A 
ATOM     23  C   UNL     1      45.820   5.519   9.398  0.00  0.00    +0.000 A 
ATOM     24  S   UNL     1      45.091   4.068   8.876  0.00  0.00    +0.000 S 
ATOM     25  C   UNL     1      44.500   3.737  10.438  0.00  0.00    +0.000 A 
ATOM     26  N   UNL     1      43.756   2.626  10.687  0.00  0.00    +0.000 NA
ATOM     27  C   UNL     1      43.347   2.517  11.906  0.00  0.00    +0.000 A 
ATOM     28  N   UNL     1      43.619   3.420  12.905  0.00  0.00    +0.000 N 
ATOM     29  C   UNL     1      44.403   4.531  12.710  0.00  0.00    +0.000 A 
ATOM     30  O   UNL     1      44.682   5.281  13.642  0.00  0.00    +0.000 OA
ATOM     31  C   UNL     1      44.871   4.705  11.349  0.00  0.00    +0.000 A 
ATOM     32  H   UNL     1      43.289   3.269  13.845  0.00  0.00    +0.000 HD
ENDBRANCH  19  22
ENDBRANCH  17  18
ENDBRANCH   4  17
TORSDOF 7
ENDMDL
MODEL 5
REMARK VINA RESULT:    -7.203      3.817      8.882
REMARK INTER + INTRA:         -10.895
REMARK INTER:                  -9.039
REMARK INTRA:                  -1.856
REMARK UNBOUND:                -0.744
REMARK  Name = 
REMARK  8 active torsions:
REMARK  status: ('A' for Active; 'I' for Inactive)
REMARK    1  A    between atoms: C_1  and  N_2
REMARK    2  A    between atoms: N_2  and  C_3
REMARK    3  A    between atoms: N_2  and  C_24
REMARK    4  A    between atoms: C_3  and  C_4
REMARK    5  A    between atoms: C_7  and  C_8
REMARK    6  A    between atoms: C_8  and  N_9
REMARK    7  A    between atoms: C_10  and  C_12
REMARK    8  A    between atoms: C_24  and  C_25
REMARK                            x       y       z     vdW  Elec       q    Type
REMARK                         _______ _______ _______ _____ _____    ______ ____
ROOT
ATOM      1  C   UNL     1      49.210   5.989  19.620  0.00  0.00    +0.000 A 
ATOM      2  C   UNL     1      49.958   5.103  18.835  0.00  0.00    +0.000 A 
ATOM      3  C   UNL     1      49.335   4.302  17.871  0.00  0.00    +0.000 A 
ATOM      4  C   UNL     1      47.954   4.397  17.653  0.00  0.00    +0.000 A 
ATOM      5  C   UNL     1      47.193   5.210  18.503  0.00  0.00    +0.000 A 
ATOM      6  C   UNL     1      47.813   5.988  19.483  0.00  0.00    +0.000 A 
ENDROOT
BRANCH   1   7
ATOM      7  C   UNL     1      49.898   6.979  20.543  0.00  0.00    +0.000 C 
BRANCH   7   9
ATOM      8  C   UNL     1      51.423   8.803  20.865  0.00  0.00    +0.000 C 
ATOM      9  N   UNL     1      50.756   7.981  19.848  0.00  0.00    +0.000 NA
BRANCH   9  10
ATOM     10  C   UNL     1      49.966   8.825  18.930  0.00  0.00    +0.000 C 
BRANCH  10  11
ATOM     11  C   UNL     1      50.186   8.652  17.405  0.00  0.00    +0.000 C 
ATOM     12  C   UNL     1      48.860   8.173  16.780  0.00  0.00    +0.000 C 
ATOM     13  C   UNL     1      49.018   7.848  15.305  0.00  0.00    +0.000 C 
ATOM     14  O   UNL     1      50.045   6.879  15.118  0.00  0.00    +0.000 OA
ATOM     15  C   UNL     1      51.318   7.372  15.534  0.00  0.00    +0.000 C 
ATOM     16  C   UNL     1      51.327   7.691  17.029  0.00  0.00    +0.000 C 
ENDBRANCH  10  11
ENDBRANCH   9  10
ENDBRANCH   7   9
ENDBRANCH   1   7
BRANCH   4  17
ATOM     17  C   UNL     1      47.285   3.653  16.526  0.00  0.00    +0.000 C 
BRANCH  17  18
ATOM     18  N   UNL     1      46.759   4.557  15.540  0.00  0.00    +0.000 N 
ATOM     19  C   UNL     1      46.753   4.241  14.206  0.00  0.00    +0.000 C 
ATOM     20  O   UNL     1      47.157   3.166  13.780  0.00  0.00    +0.000 OA
ATOM     21  H   UNL     1      46.661   5.524  15.826  0.00  0.00    +0.000 HD
BRANCH  19  22
ATOM     22  C   UNL     1      46.153   5.248  13.326  0.00  0.00    +0.000 A 
ATOM     23  C   UNL     1      46.897   6.345  12.917  0.00  0.00    +0.000 A 
ATOM     24  S   UNL     1      46.067   7.358  11.824  0.00  0.00    +0.000 S 
ATOM     25  C   UNL     1      44.662   6.401  11.917  0.00  0.00    +0.000 A 
ATOM     26  N   UNL     1      43.541   6.729  11.220  0.00  0.00    +0.000 NA
ATOM     27  C   UNL     1      42.542   5.936  11.408  0.00  0.00    +0.000 A 
ATOM     28  N   UNL     1      42.562   4.834  12.229  0.00  0.00    +0.000 N 
ATOM     29  C   UNL     1      43.684   4.440  12.916  0.00  0.00    +0.000 A 
ATOM     30  O   UNL     1      43.687   3.412  13.588  0.00  0.00    +0.000 OA
ATOM     31  C   UNL     1      44.829   5.313  12.749  0.00  0.00    +0.000 A 
ATOM     32  H   UNL     1      41.755   4.239  12.319  0.00  0.00    +0.000 HD
ENDBRANCH  19  22
ENDBRANCH  17  18
ENDBRANCH   4  17
TORSDOF 7
ENDMDL
MODEL 6
REMARK VINA RESULT:    -7.091      3.710      8.394
REMARK INTER + INTRA:         -10.738
REMARK INTER:                  -8.703
REMARK INTRA:                  -2.034
REMARK UNBOUND:                -0.744
REMARK  Name = 
REMARK  8 active torsions:
REMARK  status: ('A' for Active; 'I' for Inactive)
REMARK    1  A    between atoms: C_1  and  N_2
REMARK    2  A    between atoms: N_2  and  C_3
REMARK    3  A    between atoms: N_2  and  C_24
REMARK    4  A    between atoms: C_3  and  C_4
REMARK    5  A    between atoms: C_7  and  C_8
REMARK    6  A    between atoms: C_8  and  N_9
REMARK    7  A    between atoms: C_10  and  C_12
REMARK    8  A    between atoms: C_24  and  C_25
REMARK                            x       y       z     vdW  Elec       q    Type
REMARK                         _______ _______ _______ _____ _____    ______ ____
ROOT
ATOM      1  C   UNL     1      49.127   8.026  18.602  0.00  0.00    +0.000 A 
ATOM      2  C   UNL     1      48.094   8.890  18.218  0.00  0.00    +0.000 A 
ATOM      3  C   UNL     1      47.864   9.172  16.866  0.00  0.00    +0.000 A 
ATOM      4  C   UNL     1      48.645   8.568  15.872  0.00  0.00    +0.000 A 
ATOM      5  C   UNL     1      49.738   7.782  16.260  0.00  0.00    +0.000 A 
ATOM      6  C   UNL     1      49.983   7.524  17.610  0.00  0.00    +0.000 A 
ENDROOT
BRANCH   1   7
ATOM      7  C   UNL     1      49.271   7.584  20.048  0.00  0.00    +0.000 C 
BRANCH   7   9
ATOM      8  C   UNL     1      47.878   6.872  21.866  0.00  0.00    +0.000 C 
ATOM      9  N   UNL     1      48.276   6.565  20.487  0.00  0.00    +0.000 NA
BRANCH   9  10
ATOM     10  C   UNL     1      48.825   5.198  20.395  0.00  0.00    +0.000 C 
BRANCH  10  11
ATOM     11  C   UNL     1      48.400   4.320  19.189  0.00  0.00    +0.000 C 
ATOM     12  C   UNL     1      49.668   3.952  18.393  0.00  0.00    +0.000 C 
ATOM     13  C   UNL     1      49.332   3.200  17.116  0.00  0.00    +0.000 C 
ATOM     14  O   UNL     1      48.434   3.961  16.315  0.00  0.00    +0.000 OA
ATOM     15  C   UNL     1      47.183   4.165  16.972  0.00  0.00    +0.000 C 
ATOM     16  C   UNL     1      47.360   4.969  18.261  0.00  0.00    +0.000 C 
ENDBRANCH  10  11
ENDBRANCH   9  10
ENDBRANCH   7   9
ENDBRANCH   1   7
BRANCH   4  17
ATOM     17  C   UNL     1      48.324   8.742  14.409  0.00  0.00    +0.000 C 
BRANCH  17  18
ATOM     18  N   UNL     1      47.345   7.786  13.970  0.00  0.00    +0.000 N 
ATOM     19  C   UNL     1      47.704   6.649  13.295  0.00  0.00    +0.000 C 
ATOM     20  O   UNL     1      48.872   6.361  13.059  0.00  0.00    +0.000 OA
ATOM     21  H   UNL     1      46.387   8.115  13.923  0.00  0.00    +0.000 HD
BRANCH  19  22
ATOM     22  C   UNL     1      46.599   5.754  12.941  0.00  0.00    +0.000 A 
ATOM     23  C   UNL     1      46.690   4.396  13.215  0.00  0.00    +0.000 A 
ATOM     24  S   UNL     1      45.275   3.528  12.820  0.00  0.00    +0.000 S 
ATOM     25  C   UNL     1      44.522   4.927  12.207  0.00  0.00    +0.000 A 
ATOM     26  N   UNL     1      43.269   4.875  11.681  0.00  0.00    +0.000 NA
ATOM     27  C   UNL     1      42.834   6.000  11.224  0.00  0.00    +0.000 A 
ATOM     28  N   UNL     1      43.539   7.180  11.249  0.00  0.00    +0.000 N 
ATOM     29  C   UNL     1      44.788   7.287  11.809  0.00  0.00    +0.000 A 
ATOM     30  O   UNL     1      45.362   8.371  11.875  0.00  0.00    +0.000 OA
ATOM     31  C   UNL     1      45.326   6.042  12.321  0.00  0.00    +0.000 A 
ATOM     32  H   UNL     1      43.136   8.032  10.894  0.00  0.00    +0.000 HD
ENDBRANCH  19  22
ENDBRANCH  17  18
ENDBRANCH   4  17
TORSDOF 7
ENDMDL
MODEL 7
REMARK VINA RESULT:    -7.052      2.420      3.772
REMARK INTER + INTRA:         -10.682
REMARK INTER:                 -10.246
REMARK INTRA:                  -0.436
REMARK UNBOUND:                -0.744
REMARK  Name = 
REMARK  8 active torsions:
REMARK  status: ('A' for Active; 'I' for Inactive)
REMARK    1  A    between atoms: C_1  and  N_2
REMARK    2  A    between atoms: N_2  and  C_3
REMARK    3  A    between atoms: N_2  and  C_24
REMARK    4  A    between atoms: C_3  and  C_4
REMARK    5  A    between atoms: C_7  and  C_8
REMARK    6  A    between atoms: C_8  and  N_9
REMARK    7  A    between atoms: C_10  and  C_12
REMARK    8  A    between atoms: C_24  and  C_25
REMARK                            x       y       z     vdW  Elec       q    Type
REMARK                         _______ _______ _______ _____ _____    ______ ____
ROOT
ATOM      1  C   UNL     1      45.486   3.584   8.219  0.00  0.00    +0.000 A 
ATOM      2  C   UNL     1      44.962   2.538   8.988  0.00  0.00    +0.000 A 
ATOM      3  C   UNL     1      44.643   2.732  10.336  0.00  0.00    +0.000 A 
ATOM      4  C   UNL     1      44.814   3.989  10.933  0.00  0.00    +0.000 A 
ATOM      5  C   UNL     1      45.428   5.007  10.193  0.00  0.00    +0.000 A 
ATOM      6  C   UNL     1      45.771   4.803   8.855  0.00  0.00    +0.000 A 
ENDROOT
BRANCH   1   7
ATOM      7  C   UNL     1      45.672   3.429   6.720  0.00  0.00    +0.000 C 
BRANCH   7   9
ATOM      8  C   UNL     1      47.749   2.339   7.220  0.00  0.00    +0.000 C 
ATOM      9  N   UNL     1      46.591   2.325   6.320  0.00  0.00    +0.000 NA
BRANCH   9  10
ATOM     10  C   UNL     1      47.020   2.463   4.914  0.00  0.00    +0.000 C 
BRANCH  10  11
ATOM     11  C   UNL     1      47.107   1.180   4.047  0.00  0.00    +0.000 C 
ATOM     12  C   UNL     1      45.963   1.220   3.015  0.00  0.00    +0.000 C 
ATOM     13  C   UNL     1      45.890  -0.064   2.206  0.00  0.00    +0.000 C 
ATOM     14  O   UNL     1      45.754  -1.188   3.071  0.00  0.00    +0.000 OA
ATOM     15  C   UNL     1      46.890  -1.341   3.920  0.00  0.00    +0.000 C 
ATOM     16  C   UNL     1      47.058  -0.134   4.845  0.00  0.00    +0.000 C 
ENDBRANCH  10  11
ENDBRANCH   9  10
ENDBRANCH   7   9
ENDBRANCH   1   7
BRANCH   4  17
ATOM     17  C   UNL     1      44.344   4.260  12.339  0.00  0.00    +0.000 C 
BRANCH  17  18
ATOM     18  N   UNL     1      45.341   4.962  13.100  0.00  0.00    +0.000 N 
ATOM     19  C   UNL     1      46.379   4.302  13.705  0.00  0.00    +0.000 C 
ATOM     20  O   UNL     1      46.541   3.091  13.605  0.00  0.00    +0.000 OA
ATOM     21  H   UNL     1      45.096   5.896  13.406  0.00  0.00    +0.000 HD
BRANCH  19  22
ATOM     22  C   UNL     1      47.335   5.155  14.416  0.00  0.00    +0.000 A 
ATOM     23  C   UNL     1      47.984   6.182  13.744  0.00  0.00    +0.000 A 
ATOM     24  S   UNL     1      48.986   7.125  14.753  0.00  0.00    +0.000 S 
ATOM     25  C   UNL     1      48.640   6.149  16.104  0.00  0.00    +0.000 A 
ATOM     26  N   UNL     1      49.203   6.401  17.316  0.00  0.00    +0.000 NA
ATOM     27  C   UNL     1      48.879   5.565  18.242  0.00  0.00    +0.000 A 
ATOM     28  N   UNL     1      48.034   4.495  18.069  0.00  0.00    +0.000 N 
ATOM     29  C   UNL     1      47.408   4.229  16.876  0.00  0.00    +0.000 A 
ATOM     30  O   UNL     1      46.606   3.303  16.774  0.00  0.00    +0.000 OA
ATOM     31  C   UNL     1      47.757   5.134  15.798  0.00  0.00    +0.000 A 
ATOM     32  H   UNL     1      47.801   3.887  18.838  0.00  0.00    +0.000 HD
ENDBRANCH  19  22
ENDBRANCH  17  18
ENDBRANCH   4  17
TORSDOF 7
ENDMDL
MODEL 8
REMARK VINA RESULT:    -7.043      3.820      8.956
REMARK INTER + INTRA:         -10.670
REMARK INTER:                  -8.969
REMARK INTRA:                  -1.700
REMARK UNBOUND:                -0.744
REMARK  Name = 
REMARK  8 active torsions:
REMARK  status: ('A' for Active; 'I' for Inactive)
REMARK    1  A    between atoms: C_1  and  N_2
REMARK    2  A    between atoms: N_2  and  C_3
REMARK    3  A    between atoms: N_2  and  C_24
REMARK    4  A    between atoms: C_3  and  C_4
REMARK    5  A    between atoms: C_7  and  C_8
REMARK    6  A    between atoms: C_8  and  N_9
REMARK    7  A    between atoms: C_10  and  C_12
REMARK    8  A    between atoms: C_24  and  C_25
REMARK                            x       y       z     vdW  Elec       q    Type
REMARK                         _______ _______ _______ _____ _____    ______ ____
ROOT
ATOM      1  C   UNL     1      51.309   3.885  18.148  0.00  0.00    +0.000 A 
ATOM      2  C   UNL     1      50.943   2.729  17.447  0.00  0.00    +0.000 A 
ATOM      3  C   UNL     1      49.608   2.500  17.096  0.00  0.00    +0.000 A 
ATOM      4  C   UNL     1      48.618   3.440  17.413  0.00  0.00    +0.000 A 
ATOM      5  C   UNL     1      48.967   4.545  18.197  0.00  0.00    +0.000 A 
ATOM      6  C   UNL     1      50.295   4.760  18.571  0.00  0.00    +0.000 A 
ENDROOT
BRANCH   1   7
ATOM      7  C   UNL     1      52.771   4.222  18.381  0.00  0.00    +0.000 C 
BRANCH   7   9
ATOM      8  C   UNL     1      54.749   4.726  17.121  0.00  0.00    +0.000 C 
ATOM      9  N   UNL     1      53.364   5.143  17.369  0.00  0.00    +0.000 NA
BRANCH   9  10
ATOM     10  C   UNL     1      53.314   6.547  17.822  0.00  0.00    +0.000 C 
BRANCH  10  11
ATOM     11  C   UNL     1      52.387   7.529  17.058  0.00  0.00    +0.000 C 
ATOM     12  C   UNL     1      51.436   8.184  18.079  0.00  0.00    +0.000 C 
ATOM     13  C   UNL     1      50.401   9.064  17.400  0.00  0.00    +0.000 C 
ATOM     14  O   UNL     1      49.670   8.315  16.434  0.00  0.00    +0.000 OA
ATOM     15  C   UNL     1      50.512   7.844  15.383  0.00  0.00    +0.000 C 
ATOM     16  C   UNL     1      51.580   6.888  15.916  0.00  0.00    +0.000 C 
ENDBRANCH  10  11
ENDBRANCH   9  10
ENDBRANCH   7   9
ENDBRANCH   1   7
BRANCH   4  17
ATOM     17  C   UNL     1      47.202   3.283  16.919  0.00  0.00    +0.000 C 
BRANCH  17  18
ATOM     18  N   UNL     1      46.858   4.313  15.978  0.00  0.00    +0.000 N 
ATOM     19  C   UNL     1      46.951   4.110  14.625  0.00  0.00    +0.000 C 
ATOM     20  O   UNL     1      47.293   3.038  14.140  0.00  0.00    +0.000 OA
ATOM     21  H   UNL     1      46.824   5.259  16.340  0.00  0.00    +0.000 HD
BRANCH  19  22
ATOM     22  C   UNL     1      46.534   5.241  13.791  0.00  0.00    +0.000 A 
ATOM     23  C   UNL     1      47.363   6.345  13.653  0.00  0.00    +0.000 A 
ATOM     24  S   UNL     1      46.756   7.518  12.573  0.00  0.00    +0.000 S 
ATOM     25  C   UNL     1      45.334   6.620  12.309  0.00  0.00    +0.000 A 
ATOM     26  N   UNL     1      44.356   7.079  11.483  0.00  0.00    +0.000 NA
ATOM     27  C   UNL     1      43.321   6.314  11.400  0.00  0.00    +0.000 A 
ATOM     28  N   UNL     1      43.175   5.122  12.068  0.00  0.00    +0.000 N 
ATOM     29  C   UNL     1      44.154   4.599  12.877  0.00  0.00    +0.000 A 
ATOM     30  O   UNL     1      44.017   3.498  13.406  0.00  0.00    +0.000 OA
ATOM     31  C   UNL     1      45.331   5.434  13.014  0.00  0.00    +0.000 A 
ATOM     32  H   UNL     1      42.350   4.557  11.947  0.00  0.00    +0.000 HD
ENDBRANCH  19  22
ENDBRANCH  17  18
ENDBRANCH   4  17
TORSDOF 7
ENDMDL
MODEL 9
REMARK VINA RESULT:    -6.970      3.595      7.920
REMARK INTER + INTRA:         -10.566
REMARK INTER:                  -8.778
REMARK INTRA:                  -1.789
REMARK UNBOUND:                -0.744
REMARK  Name = 
REMARK  8 active torsions:
REMARK  status: ('A' for Active; 'I' for Inactive)
REMARK    1  A    between atoms: C_1  and  N_2
REMARK    2  A    between atoms: N_2  and  C_3
REMARK    3  A    between atoms: N_2  and  C_24
REMARK    4  A    between atoms: C_3  and  C_4
REMARK    5  A    between atoms: C_7  and  C_8
REMARK    6  A    between atoms: C_8  and  N_9
REMARK    7  A    between atoms: C_10  and  C_12
REMARK    8  A    between atoms: C_24  and  C_25
REMARK                            x       y       z     vdW  Elec       q    Type
REMARK                         _______ _______ _______ _____ _____    ______ ____
ROOT
ATOM      1  C   UNL     1      49.083   7.511  18.046  0.00  0.00    +0.000 A 
ATOM      2  C   UNL     1      48.446   8.739  17.827  0.00  0.00    +0.000 A 
ATOM      3  C   UNL     1      48.178   9.181  16.527  0.00  0.00    +0.000 A 
ATOM      4  C   UNL     1      48.514   8.387  15.422  0.00  0.00    +0.000 A 
ATOM      5  C   UNL     1      49.236   7.207  15.637  0.00  0.00    +0.000 A 
ATOM      6  C   UNL     1      49.528   6.780  16.933  0.00  0.00    +0.000 A 
ENDROOT
BRANCH   1   7
ATOM      7  C   UNL     1      49.222   6.949  19.450  0.00  0.00    +0.000 C 
BRANCH   7   9
ATOM      8  C   UNL     1      47.615   6.278  21.099  0.00  0.00    +0.000 C 
ATOM      9  N   UNL     1      48.208   5.915  19.807  0.00  0.00    +0.000 NA
BRANCH   9  10
ATOM     10  C   UNL     1      48.809   4.568  19.868  0.00  0.00    +0.000 C 
BRANCH  10  11
ATOM     11  C   UNL     1      48.467   3.563  18.737  0.00  0.00    +0.000 C 
ATOM     12  C   UNL     1      49.780   3.171  18.030  0.00  0.00    +0.000 C 
ATOM     13  C   UNL     1      49.525   2.290  16.820  0.00  0.00    +0.000 C 
ATOM     14  O   UNL     1      48.636   2.936  15.914  0.00  0.00    +0.000 OA
ATOM     15  C   UNL     1      47.352   3.152  16.499  0.00  0.00    +0.000 C 
ATOM     16  C   UNL     1      47.445   4.081  17.710  0.00  0.00    +0.000 C 
ENDBRANCH  10  11
ENDBRANCH   9  10
ENDBRANCH   7   9
ENDBRANCH   1   7
BRANCH   4  17
ATOM     17  C   UNL     1      48.105   8.776  14.024  0.00  0.00    +0.000 C 
BRANCH  17  18
ATOM     18  N   UNL     1      46.930   8.063  13.604  0.00  0.00    +0.000 N 
ATOM     19  C   UNL     1      46.907   7.338  12.440  0.00  0.00    +0.000 C 
ATOM     20  O   UNL     1      47.887   7.224  11.714  0.00  0.00    +0.000 OA
ATOM     21  H   UNL     1      46.057   8.342  14.036  0.00  0.00    +0.000 HD
BRANCH  19  22
ATOM     22  C   UNL     1      45.650   6.638  12.162  0.00  0.00    +0.000 A 
ATOM     23  C   UNL     1      44.562   7.337  11.657  0.00  0.00    +0.000 A 
ATOM     24  S   UNL     1      43.220   6.343  11.309  0.00  0.00    +0.000 S 
ATOM     25  C   UNL     1      44.026   4.958  11.885  0.00  0.00    +0.000 A 
ATOM     26  N   UNL     1      43.416   3.742  11.888  0.00  0.00    +0.000 NA
ATOM     27  C   UNL     1      44.129   2.787  12.382  0.00  0.00    +0.000 A 
ATOM     28  N   UNL     1      45.405   2.936  12.871  0.00  0.00    +0.000 N 
ATOM     29  C   UNL     1      46.075   4.135  12.847  0.00  0.00    +0.000 A 
ATOM     30  O   UNL     1      47.239   4.218  13.230  0.00  0.00    +0.000 OA
ATOM     31  C   UNL     1      45.305   5.243  12.316  0.00  0.00    +0.000 A 
ATOM     32  H   UNL     1      45.920   2.146  13.226  0.00  0.00    +0.000 HD
ENDBRANCH  19  22
ENDBRANCH  17  18
ENDBRANCH   4  17
TORSDOF 7
ENDMDL
