MODEL 1
REMARK VINA RESULT:    -9.003      0.000      0.000
REMARK INTER + INTRA:         -13.462
REMARK INTER:                 -12.161
REMARK INTRA:                  -1.300
REMARK UNBOUND:                -1.300
REMARK  Name = 
REMARK  7 active torsions:
REMARK  status: ('A' for Active; 'I' for Inactive)
REMARK    1  A    between atoms: C_1  and  C_2
REMARK    2  A    between atoms: C_4  and  O_5
REMARK    3  A    between atoms: O_5  and  C_6
REMARK    4  A    between atoms: C_6  and  C_7
REMARK    5  A    between atoms: C_7  and  C_10
REMARK    6  A    between atoms: C_14  and  C_15
REMARK    7  A    between atoms: C_24  and  C_25
REMARK                            x       y       z     vdW  Elec       q    Type
REMARK                         _______ _______ _______ _____ _____    ______ ____
ROOT
ATOM      1  C   UNL     1      43.711   4.536  12.317  0.00  0.00    +0.000 C 
ATOM      2  F   UNL     1      43.485   3.313  12.880  0.00  0.00    +0.000 F 
ATOM      3  F   UNL     1      42.739   5.356  12.817  0.00  0.00    +0.000 F 
ENDROOT
BRANCH   1   4
ATOM      4  C   UNL     1      45.102   5.060  12.632  0.00  0.00    +0.000 A 
ATOM      5  C   UNL     1      45.766   5.924  11.754  0.00  0.00    +0.000 A 
ATOM      6  C   UNL     1      47.031   6.408  12.076  0.00  0.00    +0.000 A 
ATOM      7  C   UNL     1      47.645   6.035  13.278  0.00  0.00    +0.000 A 
ATOM      8  C   UNL     1      47.005   5.185  14.197  0.00  0.00    +0.000 A 
ATOM      9  C   UNL     1      45.728   4.711  13.844  0.00  0.00    +0.000 A 
BRANCH   8  10
ATOM     10  C   UNL     1      47.629   4.820  15.494  0.00  0.00    +0.000 A 
ATOM     11  C   UNL     1      47.391   3.571  16.100  0.00  0.00    +0.000 A 
ATOM     12  C   UNL     1      48.010   3.209  17.302  0.00  0.00    +0.000 A 
ATOM     13  C   UNL     1      48.895   4.085  17.922  0.00  0.00    +0.000 A 
ATOM     14  C   UNL     1      49.144   5.328  17.353  0.00  0.00    +0.000 A 
ATOM     15  C   UNL     1      48.511   5.692  16.160  0.00  0.00    +0.000 A 
ENDBRANCH   8  10
ENDBRANCH   1   4
BRANCH   1  16
ATOM     16  C   UNL     1      43.533   4.423  10.793  0.00  0.00    +0.000 C 
BRANCH  16  17
ATOM     17  O   UNL     1      43.686   3.067  10.343  0.00  0.00    +0.000 OA
BRANCH  17  21
ATOM     18  C   UNL     1      46.704   0.163   7.685  0.00  0.00    +0.000 C 
ATOM     19  C   UNL     1      46.120   1.521   7.967  0.00  0.00    +0.000 A 
ATOM     20  C   UNL     1      45.195   1.637   9.025  0.00  0.00    +0.000 A 
ATOM     21  C   UNL     1      44.599   2.860   9.341  0.00  0.00    +0.000 A 
ATOM     22  C   UNL     1      44.941   3.989   8.599  0.00  0.00    +0.000 A 
ATOM     23  C   UNL     1      45.861   3.897   7.549  0.00  0.00    +0.000 A 
ATOM     24  C   UNL     1      46.452   2.667   7.215  0.00  0.00    +0.000 A 
BRANCH  24  25
ATOM     25  C   UNL     1      47.443   2.598   6.094  0.00  0.00    +0.000 C 
ATOM     26  N   UNL     1      48.758   2.813   6.403  0.00  0.00    +0.000 N 
ATOM     27  O   UNL     1      47.121   2.380   4.935  0.00  0.00    +0.000 OA
ATOM     28  H   UNL     1      49.069   3.179   7.293  0.00  0.00    +0.000 HD
ATOM     29  H   UNL     1      49.402   2.848   5.624  0.00  0.00    +0.000 HD
ENDBRANCH  24  25
ENDBRANCH  17  21
ENDBRANCH  16  17
ENDBRANCH   1  16
TORSDOF 6
ENDMDL
MODEL 2
REMARK VINA RESULT:    -8.883      1.918      3.858
REMARK INTER + INTRA:         -13.299
REMARK INTER:                 -12.100
REMARK INTRA:                  -1.199
REMARK UNBOUND:                -1.300
REMARK  Name = 
REMARK  7 active torsions:
REMARK  status: ('A' for Active; 'I' for Inactive)
REMARK    1  A    between atoms: C_1  and  C_2
REMARK    2  A    between atoms: C_4  and  O_5
REMARK    3  A    between atoms: O_5  and  C_6
REMARK    4  A    between atoms: C_6  and  C_7
REMARK    5  A    between atoms: C_7  and  C_10
REMARK    6  A    between atoms: C_14  and  C_15
REMARK    7  A    between atoms: C_24  and  C_25
REMARK                            x       y       z     vdW  Elec       q    Type
REMARK                         _______ _______ _______ _____ _____    ______ ____
ROOT
ATOM      1  C   UNL     1      43.630   4.457  12.419  0.00  0.00    +0.000 C 
ATOM      2  F   UNL     1      43.617   3.187  12.919  0.00  0.00    +0.000 F 
ATOM      3  F   UNL     1      42.530   5.072  12.946  0.00  0.00    +0.000 F 
ENDROOT
BRANCH   1   4
ATOM      4  C   UNL     1      44.908   5.196  12.779  0.00  0.00    +0.000 A 
ATOM      5  C   UNL     1      45.975   4.537  13.400  0.00  0.00    +0.000 A 
ATOM      6  C   UNL     1      47.144   5.231  13.700  0.00  0.00    +0.000 A 
ATOM      7  C   UNL     1      47.260   6.590  13.382  0.00  0.00    +0.000 A 
ATOM      8  C   UNL     1      46.220   7.286  12.741  0.00  0.00    +0.000 A 
ATOM      9  C   UNL     1      45.051   6.559  12.451  0.00  0.00    +0.000 A 
BRANCH   8  10
ATOM     10  C   UNL     1      46.350   8.715  12.360  0.00  0.00    +0.000 A 
ATOM     11  C   UNL     1      47.609   9.309  12.147  0.00  0.00    +0.000 A 
ATOM     12  C   UNL     1      47.732  10.646  11.749  0.00  0.00    +0.000 A 
ATOM     13  C   UNL     1      46.595  11.419  11.542  0.00  0.00    +0.000 A 
ATOM     14  C   UNL     1      45.338  10.864  11.752  0.00  0.00    +0.000 A 
ATOM     15  C   UNL     1      45.220   9.532  12.166  0.00  0.00    +0.000 A 
ENDBRANCH   8  10
ENDBRANCH   1   4
BRANCH   1  16
ATOM     16  C   UNL     1      43.482   4.393  10.890  0.00  0.00    +0.000 C 
BRANCH  16  17
ATOM     17  O   UNL     1      43.625   3.049  10.401  0.00  0.00    +0.000 OA
BRANCH  17  21
ATOM     18  C   UNL     1      46.677   0.206   7.717  0.00  0.00    +0.000 C 
ATOM     19  C   UNL     1      46.080   1.555   8.013  0.00  0.00    +0.000 A 
ATOM     20  C   UNL     1      45.151   1.650   9.070  0.00  0.00    +0.000 A 
ATOM     21  C   UNL     1      44.544   2.863   9.400  0.00  0.00    +0.000 A 
ATOM     22  C   UNL     1      44.878   4.004   8.673  0.00  0.00    +0.000 A 
ATOM     23  C   UNL     1      45.801   3.934   7.624  0.00  0.00    +0.000 A 
ATOM     24  C   UNL     1      46.404   2.713   7.277  0.00  0.00    +0.000 A 
BRANCH  24  25
ATOM     25  C   UNL     1      47.398   2.667   6.158  0.00  0.00    +0.000 C 
ATOM     26  N   UNL     1      48.719   2.814   6.484  0.00  0.00    +0.000 N 
ATOM     27  O   UNL     1      47.076   2.524   4.988  0.00  0.00    +0.000 OA
ATOM     28  H   UNL     1      49.038   3.120   7.394  0.00  0.00    +0.000 HD
ATOM     29  H   UNL     1      49.369   2.867   5.710  0.00  0.00    +0.000 HD
ENDBRANCH  24  25
ENDBRANCH  17  21
ENDBRANCH  16  17
ENDBRANCH   1  16
TORSDOF 6
ENDMDL
MODEL 3
REMARK VINA RESULT:    -8.124      1.892      2.629
REMARK INTER + INTRA:         -12.275
REMARK INTER:                 -11.157
REMARK INTRA:                  -1.117
REMARK UNBOUND:                -1.300
REMARK  Name = 
REMARK  7 active torsions:
REMARK  status: ('A' for Active; 'I' for Inactive)
REMARK    1  A    between atoms: C_1  and  C_2
REMARK    2  A    between atoms: C_4  and  O_5
REMARK    3  A    between atoms: O_5  and  C_6
REMARK    4  A    between atoms: C_6  and  C_7
REMARK    5  A    between atoms: C_7  and  C_10
REMARK    6  A    between atoms: C_14  and  C_15
REMARK    7  A    between atoms: C_24  and  C_25
REMARK                            x       y       z     vdW  Elec       q    Type
REMARK                         _______ _______ _______ _____ _____    ______ ____
ROOT
ATOM      1  C   UNL     1      44.523   4.630  12.049  0.00  0.00    +0.000 C 
ATOM      2  F   UNL     1      45.449   3.629  12.109  0.00  0.00    +0.000 F 
ATOM      3  F   UNL     1      43.701   4.436  13.123  0.00  0.00    +0.000 F 
ENDROOT
BRANCH   1   4
ATOM      4  C   UNL     1      45.168   6.005  12.081  0.00  0.00    +0.000 A 
ATOM      5  C   UNL     1      44.486   7.135  11.617  0.00  0.00    +0.000 A 
ATOM      6  C   UNL     1      45.091   8.388  11.676  0.00  0.00    +0.000 A 
ATOM      7  C   UNL     1      46.382   8.525  12.200  0.00  0.00    +0.000 A 
ATOM      8  C   UNL     1      47.096   7.419  12.694  0.00  0.00    +0.000 A 
ATOM      9  C   UNL     1      46.459   6.165  12.620  0.00  0.00    +0.000 A 
BRANCH   8  10
ATOM     10  C   UNL     1      48.447   7.560  13.291  0.00  0.00    +0.000 A 
ATOM     11  C   UNL     1      49.515   8.129  12.571  0.00  0.00    +0.000 A 
ATOM     12  C   UNL     1      50.780   8.300  13.146  0.00  0.00    +0.000 A 
ATOM     13  C   UNL     1      51.005   7.915  14.463  0.00  0.00    +0.000 A 
ATOM     14  C   UNL     1      49.973   7.342  15.198  0.00  0.00    +0.000 A 
ATOM     15  C   UNL     1      48.715   7.159  14.614  0.00  0.00    +0.000 A 
ENDBRANCH   8  10
ENDBRANCH   1   4
BRANCH   1  16
ATOM     16  C   UNL     1      43.702   4.472  10.758  0.00  0.00    +0.000 C 
BRANCH  16  17
ATOM     17  O   UNL     1      43.747   3.123  10.265  0.00  0.00    +0.000 OA
BRANCH  17  21
ATOM     18  C   UNL     1      46.706   0.093   7.684  0.00  0.00    +0.000 C 
ATOM     19  C   UNL     1      46.148   1.468   7.930  0.00  0.00    +0.000 A 
ATOM     20  C   UNL     1      45.227   1.631   8.985  0.00  0.00    +0.000 A 
ATOM     21  C   UNL     1      44.655   2.873   9.269  0.00  0.00    +0.000 A 
ATOM     22  C   UNL     1      45.018   3.974   8.496  0.00  0.00    +0.000 A 
ATOM     23  C   UNL     1      45.935   3.837   7.448  0.00  0.00    +0.000 A 
ATOM     24  C   UNL     1      46.501   2.587   7.147  0.00  0.00    +0.000 A 
BRANCH  24  25
ATOM     25  C   UNL     1      47.489   2.469   6.028  0.00  0.00    +0.000 C 
ATOM     26  N   UNL     1      48.812   2.638   6.336  0.00  0.00    +0.000 N 
ATOM     27  O   UNL     1      47.160   2.253   4.871  0.00  0.00    +0.000 OA
ATOM     28  H   UNL     1      49.136   3.001   7.223  0.00  0.00    +0.000 HD
ATOM     29  H   UNL     1      49.457   2.640   5.557  0.00  0.00    +0.000 HD
ENDBRANCH  24  25
ENDBRANCH  17  21
ENDBRANCH  16  17
ENDBRANCH   1  16
TORSDOF 6
ENDMDL
MODEL 4
REMARK VINA RESULT:    -7.944      2.784      4.759
REMARK INTER + INTRA:         -12.031
REMARK INTER:                 -10.878
REMARK INTRA:                  -1.153
REMARK UNBOUND:                -1.300
REMARK  Name = 
REMARK  7 active torsions:
REMARK  status: ('A' for Active; 'I' for Inactive)
REMARK    1  A    between atoms: C_1  and  C_2
REMARK    2  A    between atoms: C_4  and  O_5
REMARK    3  A    between atoms: O_5  and  C_6
REMARK    4  A    between atoms: C_6  and  C_7
REMARK    5  A    between atoms: C_7  and  C_10
REMARK    6  A    between atoms: C_14  and  C_15
REMARK    7  A    between atoms: C_24  and  C_25
REMARK                            x       y       z     vdW  Elec       q    Type
REMARK                         _______ _______ _______ _____ _____    ______ ____
ROOT
ATOM      1  C   UNL     1      43.793   5.182  12.109  0.00  0.00    +0.000 C 
ATOM      2  F   UNL     1      43.088   4.921  13.248  0.00  0.00    +0.000 F 
ATOM      3  F   UNL     1      42.864   5.553  11.178  0.00  0.00    +0.000 F 
ENDROOT
BRANCH   1   4
ATOM      4  C   UNL     1      44.835   6.267  12.321  0.00  0.00    +0.000 A 
ATOM      5  C   UNL     1      46.077   5.975  12.897  0.00  0.00    +0.000 A 
ATOM      6  C   UNL     1      47.023   6.983  13.061  0.00  0.00    +0.000 A 
ATOM      7  C   UNL     1      46.740   8.291  12.650  0.00  0.00    +0.000 A 
ATOM      8  C   UNL     1      45.513   8.624  12.050  0.00  0.00    +0.000 A 
ATOM      9  C   UNL     1      44.576   7.585  11.898  0.00  0.00    +0.000 A 
BRANCH   8  10
ATOM     10  C   UNL     1      45.221   9.999  11.571  0.00  0.00    +0.000 A 
ATOM     11  C   UNL     1      44.044  10.296  10.857  0.00  0.00    +0.000 A 
ATOM     12  C   UNL     1      43.748  11.598  10.440  0.00  0.00    +0.000 A 
ATOM     13  C   UNL     1      44.618  12.641  10.739  0.00  0.00    +0.000 A 
ATOM     14  C   UNL     1      45.792  12.379  11.436  0.00  0.00    +0.000 A 
ATOM     15  C   UNL     1      46.092  11.072  11.836  0.00  0.00    +0.000 A 
ENDBRANCH   8  10
ENDBRANCH   1   4
BRANCH   1  16
ATOM     16  C   UNL     1      44.480   3.888  11.640  0.00  0.00    +0.000 C 
BRANCH  16  17
ATOM     17  O   UNL     1      43.902   3.394  10.421  0.00  0.00    +0.000 OA
BRANCH  17  21
ATOM     18  C   UNL     1      46.635   0.284   7.689  0.00  0.00    +0.000 C 
ATOM     19  C   UNL     1      46.164   1.681   7.990  0.00  0.00    +0.000 A 
ATOM     20  C   UNL     1      45.270   1.862   9.066  0.00  0.00    +0.000 A 
ATOM     21  C   UNL     1      44.779   3.125   9.401  0.00  0.00    +0.000 A 
ATOM     22  C   UNL     1      45.194   4.229   8.659  0.00  0.00    +0.000 A 
ATOM     23  C   UNL     1      46.084   4.074   7.591  0.00  0.00    +0.000 A 
ATOM     24  C   UNL     1      46.571   2.803   7.239  0.00  0.00    +0.000 A 
BRANCH  24  25
ATOM     25  C   UNL     1      47.532   2.666   6.099  0.00  0.00    +0.000 C 
ATOM     26  N   UNL     1      48.867   2.752   6.388  0.00  0.00    +0.000 N 
ATOM     27  O   UNL     1      47.173   2.503   4.942  0.00  0.00    +0.000 OA
ATOM     28  H   UNL     1      49.225   3.069   7.280  0.00  0.00    +0.000 HD
ATOM     29  H   UNL     1      49.499   2.742   5.598  0.00  0.00    +0.000 HD
ENDBRANCH  24  25
ENDBRANCH  17  21
ENDBRANCH  16  17
ENDBRANCH   1  16
TORSDOF 6
ENDMDL
MODEL 5
REMARK VINA RESULT:    -7.792      3.437      8.285
REMARK INTER + INTRA:         -11.825
REMARK INTER:                 -10.857
REMARK INTRA:                  -0.968
REMARK UNBOUND:                -1.300
REMARK  Name = 
REMARK  7 active torsions:
REMARK  status: ('A' for Active; 'I' for Inactive)
REMARK    1  A    between atoms: C_1  and  C_2
REMARK    2  A    between atoms: C_4  and  O_5
REMARK    3  A    between atoms: O_5  and  C_6
REMARK    4  A    between atoms: C_6  and  C_7
REMARK    5  A    between atoms: C_7  and  C_10
REMARK    6  A    between atoms: C_14  and  C_15
REMARK    7  A    between atoms: C_24  and  C_25
REMARK                            x       y       z     vdW  Elec       q    Type
REMARK                         _______ _______ _______ _____ _____    ______ ____
ROOT
ATOM      1  C   UNL     1      44.876   6.327  11.409  0.00  0.00    +0.000 C 
ATOM      2  F   UNL     1      45.737   7.007  10.596  0.00  0.00    +0.000 F 
ATOM      3  F   UNL     1      43.716   7.048  11.401  0.00  0.00    +0.000 F 
ENDROOT
BRANCH   1   4
ATOM      4  C   UNL     1      44.651   4.902  10.933  0.00  0.00    +0.000 A 
ATOM      5  C   UNL     1      43.726   4.064  11.568  0.00  0.00    +0.000 A 
ATOM      6  C   UNL     1      43.522   2.769  11.100  0.00  0.00    +0.000 A 
ATOM      7  C   UNL     1      44.238   2.297   9.993  0.00  0.00    +0.000 A 
ATOM      8  C   UNL     1      45.162   3.111   9.314  0.00  0.00    +0.000 A 
ATOM      9  C   UNL     1      45.348   4.415   9.811  0.00  0.00    +0.000 A 
BRANCH   8  10
ATOM     10  C   UNL     1      45.894   2.634   8.114  0.00  0.00    +0.000 A 
ATOM     11  C   UNL     1      46.094   3.465   6.994  0.00  0.00    +0.000 A 
ATOM     12  C   UNL     1      46.818   3.031   5.878  0.00  0.00    +0.000 A 
ATOM     13  C   UNL     1      47.372   1.755   5.859  0.00  0.00    +0.000 A 
ATOM     14  C   UNL     1      47.185   0.908   6.945  0.00  0.00    +0.000 A 
ATOM     15  C   UNL     1      46.446   1.341   8.052  0.00  0.00    +0.000 A 
ENDBRANCH   8  10
ENDBRANCH   1   4
BRANCH   1  16
ATOM     16  C   UNL     1      45.446   6.312  12.837  0.00  0.00    +0.000 C 
BRANCH  16  17
ATOM     17  O   UNL     1      46.715   5.641  12.894  0.00  0.00    +0.000 OA
BRANCH  17  21
ATOM     18  C   UNL     1      47.300   3.299  17.227  0.00  0.00    +0.000 C 
ATOM     19  C   UNL     1      47.643   4.440  16.307  0.00  0.00    +0.000 A 
ATOM     20  C   UNL     1      47.004   4.493  15.051  0.00  0.00    +0.000 A 
ATOM     21  C   UNL     1      47.278   5.513  14.137  0.00  0.00    +0.000 A 
ATOM     22  C   UNL     1      48.193   6.504  14.487  0.00  0.00    +0.000 A 
ATOM     23  C   UNL     1      48.834   6.474  15.730  0.00  0.00    +0.000 A 
ATOM     24  C   UNL     1      48.575   5.442  16.647  0.00  0.00    +0.000 A 
BRANCH  24  25
ATOM     25  C   UNL     1      49.265   5.439  17.977  0.00  0.00    +0.000 C 
ATOM     26  N   UNL     1      50.337   4.602  18.128  0.00  0.00    +0.000 N 
ATOM     27  O   UNL     1      48.900   6.130  18.916  0.00  0.00    +0.000 OA
ATOM     28  H   UNL     1      50.574   3.875  17.464  0.00  0.00    +0.000 HD
ATOM     29  H   UNL     1      50.738   4.549  19.055  0.00  0.00    +0.000 HD
ENDBRANCH  24  25
ENDBRANCH  17  21
ENDBRANCH  16  17
ENDBRANCH   1  16
TORSDOF 6
ENDMDL
MODEL 6
REMARK VINA RESULT:    -7.214      3.548      7.825
REMARK INTER + INTRA:         -11.044
REMARK INTER:                 -10.067
REMARK INTRA:                  -0.977
REMARK UNBOUND:                -1.300
REMARK  Name = 
REMARK  7 active torsions:
REMARK  status: ('A' for Active; 'I' for Inactive)
REMARK    1  A    between atoms: C_1  and  C_2
REMARK    2  A    between atoms: C_4  and  O_5
REMARK    3  A    between atoms: O_5  and  C_6
REMARK    4  A    between atoms: C_6  and  C_7
REMARK    5  A    between atoms: C_7  and  C_10
REMARK    6  A    between atoms: C_14  and  C_15
REMARK    7  A    between atoms: C_24  and  C_25
REMARK                            x       y       z     vdW  Elec       q    Type
REMARK                         _______ _______ _______ _____ _____    ______ ____
ROOT
ATOM      1  C   UNL     1      44.310   6.219  11.812  0.00  0.00    +0.000 C 
ATOM      2  F   UNL     1      43.510   7.061  11.094  0.00  0.00    +0.000 F 
ATOM      3  F   UNL     1      43.874   6.312  13.104  0.00  0.00    +0.000 F 
ENDROOT
BRANCH   1   4
ATOM      4  C   UNL     1      44.238   4.791  11.300  0.00  0.00    +0.000 A 
ATOM      5  C   UNL     1      43.414   3.842  11.914  0.00  0.00    +0.000 A 
ATOM      6  C   UNL     1      43.349   2.545  11.412  0.00  0.00    +0.000 A 
ATOM      7  C   UNL     1      44.106   2.183  10.292  0.00  0.00    +0.000 A 
ATOM      8  C   UNL     1      44.933   3.109   9.633  0.00  0.00    +0.000 A 
ATOM      9  C   UNL     1      44.979   4.412  10.163  0.00  0.00    +0.000 A 
BRANCH   8  10
ATOM     10  C   UNL     1      45.706   2.747   8.418  0.00  0.00    +0.000 A 
ATOM     11  C   UNL     1      45.970   3.688   7.404  0.00  0.00    +0.000 A 
ATOM     12  C   UNL     1      46.732   3.359   6.278  0.00  0.00    +0.000 A 
ATOM     13  C   UNL     1      47.262   2.080   6.143  0.00  0.00    +0.000 A 
ATOM     14  C   UNL     1      47.012   1.126   7.123  0.00  0.00    +0.000 A 
ATOM     15  C   UNL     1      46.236   1.455   8.240  0.00  0.00    +0.000 A 
ENDBRANCH   8  10
ENDBRANCH   1   4
BRANCH   1  16
ATOM     16  C   UNL     1      45.760   6.725  11.737  0.00  0.00    +0.000 C 
BRANCH  16  17
ATOM     17  O   UNL     1      46.624   5.987  12.617  0.00  0.00    +0.000 OA
BRANCH  17  21
ATOM     18  C   UNL     1      50.716   8.538  11.457  0.00  0.00    +0.000 C 
ATOM     19  C   UNL     1      49.864   7.842  12.484  0.00  0.00    +0.000 A 
ATOM     20  C   UNL     1      48.663   7.243  12.050  0.00  0.00    +0.000 A 
ATOM     21  C   UNL     1      47.812   6.588  12.944  0.00  0.00    +0.000 A 
ATOM     22  C   UNL     1      48.170   6.519  14.288  0.00  0.00    +0.000 A 
ATOM     23  C   UNL     1      49.360   7.101  14.739  0.00  0.00    +0.000 A 
ATOM     24  C   UNL     1      50.213   7.775  13.848  0.00  0.00    +0.000 A 
BRANCH  24  25
ATOM     25  C   UNL     1      51.487   8.379  14.353  0.00  0.00    +0.000 C 
ATOM     26  N   UNL     1      52.591   7.573  14.398  0.00  0.00    +0.000 N 
ATOM     27  O   UNL     1      51.566   9.537  14.737  0.00  0.00    +0.000 OA
ATOM     28  H   UNL     1      52.554   6.569  14.276  0.00  0.00    +0.000 HD
ATOM     29  H   UNL     1      53.420   7.970  14.820  0.00  0.00    +0.000 HD
ENDBRANCH  24  25
ENDBRANCH  17  21
ENDBRANCH  16  17
ENDBRANCH   1  16
TORSDOF 6
ENDMDL
MODEL 7
REMARK VINA RESULT:    -6.995      3.762      6.423
REMARK INTER + INTRA:         -10.749
REMARK INTER:                  -9.777
REMARK INTRA:                  -0.972
REMARK UNBOUND:                -1.300
REMARK  Name = 
REMARK  7 active torsions:
REMARK  status: ('A' for Active; 'I' for Inactive)
REMARK    1  A    between atoms: C_1  and  C_2
REMARK    2  A    between atoms: C_4  and  O_5
REMARK    3  A    between atoms: O_5  and  C_6
REMARK    4  A    between atoms: C_6  and  C_7
REMARK    5  A    between atoms: C_7  and  C_10
REMARK    6  A    between atoms: C_14  and  C_15
REMARK    7  A    between atoms: C_24  and  C_25
REMARK                            x       y       z     vdW  Elec       q    Type
REMARK                         _______ _______ _______ _____ _____    ______ ____
ROOT
ATOM      1  C   UNL     1      47.900   3.157  16.771  0.00  0.00    +0.000 C 
ATOM      2  F   UNL     1      48.142   2.120  15.917  0.00  0.00    +0.000 F 
ATOM      3  F   UNL     1      46.951   2.702  17.643  0.00  0.00    +0.000 F 
ENDROOT
BRANCH   1   4
ATOM      4  C   UNL     1      49.159   3.601  17.497  0.00  0.00    +0.000 A 
ATOM      5  C   UNL     1      49.149   4.710  18.351  0.00  0.00    +0.000 A 
ATOM      6  C   UNL     1      50.310   5.084  19.022  0.00  0.00    +0.000 A 
ATOM      7  C   UNL     1      51.492   4.355  18.848  0.00  0.00    +0.000 A 
ATOM      8  C   UNL     1      51.542   3.223  18.015  0.00  0.00    +0.000 A 
ATOM      9  C   UNL     1      50.353   2.870  17.349  0.00  0.00    +0.000 A 
BRANCH   8  10
ATOM     10  C   UNL     1      52.779   2.418  17.858  0.00  0.00    +0.000 A 
ATOM     11  C   UNL     1      52.729   1.034  17.602  0.00  0.00    +0.000 A 
ATOM     12  C   UNL     1      53.894   0.280  17.413  0.00  0.00    +0.000 A 
ATOM     13  C   UNL     1      55.139   0.897  17.466  0.00  0.00    +0.000 A 
ATOM     14  C   UNL     1      55.222   2.260  17.726  0.00  0.00    +0.000 A 
ATOM     15  C   UNL     1      54.055   3.006  17.929  0.00  0.00    +0.000 A 
ENDBRANCH   8  10
ENDBRANCH   1   4
BRANCH   1  16
ATOM     16  C   UNL     1      47.320   4.336  15.972  0.00  0.00    +0.000 C 
BRANCH  16  17
ATOM     17  O   UNL     1      47.777   4.327  14.610  0.00  0.00    +0.000 OA
BRANCH  17  21
ATOM     18  C   UNL     1      45.123   7.353  11.711  0.00  0.00    +0.000 C 
ATOM     19  C   UNL     1      45.463   5.963  12.175  0.00  0.00    +0.000 A 
ATOM     20  C   UNL     1      46.448   5.820  13.175  0.00  0.00    +0.000 A 
ATOM     21  C   UNL     1      46.827   4.563  13.650  0.00  0.00    +0.000 A 
ATOM     22  C   UNL     1      46.206   3.430  13.129  0.00  0.00    +0.000 A 
ATOM     23  C   UNL     1      45.223   3.548  12.141  0.00  0.00    +0.000 A 
ATOM     24  C   UNL     1      44.848   4.809  11.647  0.00  0.00    +0.000 A 
BRANCH  24  25
ATOM     25  C   UNL     1      43.784   4.910  10.597  0.00  0.00    +0.000 C 
ATOM     26  N   UNL     1      44.155   4.672   9.302  0.00  0.00    +0.000 N 
ATOM     27  O   UNL     1      42.627   5.209  10.851  0.00  0.00    +0.000 OA
ATOM     28  H   UNL     1      45.118   4.605   9.001  0.00  0.00    +0.000 HD
ATOM     29  H   UNL     1      43.446   4.827   8.597  0.00  0.00    +0.000 HD
ENDBRANCH  24  25
ENDBRANCH  17  21
ENDBRANCH  16  17
ENDBRANCH   1  16
TORSDOF 6
ENDMDL
MODEL 8
REMARK VINA RESULT:    -6.804      3.627      8.236
REMARK INTER + INTRA:         -10.492
REMARK INTER:                  -9.453
REMARK INTRA:                  -1.039
REMARK UNBOUND:                -1.300
REMARK  Name = 
REMARK  7 active torsions:
REMARK  status: ('A' for Active; 'I' for Inactive)
REMARK    1  A    between atoms: C_1  and  C_2
REMARK    2  A    between atoms: C_4  and  O_5
REMARK    3  A    between atoms: O_5  and  C_6
REMARK    4  A    between atoms: C_6  and  C_7
REMARK    5  A    between atoms: C_7  and  C_10
REMARK    6  A    between atoms: C_14  and  C_15
REMARK    7  A    between atoms: C_24  and  C_25
REMARK                            x       y       z     vdW  Elec       q    Type
REMARK                         _______ _______ _______ _____ _____    ______ ____
ROOT
ATOM      1  C   UNL     1      44.490   6.668  11.306  0.00  0.00    +0.000 C 
ATOM      2  F   UNL     1      45.342   7.341  10.479  0.00  0.00    +0.000 F 
ATOM      3  F   UNL     1      43.292   7.317  11.205  0.00  0.00    +0.000 F 
ENDROOT
BRANCH   1   4
ATOM      4  C   UNL     1      44.365   5.203  10.924  0.00  0.00    +0.000 A 
ATOM      5  C   UNL     1      43.494   4.348  11.610  0.00  0.00    +0.000 A 
ATOM      6  C   UNL     1      43.381   3.015  11.227  0.00  0.00    +0.000 A 
ATOM      7  C   UNL     1      44.135   2.521  10.156  0.00  0.00    +0.000 A 
ATOM      8  C   UNL     1      45.008   3.349   9.428  0.00  0.00    +0.000 A 
ATOM      9  C   UNL     1      45.102   4.692   9.838  0.00  0.00    +0.000 A 
BRANCH   8  10
ATOM     10  C   UNL     1      45.779   2.845   8.264  0.00  0.00    +0.000 A 
ATOM     11  C   UNL     1      46.097   3.679   7.174  0.00  0.00    +0.000 A 
ATOM     12  C   UNL     1      46.858   3.217   6.095  0.00  0.00    +0.000 A 
ATOM     13  C   UNL     1      47.332   1.910   6.084  0.00  0.00    +0.000 A 
ATOM     14  C   UNL     1      47.028   1.059   7.141  0.00  0.00    +0.000 A 
ATOM     15  C   UNL     1      46.253   1.521   8.211  0.00  0.00    +0.000 A 
ENDBRANCH   8  10
ENDBRANCH   1   4
BRANCH   1  16
ATOM     16  C   UNL     1      45.001   6.785  12.751  0.00  0.00    +0.000 C 
BRANCH  16  17
ATOM     17  O   UNL     1      45.740   8.001  12.953  0.00  0.00    +0.000 OA
BRANCH  17  21
ATOM     18  C   UNL     1      49.394   9.856  15.748  0.00  0.00    +0.000 C 
ATOM     19  C   UNL     1      48.776   8.695  15.018  0.00  0.00    +0.000 A 
ATOM     20  C   UNL     1      47.564   8.914  14.331  0.00  0.00    +0.000 A 
ATOM     21  C   UNL     1      46.921   7.885  13.640  0.00  0.00    +0.000 A 
ATOM     22  C   UNL     1      47.503   6.618  13.622  0.00  0.00    +0.000 A 
ATOM     23  C   UNL     1      48.708   6.380  14.292  0.00  0.00    +0.000 A 
ATOM     24  C   UNL     1      49.351   7.408  15.003  0.00  0.00    +0.000 A 
BRANCH  24  25
ATOM     25  C   UNL     1      50.646   7.129  15.702  0.00  0.00    +0.000 C 
ATOM     26  N   UNL     1      51.800   7.392  15.016  0.00  0.00    +0.000 N 
ATOM     27  O   UNL     1      50.706   6.667  16.832  0.00  0.00    +0.000 OA
ATOM     28  H   UNL     1      51.826   7.595  14.024  0.00  0.00    +0.000 HD
ATOM     29  H   UNL     1      52.663   7.120  15.468  0.00  0.00    +0.000 HD
ENDBRANCH  24  25
ENDBRANCH  17  21
ENDBRANCH  16  17
ENDBRANCH   1  16
TORSDOF 6
ENDMDL
MODEL 9
REMARK VINA RESULT:    -6.571      4.972      8.287
REMARK INTER + INTRA:         -10.176
REMARK INTER:                  -8.368
REMARK INTRA:                  -1.808
REMARK UNBOUND:                -1.300
REMARK  Name = 
REMARK  7 active torsions:
REMARK  status: ('A' for Active; 'I' for Inactive)
REMARK    1  A    between atoms: C_1  and  C_2
REMARK    2  A    between atoms: C_4  and  O_5
REMARK    3  A    between atoms: O_5  and  C_6
REMARK    4  A    between atoms: C_6  and  C_7
REMARK    5  A    between atoms: C_7  and  C_10
REMARK    6  A    between atoms: C_14  and  C_15
REMARK    7  A    between atoms: C_24  and  C_25
REMARK                            x       y       z     vdW  Elec       q    Type
REMARK                         _______ _______ _______ _____ _____    ______ ____
ROOT
ATOM      1  C   UNL     1      48.925   9.335  16.365  0.00  0.00    +0.000 C 
ATOM      2  F   UNL     1      49.344  10.633  16.318  0.00  0.00    +0.000 F 
ATOM      3  F   UNL     1      47.606   9.387  16.718  0.00  0.00    +0.000 F 
ENDROOT
BRANCH   1   4
ATOM      4  C   UNL     1      49.120   8.626  15.036  0.00  0.00    +0.000 A 
ATOM      5  C   UNL     1      50.262   8.847  14.258  0.00  0.00    +0.000 A 
ATOM      6  C   UNL     1      50.428   8.168  13.054  0.00  0.00    +0.000 A 
ATOM      7  C   UNL     1      49.456   7.262  12.615  0.00  0.00    +0.000 A 
ATOM      8  C   UNL     1      48.302   6.995  13.374  0.00  0.00    +0.000 A 
ATOM      9  C   UNL     1      48.162   7.697  14.586  0.00  0.00    +0.000 A 
BRANCH   8  10
ATOM     10  C   UNL     1      47.288   6.003  12.938  0.00  0.00    +0.000 A 
ATOM     11  C   UNL     1      47.063   4.814  13.657  0.00  0.00    +0.000 A 
ATOM     12  C   UNL     1      46.079   3.897  13.271  0.00  0.00    +0.000 A 
ATOM     13  C   UNL     1      45.285   4.154  12.158  0.00  0.00    +0.000 A 
ATOM     14  C   UNL     1      45.488   5.316  11.422  0.00  0.00    +0.000 A 
ATOM     15  C   UNL     1      46.484   6.222  11.803  0.00  0.00    +0.000 A 
ENDBRANCH   8  10
ENDBRANCH   1   4
BRANCH   1  16
ATOM     16  C   UNL     1      49.708   8.598  17.465  0.00  0.00    +0.000 C 
BRANCH  16  17
ATOM     17  O   UNL     1      48.875   7.664  18.171  0.00  0.00    +0.000 OA
BRANCH  17  21
ATOM     18  C   UNL     1      47.281   3.023  17.449  0.00  0.00    +0.000 C 
ATOM     19  C   UNL     1      48.411   4.014  17.523  0.00  0.00    +0.000 A 
ATOM     20  C   UNL     1      48.096   5.356  17.822  0.00  0.00    +0.000 A 
ATOM     21  C   UNL     1      49.087   6.337  17.897  0.00  0.00    +0.000 A 
ATOM     22  C   UNL     1      50.415   5.973  17.684  0.00  0.00    +0.000 A 
ATOM     23  C   UNL     1      50.750   4.646  17.392  0.00  0.00    +0.000 A 
ATOM     24  C   UNL     1      49.756   3.657  17.299  0.00  0.00    +0.000 A 
BRANCH  24  25
ATOM     25  C   UNL     1      50.143   2.242  16.997  0.00  0.00    +0.000 C 
ATOM     26  N   UNL     1      50.955   1.606  17.897  0.00  0.00    +0.000 N 
ATOM     27  O   UNL     1      49.782   1.656  15.988  0.00  0.00    +0.000 OA
ATOM     28  H   UNL     1      51.438   2.084  18.647  0.00  0.00    +0.000 HD
ATOM     29  H   UNL     1      51.276   0.683  17.637  0.00  0.00    +0.000 HD
ENDBRANCH  24  25
ENDBRANCH  17  21
ENDBRANCH  16  17
ENDBRANCH   1  16
TORSDOF 6
ENDMDL
