MODEL 1
REMARK VINA RESULT:    -8.033      0.000      0.000
REMARK INTER + INTRA:         -12.056
REMARK INTER:                 -10.850
REMARK INTRA:                  -1.206
REMARK UNBOUND:                -1.206
REMARK  Name = 
REMARK  6 active torsions:
REMARK  status: ('A' for Active; 'I' for Inactive)
REMARK    1  A    between atoms: C_2  and  C_21
REMARK    2  A    between atoms: N_3  and  C_4
REMARK    3  A    between atoms: C_4  and  C_5
REMARK    4  A    between atoms: C_8  and  C_9
REMARK    5  A    between atoms: C_9  and  N_10
REMARK    6  A    between atoms: C_11  and  C_13
REMARK                            x       y       z     vdW  Elec       q    Type
REMARK                         _______ _______ _______ _____ _____    ______ ____
ROOT
ATOM      1  C   UNL     1      46.175   7.221  12.492  0.00  0.00    +0.000 A 
ATOM      2  C   UNL     1      46.743   6.582  11.381  0.00  0.00    +0.000 A 
ATOM      3  C   UNL     1      45.959   5.794  10.529  0.00  0.00    +0.000 A 
ATOM      4  C   UNL     1      44.584   5.646  10.755  0.00  0.00    +0.000 A 
ATOM      5  C   UNL     1      44.015   6.293  11.859  0.00  0.00    +0.000 A 
ATOM      6  C   UNL     1      44.798   7.082  12.711  0.00  0.00    +0.000 A 
ENDROOT
BRANCH   1   7
ATOM      7  C   UNL     1      47.028   8.048  13.421  0.00  0.00    +0.000 C 
BRANCH   7  10
ATOM      8  O   UNL     1      49.491   6.831  13.739  0.00  0.00    +0.000 OA
ATOM      9  C   UNL     1      48.706   6.799  14.683  0.00  0.00    +0.000 C 
ATOM     10  N   UNL     1      47.435   7.311  14.591  0.00  0.00    +0.000 N 
ATOM     11  H   UNL     1      46.898   7.461  15.439  0.00  0.00    +0.000 HD
BRANCH   9  12
ATOM     12  C   UNL     1      49.076   6.173  15.958  0.00  0.00    +0.000 A 
ATOM     13  C   UNL     1      50.093   6.718  16.731  0.00  0.00    +0.000 A 
ATOM     14  S   UNL     1      50.395   5.856  18.171  0.00  0.00    +0.000 S 
ATOM     15  C   UNL     1      49.144   4.754  17.838  0.00  0.00    +0.000 A 
ATOM     16  N   UNL     1      48.839   3.755  18.711  0.00  0.00    +0.000 NA
ATOM     17  C   UNL     1      47.841   3.018  18.348  0.00  0.00    +0.000 A 
ATOM     18  N   UNL     1      47.129   3.182  17.190  0.00  0.00    +0.000 N 
ATOM     19  C   UNL     1      47.426   4.148  16.260  0.00  0.00    +0.000 A 
ATOM     20  O   UNL     1      46.810   4.226  15.201  0.00  0.00    +0.000 OA
ATOM     21  C   UNL     1      48.523   5.021  16.631  0.00  0.00    +0.000 A 
ATOM     22  H   UNL     1      46.369   2.557  16.958  0.00  0.00    +0.000 HD
ENDBRANCH   9  12
ENDBRANCH   7  10
ENDBRANCH   1   7
BRANCH   4  23
ATOM     23  C   UNL     1      43.736   4.810   9.827  0.00  0.00    +0.000 C 
BRANCH  23  24
ATOM     24  N   UNL     1      44.515   4.204   8.771  0.00  0.00    +0.000 N 
ATOM     25  C   UNL     1      44.829   2.861   8.806  0.00  0.00    +0.000 C 
ATOM     26  O   UNL     1      44.486   2.127   9.729  0.00  0.00    +0.000 OA
ATOM     27  H   UNL     1      44.661   4.734   7.921  0.00  0.00    +0.000 HD
BRANCH  25  28
ATOM     28  C   UNL     1      45.592   2.359   7.580  0.00  0.00    +0.000 C 
ATOM     29  C   UNL     1      46.551   1.211   7.930  0.00  0.00    +0.000 C 
ATOM     30  C   UNL     1      47.376   0.804   6.715  0.00  0.00    +0.000 C 
ATOM     31  O   UNL     1      48.082   1.925   6.185  0.00  0.00    +0.000 OA
ATOM     32  C   UNL     1      47.205   2.959   5.749  0.00  0.00    +0.000 C 
ATOM     33  C   UNL     1      46.378   3.492   6.911  0.00  0.00    +0.000 C 
ENDBRANCH  25  28
ENDBRANCH  23  24
ENDBRANCH   4  23
TORSDOF 6
ENDMDL
MODEL 2
REMARK VINA RESULT:    -7.975      2.055      2.317
REMARK INTER + INTRA:         -11.979
REMARK INTER:                 -11.102
REMARK INTRA:                  -0.877
REMARK UNBOUND:                -1.206
REMARK  Name = 
REMARK  6 active torsions:
REMARK  status: ('A' for Active; 'I' for Inactive)
REMARK    1  A    between atoms: C_2  and  C_21
REMARK    2  A    between atoms: N_3  and  C_4
REMARK    3  A    between atoms: C_4  and  C_5
REMARK    4  A    between atoms: C_8  and  C_9
REMARK    5  A    between atoms: C_9  and  N_10
REMARK    6  A    between atoms: C_11  and  C_13
REMARK                            x       y       z     vdW  Elec       q    Type
REMARK                         _______ _______ _______ _____ _____    ______ ____
ROOT
ATOM      1  C   UNL     1      47.304   6.043  13.383  0.00  0.00    +0.000 A 
ATOM      2  C   UNL     1      46.600   6.489  12.256  0.00  0.00    +0.000 A 
ATOM      3  C   UNL     1      45.702   5.644  11.591  0.00  0.00    +0.000 A 
ATOM      4  C   UNL     1      45.469   4.342  12.053  0.00  0.00    +0.000 A 
ATOM      5  C   UNL     1      46.165   3.900  13.186  0.00  0.00    +0.000 A 
ATOM      6  C   UNL     1      47.063   4.744  13.851  0.00  0.00    +0.000 A 
ENDROOT
BRANCH   1   7
ATOM      7  C   UNL     1      48.289   6.947  14.080  0.00  0.00    +0.000 C 
BRANCH   7  10
ATOM      8  O   UNL     1      50.131   6.191  16.000  0.00  0.00    +0.000 OA
ATOM      9  C   UNL     1      49.066   6.673  16.380  0.00  0.00    +0.000 C 
ATOM     10  N   UNL     1      48.064   7.007  15.503  0.00  0.00    +0.000 N 
ATOM     11  H   UNL     1      47.299   7.592  15.823  0.00  0.00    +0.000 HD
BRANCH   9  12
ATOM     12  C   UNL     1      48.794   6.882  17.807  0.00  0.00    +0.000 A 
ATOM     13  C   UNL     1      48.515   8.156  18.282  0.00  0.00    +0.000 A 
ATOM     14  S   UNL     1      48.235   8.214  19.964  0.00  0.00    +0.000 S 
ATOM     15  C   UNL     1      48.426   6.531  20.108  0.00  0.00    +0.000 A 
ATOM     16  N   UNL     1      48.273   5.908  21.309  0.00  0.00    +0.000 NA
ATOM     17  C   UNL     1      48.408   4.624  21.263  0.00  0.00    +0.000 A 
ATOM     18  N   UNL     1      48.690   3.908  20.130  0.00  0.00    +0.000 N 
ATOM     19  C   UNL     1      48.894   4.495  18.905  0.00  0.00    +0.000 A 
ATOM     20  O   UNL     1      49.210   3.830  17.923  0.00  0.00    +0.000 OA
ATOM     21  C   UNL     1      48.728   5.936  18.897  0.00  0.00    +0.000 A 
ATOM     22  H   UNL     1      48.799   2.903  20.168  0.00  0.00    +0.000 HD
ENDBRANCH   9  12
ENDBRANCH   7  10
ENDBRANCH   1   7
BRANCH   4  23
ATOM     23  C   UNL     1      44.488   3.437  11.347  0.00  0.00    +0.000 C 
BRANCH  23  24
ATOM     24  N   UNL     1      45.069   2.801  10.186  0.00  0.00    +0.000 N 
ATOM     25  C   UNL     1      44.893   3.335   8.925  0.00  0.00    +0.000 C 
ATOM     26  O   UNL     1      44.229   4.349   8.725  0.00  0.00    +0.000 OA
ATOM     27  H   UNL     1      45.757   2.075  10.334  0.00  0.00    +0.000 HD
BRANCH  25  28
ATOM     28  C   UNL     1      45.632   2.588   7.815  0.00  0.00    +0.000 C 
ATOM     29  C   UNL     1      46.202   1.248   8.304  0.00  0.00    +0.000 C 
ATOM     30  C   UNL     1      47.024   0.577   7.211  0.00  0.00    +0.000 C 
ATOM     31  O   UNL     1      48.061   1.444   6.755  0.00  0.00    +0.000 OA
ATOM     32  C   UNL     1      47.551   2.649   6.193  0.00  0.00    +0.000 C 
ATOM     33  C   UNL     1      46.766   3.439   7.231  0.00  0.00    +0.000 C 
ENDBRANCH  25  28
ENDBRANCH  23  24
ENDBRANCH   4  23
TORSDOF 6
ENDMDL
MODEL 3
REMARK VINA RESULT:    -7.929      2.102      3.497
REMARK INTER + INTRA:         -11.916
REMARK INTER:                 -10.789
REMARK INTRA:                  -1.127
REMARK UNBOUND:                -1.206
REMARK  Name = 
REMARK  6 active torsions:
REMARK  status: ('A' for Active; 'I' for Inactive)
REMARK    1  A    between atoms: C_2  and  C_21
REMARK    2  A    between atoms: N_3  and  C_4
REMARK    3  A    between atoms: C_4  and  C_5
REMARK    4  A    between atoms: C_8  and  C_9
REMARK    5  A    between atoms: C_9  and  N_10
REMARK    6  A    between atoms: C_11  and  C_13
REMARK                            x       y       z     vdW  Elec       q    Type
REMARK                         _______ _______ _______ _____ _____    ______ ____
ROOT
ATOM      1  C   UNL     1      46.071   4.305  13.506  0.00  0.00    +0.000 A 
ATOM      2  C   UNL     1      45.768   5.561  12.964  0.00  0.00    +0.000 A 
ATOM      3  C   UNL     1      45.094   5.671  11.741  0.00  0.00    +0.000 A 
ATOM      4  C   UNL     1      44.686   4.526  11.044  0.00  0.00    +0.000 A 
ATOM      5  C   UNL     1      44.979   3.270  11.592  0.00  0.00    +0.000 A 
ATOM      6  C   UNL     1      45.653   3.160  12.815  0.00  0.00    +0.000 A 
ENDROOT
BRANCH   1   7
ATOM      7  C   UNL     1      46.820   4.192  14.811  0.00  0.00    +0.000 C 
BRANCH   7  10
ATOM      8  O   UNL     1      48.863   4.447  16.658  0.00  0.00    +0.000 OA
ATOM      9  C   UNL     1      48.472   5.462  16.086  0.00  0.00    +0.000 C 
ATOM     10  N   UNL     1      47.415   5.443  15.210  0.00  0.00    +0.000 N 
ATOM     11  H   UNL     1      47.261   6.241  14.601  0.00  0.00    +0.000 HD
BRANCH   9  12
ATOM     12  C   UNL     1      49.099   6.765  16.340  0.00  0.00    +0.000 A 
ATOM     13  C   UNL     1      49.229   7.232  17.641  0.00  0.00    +0.000 A 
ATOM     14  S   UNL     1      49.969   8.765  17.747  0.00  0.00    +0.000 S 
ATOM     15  C   UNL     1      50.189   8.835  16.062  0.00  0.00    +0.000 A 
ATOM     16  N   UNL     1      50.814   9.896  15.481  0.00  0.00    +0.000 NA
ATOM     17  C   UNL     1      50.947   9.797  14.199  0.00  0.00    +0.000 A 
ATOM     18  N   UNL     1      50.504   8.742  13.447  0.00  0.00    +0.000 N 
ATOM     19  C   UNL     1      49.832   7.671  13.983  0.00  0.00    +0.000 A 
ATOM     20  O   UNL     1      49.391   6.773  13.272  0.00  0.00    +0.000 OA
ATOM     21  C   UNL     1      49.679   7.720  15.424  0.00  0.00    +0.000 A 
ATOM     22  H   UNL     1      50.626   8.737  12.443  0.00  0.00    +0.000 HD
ENDBRANCH   9  12
ENDBRANCH   7  10
ENDBRANCH   1   7
BRANCH   4  23
ATOM     23  C   UNL     1      43.944   4.644   9.735  0.00  0.00    +0.000 C 
BRANCH  23  24
ATOM     24  N   UNL     1      44.425   3.703   8.747  0.00  0.00    +0.000 N 
ATOM     25  C   UNL     1      45.572   3.962   8.025  0.00  0.00    +0.000 C 
ATOM     26  O   UNL     1      46.221   4.995   8.165  0.00  0.00    +0.000 OA
ATOM     27  H   UNL     1      44.018   2.777   8.733  0.00  0.00    +0.000 HD
BRANCH  25  28
ATOM     28  C   UNL     1      45.987   2.837   7.077  0.00  0.00    +0.000 C 
ATOM     29  C   UNL     1      46.683   1.686   7.820  0.00  0.00    +0.000 C 
ATOM     30  C   UNL     1      47.183   0.632   6.841  0.00  0.00    +0.000 C 
ATOM     31  O   UNL     1      48.047   1.215   5.866  0.00  0.00    +0.000 OA
ATOM     32  C   UNL     1      47.389   2.209   5.087  0.00  0.00    +0.000 C 
ATOM     33  C   UNL     1      46.909   3.355   5.967  0.00  0.00    +0.000 C 
ENDBRANCH  25  28
ENDBRANCH  23  24
ENDBRANCH   4  23
TORSDOF 6
ENDMDL
MODEL 4
REMARK VINA RESULT:    -7.777      2.579      3.013
REMARK INTER + INTRA:         -11.711
REMARK INTER:                 -10.615
REMARK INTRA:                  -1.096
REMARK UNBOUND:                -1.206
REMARK  Name = 
REMARK  6 active torsions:
REMARK  status: ('A' for Active; 'I' for Inactive)
REMARK    1  A    between atoms: C_2  and  C_21
REMARK    2  A    between atoms: N_3  and  C_4
REMARK    3  A    between atoms: C_4  and  C_5
REMARK    4  A    between atoms: C_8  and  C_9
REMARK    5  A    between atoms: C_9  and  N_10
REMARK    6  A    between atoms: C_11  and  C_13
REMARK                            x       y       z     vdW  Elec       q    Type
REMARK                         _______ _______ _______ _____ _____    ______ ____
ROOT
ATOM      1  C   UNL     1      47.275   5.772  13.569  0.00  0.00    +0.000 A 
ATOM      2  C   UNL     1      46.682   6.389  12.460  0.00  0.00    +0.000 A 
ATOM      3  C   UNL     1      45.761   5.698  11.662  0.00  0.00    +0.000 A 
ATOM      4  C   UNL     1      45.394   4.381  11.970  0.00  0.00    +0.000 A 
ATOM      5  C   UNL     1      45.980   3.768  13.086  0.00  0.00    +0.000 A 
ATOM      6  C   UNL     1      46.901   4.459  13.884  0.00  0.00    +0.000 A 
ENDROOT
BRANCH   1   7
ATOM      7  C   UNL     1      48.285   6.512  14.410  0.00  0.00    +0.000 C 
BRANCH   7  10
ATOM      8  O   UNL     1      50.177   5.734  16.272  0.00  0.00    +0.000 OA
ATOM      9  C   UNL     1      49.058   6.037  16.679  0.00  0.00    +0.000 C 
ATOM     10  N   UNL     1      48.035   6.363  15.822  0.00  0.00    +0.000 N 
ATOM     11  H   UNL     1      47.202   6.811  16.192  0.00  0.00    +0.000 HD
BRANCH   9  12
ATOM     12  C   UNL     1      48.744   6.029  18.112  0.00  0.00    +0.000 A 
ATOM     13  C   UNL     1      48.994   4.895  18.873  0.00  0.00    +0.000 A 
ATOM     14  S   UNL     1      48.559   5.061  20.514  0.00  0.00    +0.000 S 
ATOM     15  C   UNL     1      48.068   6.672  20.276  0.00  0.00    +0.000 A 
ATOM     16  N   UNL     1      47.613   7.426  21.314  0.00  0.00    +0.000 NA
ATOM     17  C   UNL     1      47.314   8.642  20.997  0.00  0.00    +0.000 A 
ATOM     18  N   UNL     1      47.419   9.169  19.737  0.00  0.00    +0.000 N 
ATOM     19  C   UNL     1      47.833   8.436  18.652  0.00  0.00    +0.000 A 
ATOM     20  O   UNL     1      47.853   8.920  17.524  0.00  0.00    +0.000 OA
ATOM     21  C   UNL     1      48.207   7.069  18.959  0.00  0.00    +0.000 A 
ATOM     22  H   UNL     1      47.150  10.127  19.554  0.00  0.00    +0.000 HD
ENDBRANCH   9  12
ENDBRANCH   7  10
ENDBRANCH   1   7
BRANCH   4  23
ATOM     23  C   UNL     1      44.389   3.641  11.121  0.00  0.00    +0.000 C 
BRANCH  23  24
ATOM     24  N   UNL     1      45.011   2.956  10.010  0.00  0.00    +0.000 N 
ATOM     25  C   UNL     1      44.956   3.483   8.735  0.00  0.00    +0.000 C 
ATOM     26  O   UNL     1      44.370   4.532   8.479  0.00  0.00    +0.000 OA
ATOM     27  H   UNL     1      45.643   2.193  10.213  0.00  0.00    +0.000 HD
BRANCH  25  28
ATOM     28  C   UNL     1      45.725   2.679   7.687  0.00  0.00    +0.000 C 
ATOM     29  C   UNL     1      46.220   1.335   8.242  0.00  0.00    +0.000 C 
ATOM     30  C   UNL     1      47.074   0.605   7.213  0.00  0.00    +0.000 C 
ATOM     31  O   UNL     1      48.164   1.422   6.789  0.00  0.00    +0.000 OA
ATOM     32  C   UNL     1      47.727   2.626   6.168  0.00  0.00    +0.000 C 
ATOM     33  C   UNL     1      46.918   3.473   7.141  0.00  0.00    +0.000 C 
ENDBRANCH  25  28
ENDBRANCH  23  24
ENDBRANCH   4  23
TORSDOF 6
ENDMDL
MODEL 5
REMARK VINA RESULT:    -7.369      1.544      1.932
REMARK INTER + INTRA:         -11.160
REMARK INTER:                  -9.917
REMARK INTRA:                  -1.243
REMARK UNBOUND:                -1.206
REMARK  Name = 
REMARK  6 active torsions:
REMARK  status: ('A' for Active; 'I' for Inactive)
REMARK    1  A    between atoms: C_2  and  C_21
REMARK    2  A    between atoms: N_3  and  C_4
REMARK    3  A    between atoms: C_4  and  C_5
REMARK    4  A    between atoms: C_8  and  C_9
REMARK    5  A    between atoms: C_9  and  N_10
REMARK    6  A    between atoms: C_11  and  C_13
REMARK                            x       y       z     vdW  Elec       q    Type
REMARK                         _______ _______ _______ _____ _____    ______ ____
ROOT
ATOM      1  C   UNL     1      47.816   8.028  13.330  0.00  0.00    +0.000 A 
ATOM      2  C   UNL     1      47.983   6.834  12.617  0.00  0.00    +0.000 A 
ATOM      3  C   UNL     1      46.920   6.275  11.896  0.00  0.00    +0.000 A 
ATOM      4  C   UNL     1      45.672   6.911  11.852  0.00  0.00    +0.000 A 
ATOM      5  C   UNL     1      45.509   8.111  12.557  0.00  0.00    +0.000 A 
ATOM      6  C   UNL     1      46.572   8.670  13.278  0.00  0.00    +0.000 A 
ENDROOT
BRANCH   1   7
ATOM      7  C   UNL     1      48.957   8.613  14.126  0.00  0.00    +0.000 C 
BRANCH   7  10
ATOM      8  O   UNL     1      47.926   9.159  16.634  0.00  0.00    +0.000 OA
ATOM      9  C   UNL     1      48.627   8.158  16.504  0.00  0.00    +0.000 C 
ATOM     10  N   UNL     1      49.241   7.849  15.315  0.00  0.00    +0.000 N 
ATOM     11  H   UNL     1      49.628   6.920  15.184  0.00  0.00    +0.000 HD
BRANCH   9  12
ATOM     12  C   UNL     1      48.877   7.254  17.633  0.00  0.00    +0.000 A 
ATOM     13  C   UNL     1      49.312   7.764  18.849  0.00  0.00    +0.000 A 
ATOM     14  S   UNL     1      49.559   6.571  20.043  0.00  0.00    +0.000 S 
ATOM     15  C   UNL     1      49.044   5.336  18.992  0.00  0.00    +0.000 A 
ATOM     16  N   UNL     1      48.978   4.043  19.410  0.00  0.00    +0.000 NA
ATOM     17  C   UNL     1      48.532   3.218  18.520  0.00  0.00    +0.000 A 
ATOM     18  N   UNL     1      48.157   3.568  17.250  0.00  0.00    +0.000 N 
ATOM     19  C   UNL     1      48.245   4.852  16.771  0.00  0.00    +0.000 A 
ATOM     20  O   UNL     1      47.962   5.120  15.607  0.00  0.00    +0.000 OA
ATOM     21  C   UNL     1      48.716   5.822  17.740  0.00  0.00    +0.000 A 
ATOM     22  H   UNL     1      47.832   2.867  16.597  0.00  0.00    +0.000 HD
ENDBRANCH   9  12
ENDBRANCH   7  10
ENDBRANCH   1   7
BRANCH   4  23
ATOM     23  C   UNL     1      44.532   6.318  11.061  0.00  0.00    +0.000 C 
BRANCH  23  24
ATOM     24  N   UNL     1      44.990   5.386  10.055  0.00  0.00    +0.000 N 
ATOM     25  C   UNL     1      44.307   4.210   9.818  0.00  0.00    +0.000 C 
ATOM     26  O   UNL     1      43.305   3.890  10.451  0.00  0.00    +0.000 OA
ATOM     27  H   UNL     1      45.700   5.696   9.405  0.00  0.00    +0.000 HD
BRANCH  25  28
ATOM     28  C   UNL     1      44.875   3.371   8.674  0.00  0.00    +0.000 C 
ATOM     29  C   UNL     1      45.458   2.039   9.171  0.00  0.00    +0.000 C 
ATOM     30  C   UNL     1      46.113   1.273   8.029  0.00  0.00    +0.000 C 
ATOM     31  O   UNL     1      47.112   2.069   7.394  0.00  0.00    +0.000 OA
ATOM     32  C   UNL     1      46.574   3.259   6.825  0.00  0.00    +0.000 C 
ATOM     33  C   UNL     1      45.954   4.139   7.901  0.00  0.00    +0.000 C 
ENDBRANCH  25  28
ENDBRANCH  23  24
ENDBRANCH   4  23
TORSDOF 6
ENDMDL
MODEL 6
REMARK VINA RESULT:    -6.903      3.027      4.135
REMARK INTER + INTRA:         -10.531
REMARK INTER:                  -9.562
REMARK INTRA:                  -0.969
REMARK UNBOUND:                -1.206
REMARK  Name = 
REMARK  6 active torsions:
REMARK  status: ('A' for Active; 'I' for Inactive)
REMARK    1  A    between atoms: C_2  and  C_21
REMARK    2  A    between atoms: N_3  and  C_4
REMARK    3  A    between atoms: C_4  and  C_5
REMARK    4  A    between atoms: C_8  and  C_9
REMARK    5  A    between atoms: C_9  and  N_10
REMARK    6  A    between atoms: C_11  and  C_13
REMARK                            x       y       z     vdW  Elec       q    Type
REMARK                         _______ _______ _______ _____ _____    ______ ____
ROOT
ATOM      1  C   UNL     1      47.604   6.215  13.475  0.00  0.00    +0.000 A 
ATOM      2  C   UNL     1      47.478   6.933  12.279  0.00  0.00    +0.000 A 
ATOM      3  C   UNL     1      46.537   6.557  11.312  0.00  0.00    +0.000 A 
ATOM      4  C   UNL     1      45.683   5.467  11.531  0.00  0.00    +0.000 A 
ATOM      5  C   UNL     1      45.802   4.755  12.732  0.00  0.00    +0.000 A 
ATOM      6  C   UNL     1      46.743   5.132  13.699  0.00  0.00    +0.000 A 
ENDROOT
BRANCH   1   7
ATOM      7  C   UNL     1      48.636   6.609  14.502  0.00  0.00    +0.000 C 
BRANCH   7  10
ATOM      8  O   UNL     1      49.773   7.043  16.986  0.00  0.00    +0.000 OA
ATOM      9  C   UNL     1      48.772   7.690  16.688  0.00  0.00    +0.000 C 
ATOM     10  N   UNL     1      48.098   7.488  15.509  0.00  0.00    +0.000 N 
ATOM     11  H   UNL     1      47.417   8.176  15.203  0.00  0.00    +0.000 HD
BRANCH   9  12
ATOM     12  C   UNL     1      48.219   8.696  17.603  0.00  0.00    +0.000 A 
ATOM     13  C   UNL     1      47.711   8.310  18.837  0.00  0.00    +0.000 A 
ATOM     14  S   UNL     1      47.102   9.606  19.763  0.00  0.00    +0.000 S 
ATOM     15  C   UNL     1      47.543  10.736  18.570  0.00  0.00    +0.000 A 
ATOM     16  N   UNL     1      47.331  12.068  18.754  0.00  0.00    +0.000 NA
ATOM     17  C   UNL     1      47.750  12.812  17.784  0.00  0.00    +0.000 A 
ATOM     18  N   UNL     1      48.353  12.346  16.646  0.00  0.00    +0.000 N 
ATOM     19  C   UNL     1      48.549  11.009  16.398  0.00  0.00    +0.000 A 
ATOM     20  O   UNL     1      49.032  10.621  15.338  0.00  0.00    +0.000 OA
ATOM     21  C   UNL     1      48.119  10.131  17.468  0.00  0.00    +0.000 A 
ATOM     22  H   UNL     1      48.642  12.984  15.917  0.00  0.00    +0.000 HD
ENDBRANCH   9  12
ENDBRANCH   7  10
ENDBRANCH   1   7
BRANCH   4  23
ATOM     23  C   UNL     1      44.657   5.072  10.497  0.00  0.00    +0.000 C 
BRANCH  23  24
ATOM     24  N   UNL     1      45.254   4.409   9.359  0.00  0.00    +0.000 N 
ATOM     25  C   UNL     1      45.032   3.067   9.126  0.00  0.00    +0.000 C 
ATOM     26  O   UNL     1      44.345   2.373   9.871  0.00  0.00    +0.000 OA
ATOM     27  H   UNL     1      45.675   4.983   8.640  0.00  0.00    +0.000 HD
BRANCH  25  28
ATOM     28  C   UNL     1      45.671   2.536   7.843  0.00  0.00    +0.000 C 
ATOM     29  C   UNL     1      46.420   1.215   8.078  0.00  0.00    +0.000 C 
ATOM     30  C   UNL     1      47.137   0.765   6.812  0.00  0.00    +0.000 C 
ATOM     31  O   UNL     1      48.019   1.783   6.341  0.00  0.00    +0.000 OA
ATOM     32  C   UNL     1      47.330   2.984   6.010  0.00  0.00    +0.000 C 
ATOM     33  C   UNL     1      46.633   3.562   7.233  0.00  0.00    +0.000 C 
ENDBRANCH  25  28
ENDBRANCH  23  24
ENDBRANCH   4  23
TORSDOF 6
ENDMDL
MODEL 7
REMARK VINA RESULT:    -6.508      3.556      4.926
REMARK INTER + INTRA:          -9.997
REMARK INTER:                  -8.804
REMARK INTRA:                  -1.193
REMARK UNBOUND:                -1.206
REMARK  Name = 
REMARK  6 active torsions:
REMARK  status: ('A' for Active; 'I' for Inactive)
REMARK    1  A    between atoms: C_2  and  C_21
REMARK    2  A    between atoms: N_3  and  C_4
REMARK    3  A    between atoms: C_4  and  C_5
REMARK    4  A    between atoms: C_8  and  C_9
REMARK    5  A    between atoms: C_9  and  N_10
REMARK    6  A    between atoms: C_11  and  C_13
REMARK                            x       y       z     vdW  Elec       q    Type
REMARK                         _______ _______ _______ _____ _____    ______ ____
ROOT
ATOM      1  C   UNL     1      47.641   6.694  13.812  0.00  0.00    +0.000 A 
ATOM      2  C   UNL     1      47.066   7.692  13.014  0.00  0.00    +0.000 A 
ATOM      3  C   UNL     1      46.063   7.379  12.086  0.00  0.00    +0.000 A 
ATOM      4  C   UNL     1      45.596   6.065  11.954  0.00  0.00    +0.000 A 
ATOM      5  C   UNL     1      46.164   5.069  12.759  0.00  0.00    +0.000 A 
ATOM      6  C   UNL     1      47.166   5.382  13.687  0.00  0.00    +0.000 A 
ENDROOT
BRANCH   1   7
ATOM      7  C   UNL     1      48.738   7.031  14.790  0.00  0.00    +0.000 C 
BRANCH   7  10
ATOM      8  O   UNL     1      49.921   9.525  14.599  0.00  0.00    +0.000 OA
ATOM      9  C   UNL     1      50.534   8.559  14.150  0.00  0.00    +0.000 C 
ATOM     10  N   UNL     1      49.994   7.297  14.134  0.00  0.00    +0.000 N 
ATOM     11  H   UNL     1      50.599   6.500  13.959  0.00  0.00    +0.000 HD
BRANCH   9  12
ATOM     12  C   UNL     1      51.872   8.714  13.568  0.00  0.00    +0.000 A 
ATOM     13  C   UNL     1      52.927   9.154  14.356  0.00  0.00    +0.000 A 
ATOM     14  S   UNL     1      54.404   9.285  13.514  0.00  0.00    +0.000 S 
ATOM     15  C   UNL     1      53.698   8.709  12.078  0.00  0.00    +0.000 A 
ATOM     16  N   UNL     1      54.442   8.539  10.950  0.00  0.00    +0.000 NA
ATOM     17  C   UNL     1      53.784   8.057   9.947  0.00  0.00    +0.000 A 
ATOM     18  N   UNL     1      52.452   7.739   9.967  0.00  0.00    +0.000 N 
ATOM     19  C   UNL     1      51.653   7.932  11.066  0.00  0.00    +0.000 A 
ATOM     20  O   UNL     1      50.449   7.699  11.030  0.00  0.00    +0.000 OA
ATOM     21  C   UNL     1      52.349   8.448  12.230  0.00  0.00    +0.000 A 
ATOM     22  H   UNL     1      51.995   7.382   9.138  0.00  0.00    +0.000 HD
ENDBRANCH   9  12
ENDBRANCH   7  10
ENDBRANCH   1   7
BRANCH   4  23
ATOM     23  C   UNL     1      44.504   5.731  10.967  0.00  0.00    +0.000 C 
BRANCH  23  24
ATOM     24  N   UNL     1      44.992   4.944   9.856  0.00  0.00    +0.000 N 
ATOM     25  C   UNL     1      44.523   3.665   9.636  0.00  0.00    +0.000 C 
ATOM     26  O   UNL     1      43.696   3.130  10.370  0.00  0.00    +0.000 OA
ATOM     27  H   UNL     1      45.533   5.413   9.142  0.00  0.00    +0.000 HD
BRANCH  25  28
ATOM     28  C   UNL     1      45.081   2.997   8.379  0.00  0.00    +0.000 C 
ATOM     29  C   UNL     1      45.841   1.702   8.706  0.00  0.00    +0.000 C 
ATOM     30  C   UNL     1      46.478   1.116   7.453  0.00  0.00    +0.000 C 
ATOM     31  O   UNL     1      47.331   2.072   6.824  0.00  0.00    +0.000 OA
ATOM     32  C   UNL     1      46.624   3.237   6.410  0.00  0.00    +0.000 C 
ATOM     33  C   UNL     1      46.004   3.946   7.606  0.00  0.00    +0.000 C 
ENDBRANCH  25  28
ENDBRANCH  23  24
ENDBRANCH   4  23
TORSDOF 6
ENDMDL
MODEL 8
REMARK VINA RESULT:    -6.408      3.429      9.566
REMARK INTER + INTRA:          -9.863
REMARK INTER:                  -8.776
REMARK INTRA:                  -1.087
REMARK UNBOUND:                -1.206
REMARK  Name = 
REMARK  6 active torsions:
REMARK  status: ('A' for Active; 'I' for Inactive)
REMARK    1  A    between atoms: C_2  and  C_21
REMARK    2  A    between atoms: N_3  and  C_4
REMARK    3  A    between atoms: C_4  and  C_5
REMARK    4  A    between atoms: C_8  and  C_9
REMARK    5  A    between atoms: C_9  and  N_10
REMARK    6  A    between atoms: C_11  and  C_13
REMARK                            x       y       z     vdW  Elec       q    Type
REMARK                         _______ _______ _______ _____ _____    ______ ____
ROOT
ATOM      1  C   UNL     1      48.215   7.964  13.256  0.00  0.00    +0.000 A 
ATOM      2  C   UNL     1      49.134   7.076  13.832  0.00  0.00    +0.000 A 
ATOM      3  C   UNL     1      49.646   7.307  15.115  0.00  0.00    +0.000 A 
ATOM      4  C   UNL     1      49.232   8.418  15.862  0.00  0.00    +0.000 A 
ATOM      5  C   UNL     1      48.305   9.300  15.290  0.00  0.00    +0.000 A 
ATOM      6  C   UNL     1      47.793   9.069  14.007  0.00  0.00    +0.000 A 
ENDROOT
BRANCH   1   7
ATOM      7  C   UNL     1      47.686   7.725  11.864  0.00  0.00    +0.000 C 
BRANCH   7  10
ATOM      8  O   UNL     1      44.936   7.442  11.937  0.00  0.00    +0.000 OA
ATOM      9  C   UNL     1      45.614   6.438  11.732  0.00  0.00    +0.000 C 
ATOM     10  N   UNL     1      46.987   6.470  11.753  0.00  0.00    +0.000 N 
ATOM     11  H   UNL     1      47.507   5.685  11.373  0.00  0.00    +0.000 HD
BRANCH   9  12
ATOM     12  C   UNL     1      44.986   5.134  11.490  0.00  0.00    +0.000 A 
ATOM     13  C   UNL     1      44.231   4.530  12.486  0.00  0.00    +0.000 A 
ATOM     14  S   UNL     1      43.585   3.017  12.035  0.00  0.00    +0.000 S 
ATOM     15  C   UNL     1      44.249   3.139  10.474  0.00  0.00    +0.000 A 
ATOM     16  N   UNL     1      44.036   2.168   9.544  0.00  0.00    +0.000 NA
ATOM     17  C   UNL     1      44.566   2.412   8.390  0.00  0.00    +0.000 A 
ATOM     18  N   UNL     1      45.296   3.530   8.086  0.00  0.00    +0.000 N 
ATOM     19  C   UNL     1      45.572   4.515   9.003  0.00  0.00    +0.000 A 
ATOM     20  O   UNL     1      46.284   5.472   8.716  0.00  0.00    +0.000 OA
ATOM     21  C   UNL     1      44.977   4.303  10.308  0.00  0.00    +0.000 A 
ATOM     22  H   UNL     1      45.698   3.649   7.166  0.00  0.00    +0.000 HD
ENDBRANCH   9  12
ENDBRANCH   7  10
ENDBRANCH   1   7
BRANCH   4  23
ATOM     23  C   UNL     1      49.770   8.658  17.252  0.00  0.00    +0.000 C 
BRANCH  23  24
ATOM     24  N   UNL     1      49.370   7.623  18.179  0.00  0.00    +0.000 N 
ATOM     25  C   UNL     1      48.162   7.698  18.843  0.00  0.00    +0.000 C 
ATOM     26  O   UNL     1      47.387   8.640  18.699  0.00  0.00    +0.000 OA
ATOM     27  H   UNL     1      49.897   6.760  18.187  0.00  0.00    +0.000 HD
BRANCH  25  28
ATOM     28  C   UNL     1      47.854   6.491  19.729  0.00  0.00    +0.000 C 
ATOM     29  C   UNL     1      47.473   6.908  21.158  0.00  0.00    +0.000 C 
ATOM     30  C   UNL     1      47.278   5.686  22.046  0.00  0.00    +0.000 C 
ATOM     31  O   UNL     1      48.445   4.864  22.040  0.00  0.00    +0.000 OA
ATOM     32  C   UNL     1      48.753   4.373  20.739  0.00  0.00    +0.000 C 
ATOM     33  C   UNL     1      49.040   5.521  19.782  0.00  0.00    +0.000 C 
ENDBRANCH  25  28
ENDBRANCH  23  24
ENDBRANCH   4  23
TORSDOF 6
ENDMDL
MODEL 9
REMARK VINA RESULT:    -6.375      4.469      6.852
REMARK INTER + INTRA:          -9.817
REMARK INTER:                  -8.855
REMARK INTRA:                  -0.962
REMARK UNBOUND:                -1.206
REMARK  Name = 
REMARK  6 active torsions:
REMARK  status: ('A' for Active; 'I' for Inactive)
REMARK    1  A    between atoms: C_2  and  C_21
REMARK    2  A    between atoms: N_3  and  C_4
REMARK    3  A    between atoms: C_4  and  C_5
REMARK    4  A    between atoms: C_8  and  C_9
REMARK    5  A    between atoms: C_9  and  N_10
REMARK    6  A    between atoms: C_11  and  C_13
REMARK                            x       y       z     vdW  Elec       q    Type
REMARK                         _______ _______ _______ _____ _____    ______ ____
ROOT
ATOM      1  C   UNL     1      45.956   6.641  12.672  0.00  0.00    +0.000 A 
ATOM      2  C   UNL     1      46.470   7.836  13.192  0.00  0.00    +0.000 A 
ATOM      3  C   UNL     1      45.933   9.073  12.813  0.00  0.00    +0.000 A 
ATOM      4  C   UNL     1      44.852   9.141  11.924  0.00  0.00    +0.000 A 
ATOM      5  C   UNL     1      44.330   7.945  11.412  0.00  0.00    +0.000 A 
ATOM      6  C   UNL     1      44.868   6.708  11.791  0.00  0.00    +0.000 A 
ENDROOT
BRANCH   1   7
ATOM      7  C   UNL     1      46.555   5.313  13.063  0.00  0.00    +0.000 C 
BRANCH   7  10
ATOM      8  O   UNL     1      47.382   3.046  14.414  0.00  0.00    +0.000 OA
ATOM      9  C   UNL     1      47.424   4.120  15.010  0.00  0.00    +0.000 C 
ATOM     10  N   UNL     1      46.965   5.284  14.445  0.00  0.00    +0.000 N 
ATOM     11  H   UNL     1      47.210   6.173  14.871  0.00  0.00    +0.000 HD
BRANCH   9  12
ATOM     12  C   UNL     1      47.939   4.207  16.381  0.00  0.00    +0.000 A 
ATOM     13  C   UNL     1      47.532   3.286  17.337  0.00  0.00    +0.000 A 
ATOM     14  S   UNL     1      48.222   3.545  18.875  0.00  0.00    +0.000 S 
ATOM     15  C   UNL     1      49.129   4.866  18.306  0.00  0.00    +0.000 A 
ATOM     16  N   UNL     1      49.982   5.537  19.127  0.00  0.00    +0.000 NA
ATOM     17  C   UNL     1      50.635   6.492  18.551  0.00  0.00    +0.000 A 
ATOM     18  N   UNL     1      50.505   6.843  17.234  0.00  0.00    +0.000 N 
ATOM     19  C   UNL     1      49.627   6.224  16.378  0.00  0.00    +0.000 A 
ATOM     20  O   UNL     1      49.487   6.606  15.220  0.00  0.00    +0.000 OA
ATOM     21  C   UNL     1      48.888   5.125  16.969  0.00  0.00    +0.000 A 
ATOM     22  H   UNL     1      51.035   7.614  16.851  0.00  0.00    +0.000 HD
ENDBRANCH   9  12
ENDBRANCH   7  10
ENDBRANCH   1   7
BRANCH   4  23
ATOM     23  C   UNL     1      44.261  10.473  11.528  0.00  0.00    +0.000 C 
BRANCH  23  24
ATOM     24  N   UNL     1      42.828  10.403  11.345  0.00  0.00    +0.000 N 
ATOM     25  C   UNL     1      42.213  11.093  10.320  0.00  0.00    +0.000 C 
ATOM     26  O   UNL     1      42.835  11.805   9.537  0.00  0.00    +0.000 OA
ATOM     27  H   UNL     1      42.316   9.697  11.856  0.00  0.00    +0.000 HD
BRANCH  25  28
ATOM     28  C   UNL     1      40.706  10.855  10.216  0.00  0.00    +0.000 C 
ATOM     29  C   UNL     1      39.971  12.072   9.633  0.00  0.00    +0.000 C 
ATOM     30  C   UNL     1      38.464  11.850   9.642  0.00  0.00    +0.000 C 
ATOM     31  O   UNL     1      38.004  11.550  10.959  0.00  0.00    +0.000 OA
ATOM     32  C   UNL     1      38.590  10.359  11.477  0.00  0.00    +0.000 C 
ATOM     33  C   UNL     1      40.102  10.502  11.580  0.00  0.00    +0.000 C 
ENDBRANCH  25  28
ENDBRANCH  23  24
ENDBRANCH   4  23
TORSDOF 6
ENDMDL
