MODEL 1
REMARK VINA RESULT:    -7.680      0.000      0.000
REMARK INTER + INTRA:         -13.293
REMARK INTER:                 -11.272
REMARK INTRA:                  -2.021
REMARK UNBOUND:                -2.021
REMARK  Name = 
REMARK  10 active torsions:
REMARK  status: ('A' for Active; 'I' for Inactive)
REMARK    1  A    between atoms: C_1  and  C_2
REMARK    2  A    between atoms: C_4  and  C_5
REMARK    3  A    between atoms: C_10  and  O_11
REMARK    4  A    between atoms: O_11  and  C_12
REMARK    5  A    between atoms: C_12  and  C_13
REMARK    6  A    between atoms: C_13  and  C_14
REMARK    7  A    between atoms: C_13  and  C_15
REMARK    8  A    between atoms: C_19  and  C_20
REMARK    9  A    between atoms: C_25  and  O_26
REMARK   10  A    between atoms: O_26  and  C_27
REMARK                            x       y       z     vdW  Elec       q    Type
REMARK                         _______ _______ _______ _____ _____    ______ ____
ROOT
ATOM      1  C   UNL     1      46.644   6.888  12.958  0.00  0.00    +0.000 A 
ATOM      2  C   UNL     1      45.785   7.988  13.016  0.00  0.00    +0.000 A 
ATOM      3  C   UNL     1      44.822   8.170  12.024  0.00  0.00    +0.000 A 
ATOM      4  C   UNL     1      44.680   7.236  10.988  0.00  0.00    +0.000 A 
ATOM      5  C   UNL     1      45.523   6.118  10.883  0.00  0.00    +0.000 A 
ATOM      6  C   UNL     1      46.527   6.002  11.867  0.00  0.00    +0.000 A 
ENDROOT
BRANCH   5   7
ATOM      7  C   UNL     1      45.311   5.030   9.875  0.00  0.00    +0.000 A 
ATOM      8  C   UNL     1      46.086   5.045   8.690  0.00  0.00    +0.000 A 
ATOM      9  C   UNL     1      46.002   4.043   7.725  0.00  0.00    +0.000 A 
ATOM     10  C   UNL     1      45.184   2.949   7.948  0.00  0.00    +0.000 A 
ATOM     11  C   UNL     1      44.412   2.889   9.108  0.00  0.00    +0.000 A 
ATOM     12  C   UNL     1      44.410   3.946  10.033  0.00  0.00    +0.000 A 
BRANCH  12  13
ATOM     13  O   UNL     1      43.571   3.981  11.114  0.00  0.00    +0.000 OA
BRANCH  13  14
ATOM     14  C   UNL     1      43.866   3.193  12.259  0.00  0.00    +0.000 C 
ATOM     15  F   UNL     1      43.242   1.996  12.280  0.00  0.00    +0.000 F 
ATOM     16  F   UNL     1      45.200   2.994  12.338  0.00  0.00    +0.000 F 
ATOM     17  F   UNL     1      43.476   3.874  13.361  0.00  0.00    +0.000 F 
ENDBRANCH  13  14
ENDBRANCH  12  13
ENDBRANCH   5   7
BRANCH   1  18
ATOM     18  C   UNL     1      47.604   6.581  14.105  0.00  0.00    +0.000 C 
ATOM     19  C   UNL     1      49.056   6.850  13.712  0.00  0.00    +0.000 C 
BRANCH  18  20
ATOM     20  C   UNL     1      47.364   5.128  14.576  0.00  0.00    +0.000 C 
BRANCH  20  21
ATOM     21  O   UNL     1      47.408   4.989  15.995  0.00  0.00    +0.000 OA
BRANCH  21  28
ATOM     22  C   UNL     1      50.005   6.290  17.186  0.00  0.00    +0.000 C 
ATOM     23  C   UNL     1      49.678   4.835  17.054  0.00  0.00    +0.000 A 
ATOM     24  N   UNL     1      50.695   4.035  17.486  0.00  0.00    +0.000 NA
ATOM     25  C   UNL     1      50.552   2.692  17.368  0.00  0.00    +0.000 A 
ATOM     26  C   UNL     1      49.424   2.091  16.842  0.00  0.00    +0.000 A 
ATOM     27  C   UNL     1      48.385   2.922  16.409  0.00  0.00    +0.000 A 
ATOM     28  C   UNL     1      48.492   4.315  16.513  0.00  0.00    +0.000 A 
BRANCH  25  29
ATOM     29  C   UNL     1      51.718   1.872  17.820  0.00  0.00    +0.000 C 
ATOM     30  N   UNL     1      51.471   0.525  17.912  0.00  0.00    +0.000 N 
ATOM     31  O   UNL     1      52.808   2.354  18.095  0.00  0.00    +0.000 OA
ATOM     32  H   UNL     1      50.547   0.178  17.690  0.00  0.00    +0.000 HD
ATOM     33  H   UNL     1      52.197  -0.100  18.234  0.00  0.00    +0.000 HD
ENDBRANCH  25  29
ENDBRANCH  21  28
ENDBRANCH  20  21
ENDBRANCH  18  20
ENDBRANCH   1  18
TORSDOF 8
ENDMDL
MODEL 2
REMARK VINA RESULT:    -7.449      2.039      2.474
REMARK INTER + INTRA:         -12.954
REMARK INTER:                 -10.814
REMARK INTRA:                  -2.141
REMARK UNBOUND:                -2.021
REMARK  Name = 
REMARK  10 active torsions:
REMARK  status: ('A' for Active; 'I' for Inactive)
REMARK    1  A    between atoms: C_1  and  C_2
REMARK    2  A    between atoms: C_4  and  C_5
REMARK    3  A    between atoms: C_10  and  O_11
REMARK    4  A    between atoms: O_11  and  C_12
REMARK    5  A    between atoms: C_12  and  C_13
REMARK    6  A    between atoms: C_13  and  C_14
REMARK    7  A    between atoms: C_13  and  C_15
REMARK    8  A    between atoms: C_19  and  C_20
REMARK    9  A    between atoms: C_25  and  O_26
REMARK   10  A    between atoms: O_26  and  C_27
REMARK                            x       y       z     vdW  Elec       q    Type
REMARK                         _______ _______ _______ _____ _____    ______ ____
ROOT
ATOM      1  C   UNL     1      47.299   7.973  12.050  0.00  0.00    +0.000 A 
ATOM      2  C   UNL     1      46.215   8.674  12.583  0.00  0.00    +0.000 A 
ATOM      3  C   UNL     1      44.913   8.268  12.293  0.00  0.00    +0.000 A 
ATOM      4  C   UNL     1      44.680   7.133  11.502  0.00  0.00    +0.000 A 
ATOM      5  C   UNL     1      45.736   6.399  10.938  0.00  0.00    +0.000 A 
ATOM      6  C   UNL     1      47.037   6.879  11.200  0.00  0.00    +0.000 A 
ENDROOT
BRANCH   5   7
ATOM      7  C   UNL     1      45.531   5.107  10.208  0.00  0.00    +0.000 A 
ATOM      8  C   UNL     1      45.794   5.067   8.817  0.00  0.00    +0.000 A 
ATOM      9  C   UNL     1      45.690   3.896   8.067  0.00  0.00    +0.000 A 
ATOM     10  C   UNL     1      45.385   2.705   8.701  0.00  0.00    +0.000 A 
ATOM     11  C   UNL     1      45.130   2.698  10.072  0.00  0.00    +0.000 A 
ATOM     12  C   UNL     1      45.126   3.890  10.815  0.00  0.00    +0.000 A 
BRANCH  12  13
ATOM     13  O   UNL     1      44.755   3.940  12.131  0.00  0.00    +0.000 OA
BRANCH  13  14
ATOM     14  C   UNL     1      43.407   3.669  12.493  0.00  0.00    +0.000 C 
ATOM     15  F   UNL     1      43.025   4.230  13.659  0.00  0.00    +0.000 F 
ATOM     16  F   UNL     1      42.583   4.094  11.510  0.00  0.00    +0.000 F 
ATOM     17  F   UNL     1      43.257   2.331  12.617  0.00  0.00    +0.000 F 
ENDBRANCH  13  14
ENDBRANCH  12  13
ENDBRANCH   5   7
BRANCH   1  18
ATOM     18  C   UNL     1      48.729   8.302  12.471  0.00  0.00    +0.000 C 
ATOM     19  C   UNL     1      49.732   7.315  11.875  0.00  0.00    +0.000 C 
BRANCH  18  20
ATOM     20  C   UNL     1      48.788   8.368  14.014  0.00  0.00    +0.000 C 
BRANCH  20  21
ATOM     21  O   UNL     1      49.758   7.482  14.572  0.00  0.00    +0.000 OA
BRANCH  21  28
ATOM     22  C   UNL     1      51.169   6.532  17.210  0.00  0.00    +0.000 C 
ATOM     23  C   UNL     1      49.869   6.060  16.637  0.00  0.00    +0.000 A 
ATOM     24  N   UNL     1      49.305   5.067  17.382  0.00  0.00    +0.000 NA
ATOM     25  C   UNL     1      48.152   4.507  16.941  0.00  0.00    +0.000 A 
ATOM     26  C   UNL     1      47.512   4.900  15.781  0.00  0.00    +0.000 A 
ATOM     27  C   UNL     1      48.096   5.924  15.029  0.00  0.00    +0.000 A 
ATOM     28  C   UNL     1      49.287   6.529  15.449  0.00  0.00    +0.000 A 
BRANCH  25  29
ATOM     29  C   UNL     1      47.606   3.395  17.780  0.00  0.00    +0.000 C 
ATOM     30  N   UNL     1      48.335   3.118  18.909  0.00  0.00    +0.000 N 
ATOM     31  O   UNL     1      46.596   2.771  17.487  0.00  0.00    +0.000 OA
ATOM     32  H   UNL     1      49.173   3.652  19.096  0.00  0.00    +0.000 HD
ATOM     33  H   UNL     1      48.052   2.364  19.520  0.00  0.00    +0.000 HD
ENDBRANCH  25  29
ENDBRANCH  21  28
ENDBRANCH  20  21
ENDBRANCH  18  20
ENDBRANCH   1  18
TORSDOF 8
ENDMDL
MODEL 3
REMARK VINA RESULT:    -7.373      2.044      2.975
REMARK INTER + INTRA:         -12.843
REMARK INTER:                 -11.003
REMARK INTRA:                  -1.840
REMARK UNBOUND:                -2.021
REMARK  Name = 
REMARK  10 active torsions:
REMARK  status: ('A' for Active; 'I' for Inactive)
REMARK    1  A    between atoms: C_1  and  C_2
REMARK    2  A    between atoms: C_4  and  C_5
REMARK    3  A    between atoms: C_10  and  O_11
REMARK    4  A    between atoms: O_11  and  C_12
REMARK    5  A    between atoms: C_12  and  C_13
REMARK    6  A    between atoms: C_13  and  C_14
REMARK    7  A    between atoms: C_13  and  C_15
REMARK    8  A    between atoms: C_19  and  C_20
REMARK    9  A    between atoms: C_25  and  O_26
REMARK   10  A    between atoms: O_26  and  C_27
REMARK                            x       y       z     vdW  Elec       q    Type
REMARK                         _______ _______ _______ _____ _____    ______ ____
ROOT
ATOM      1  C   UNL     1      46.780   7.250  12.700  0.00  0.00    +0.000 A 
ATOM      2  C   UNL     1      45.805   8.241  12.837  0.00  0.00    +0.000 A 
ATOM      3  C   UNL     1      44.698   8.247  11.990  0.00  0.00    +0.000 A 
ATOM      4  C   UNL     1      44.530   7.241  11.027  0.00  0.00    +0.000 A 
ATOM      5  C   UNL     1      45.485   6.227  10.848  0.00  0.00    +0.000 A 
ATOM      6  C   UNL     1      46.624   6.292  11.678  0.00  0.00    +0.000 A 
ENDROOT
BRANCH   5   7
ATOM      7  C   UNL     1      45.274   5.062   9.930  0.00  0.00    +0.000 A 
ATOM      8  C   UNL     1      46.027   4.999   8.732  0.00  0.00    +0.000 A 
ATOM      9  C   UNL     1      45.943   3.924   7.848  0.00  0.00    +0.000 A 
ATOM     10  C   UNL     1      45.148   2.838   8.169  0.00  0.00    +0.000 A 
ATOM     11  C   UNL     1      44.398   2.854   9.345  0.00  0.00    +0.000 A 
ATOM     12  C   UNL     1      44.394   3.979  10.187  0.00  0.00    +0.000 A 
BRANCH  12  13
ATOM     13  O   UNL     1      43.574   4.084  11.278  0.00  0.00    +0.000 OA
BRANCH  13  14
ATOM     14  C   UNL     1      43.895   3.378  12.469  0.00  0.00    +0.000 C 
ATOM     15  F   UNL     1      43.371   2.136  12.533  0.00  0.00    +0.000 F 
ATOM     16  F   UNL     1      45.238   3.294  12.596  0.00  0.00    +0.000 F 
ATOM     17  F   UNL     1      43.417   4.076  13.524  0.00  0.00    +0.000 F 
ENDBRANCH  13  14
ENDBRANCH  12  13
ENDBRANCH   5   7
BRANCH   1  18
ATOM     18  C   UNL     1      47.923   7.131  13.707  0.00  0.00    +0.000 C 
ATOM     19  C   UNL     1      49.286   7.228  13.024  0.00  0.00    +0.000 C 
BRANCH  18  20
ATOM     20  C   UNL     1      47.740   5.822  14.510  0.00  0.00    +0.000 C 
BRANCH  20  21
ATOM     21  O   UNL     1      48.816   5.568  15.412  0.00  0.00    +0.000 OA
BRANCH  21  28
ATOM     22  C   UNL     1      47.494   3.352  17.200  0.00  0.00    +0.000 C 
ATOM     23  C   UNL     1      47.938   4.724  17.606  0.00  0.00    +0.000 A 
ATOM     24  N   UNL     1      47.667   4.988  18.916  0.00  0.00    +0.000 NA
ATOM     25  C   UNL     1      47.966   6.220  19.398  0.00  0.00    +0.000 A 
ATOM     26  C   UNL     1      48.541   7.217  18.634  0.00  0.00    +0.000 A 
ATOM     27  C   UNL     1      48.821   6.931  17.294  0.00  0.00    +0.000 A 
ATOM     28  C   UNL     1      48.529   5.671  16.755  0.00  0.00    +0.000 A 
BRANCH  25  29
ATOM     29  C   UNL     1      47.605   6.462  20.831  0.00  0.00    +0.000 C 
ATOM     30  N   UNL     1      46.973   5.412  21.448  0.00  0.00    +0.000 N 
ATOM     31  O   UNL     1      47.845   7.511  21.412  0.00  0.00    +0.000 OA
ATOM     32  H   UNL     1      46.782   4.572  20.917  0.00  0.00    +0.000 HD
ATOM     33  H   UNL     1      46.672   5.499  22.409  0.00  0.00    +0.000 HD
ENDBRANCH  25  29
ENDBRANCH  21  28
ENDBRANCH  20  21
ENDBRANCH  18  20
ENDBRANCH   1  18
TORSDOF 8
ENDMDL
MODEL 4
REMARK VINA RESULT:    -7.173      2.578      3.438
REMARK INTER + INTRA:         -12.548
REMARK INTER:                 -10.826
REMARK INTRA:                  -1.722
REMARK UNBOUND:                -2.021
REMARK  Name = 
REMARK  10 active torsions:
REMARK  status: ('A' for Active; 'I' for Inactive)
REMARK    1  A    between atoms: C_1  and  C_2
REMARK    2  A    between atoms: C_4  and  C_5
REMARK    3  A    between atoms: C_10  and  O_11
REMARK    4  A    between atoms: O_11  and  C_12
REMARK    5  A    between atoms: C_12  and  C_13
REMARK    6  A    between atoms: C_13  and  C_14
REMARK    7  A    between atoms: C_13  and  C_15
REMARK    8  A    between atoms: C_19  and  C_20
REMARK    9  A    between atoms: C_25  and  O_26
REMARK   10  A    between atoms: O_26  and  C_27
REMARK                            x       y       z     vdW  Elec       q    Type
REMARK                         _______ _______ _______ _____ _____    ______ ____
ROOT
ATOM      1  C   UNL     1      47.788   8.065  11.945  0.00  0.00    +0.000 A 
ATOM      2  C   UNL     1      47.030   9.234  12.045  0.00  0.00    +0.000 A 
ATOM      3  C   UNL     1      45.642   9.174  11.934  0.00  0.00    +0.000 A 
ATOM      4  C   UNL     1      44.992   7.942  11.764  0.00  0.00    +0.000 A 
ATOM      5  C   UNL     1      45.710   6.741  11.653  0.00  0.00    +0.000 A 
ATOM      6  C   UNL     1      47.116   6.849  11.704  0.00  0.00    +0.000 A 
ENDROOT
BRANCH   5   7
ATOM      7  C   UNL     1      45.049   5.397  11.612  0.00  0.00    +0.000 A 
ATOM      8  C   UNL     1      44.511   4.872  12.813  0.00  0.00    +0.000 A 
ATOM      9  C   UNL     1      43.825   3.658  12.860  0.00  0.00    +0.000 A 
ATOM     10  C   UNL     1      43.593   2.960  11.688  0.00  0.00    +0.000 A 
ATOM     11  C   UNL     1      44.095   3.449  10.483  0.00  0.00    +0.000 A 
ATOM     12  C   UNL     1      44.880   4.614  10.442  0.00  0.00    +0.000 A 
BRANCH  12  13
ATOM     13  O   UNL     1      45.496   5.051   9.301  0.00  0.00    +0.000 OA
BRANCH  13  14
ATOM     14  C   UNL     1      45.830   4.120   8.281  0.00  0.00    +0.000 C 
ATOM     15  F   UNL     1      44.833   3.883   7.403  0.00  0.00    +0.000 F 
ATOM     16  F   UNL     1      46.914   4.561   7.605  0.00  0.00    +0.000 F 
ATOM     17  F   UNL     1      46.149   2.941   8.863  0.00  0.00    +0.000 F 
ENDBRANCH  13  14
ENDBRANCH  12  13
ENDBRANCH   5   7
BRANCH   1  18
ATOM     18  C   UNL     1      49.291   8.080  12.212  0.00  0.00    +0.000 C 
ATOM     19  C   UNL     1      50.084   7.608  10.994  0.00  0.00    +0.000 C 
BRANCH  18  20
ATOM     20  C   UNL     1      49.577   7.245  13.482  0.00  0.00    +0.000 C 
BRANCH  20  21
ATOM     21  O   UNL     1      48.755   7.614  14.587  0.00  0.00    +0.000 OA
BRANCH  21  28
ATOM     22  C   UNL     1      49.665   7.489  17.589  0.00  0.00    +0.000 C 
ATOM     23  C   UNL     1      48.830   6.501  16.835  0.00  0.00    +0.000 A 
ATOM     24  N   UNL     1      48.494   5.421  17.596  0.00  0.00    +0.000 NA
ATOM     25  C   UNL     1      47.786   4.420  17.016  0.00  0.00    +0.000 A 
ATOM     26  C   UNL     1      47.378   4.444  15.696  0.00  0.00    +0.000 A 
ATOM     27  C   UNL     1      47.722   5.561  14.928  0.00  0.00    +0.000 A 
ATOM     28  C   UNL     1      48.452   6.617  15.488  0.00  0.00    +0.000 A 
BRANCH  25  29
ATOM     29  C   UNL     1      47.485   3.244  17.891  0.00  0.00    +0.000 C 
ATOM     30  N   UNL     1      48.298   3.125  18.990  0.00  0.00    +0.000 N 
ATOM     31  O   UNL     1      46.593   2.444  17.652  0.00  0.00    +0.000 OA
ATOM     32  H   UNL     1      49.034   3.804  19.134  0.00  0.00    +0.000 HD
ATOM     33  H   UNL     1      48.181   2.345  19.622  0.00  0.00    +0.000 HD
ENDBRANCH  25  29
ENDBRANCH  21  28
ENDBRANCH  20  21
ENDBRANCH  18  20
ENDBRANCH   1  18
TORSDOF 8
ENDMDL
MODEL 5
REMARK VINA RESULT:    -7.075      3.424      7.962
REMARK INTER + INTRA:         -12.405
REMARK INTER:                 -10.263
REMARK INTRA:                  -2.142
REMARK UNBOUND:                -2.021
REMARK  Name = 
REMARK  10 active torsions:
REMARK  status: ('A' for Active; 'I' for Inactive)
REMARK    1  A    between atoms: C_1  and  C_2
REMARK    2  A    between atoms: C_4  and  C_5
REMARK    3  A    between atoms: C_10  and  O_11
REMARK    4  A    between atoms: O_11  and  C_12
REMARK    5  A    between atoms: C_12  and  C_13
REMARK    6  A    between atoms: C_13  and  C_14
REMARK    7  A    between atoms: C_13  and  C_15
REMARK    8  A    between atoms: C_19  and  C_20
REMARK    9  A    between atoms: C_25  and  O_26
REMARK   10  A    between atoms: O_26  and  C_27
REMARK                            x       y       z     vdW  Elec       q    Type
REMARK                         _______ _______ _______ _____ _____    ______ ____
ROOT
ATOM      1  C   UNL     1      49.038   7.726  16.158  0.00  0.00    +0.000 A 
ATOM      2  C   UNL     1      48.644   8.344  17.347  0.00  0.00    +0.000 A 
ATOM      3  C   UNL     1      48.815   7.683  18.563  0.00  0.00    +0.000 A 
ATOM      4  C   UNL     1      49.418   6.418  18.609  0.00  0.00    +0.000 A 
ATOM      5  C   UNL     1      49.825   5.754  17.441  0.00  0.00    +0.000 A 
ATOM      6  C   UNL     1      49.577   6.425  16.225  0.00  0.00    +0.000 A 
ENDROOT
BRANCH   5   7
ATOM      7  C   UNL     1      50.597   4.470  17.460  0.00  0.00    +0.000 A 
ATOM      8  C   UNL     1      51.981   4.517  17.761  0.00  0.00    +0.000 A 
ATOM      9  C   UNL     1      52.766   3.369  17.862  0.00  0.00    +0.000 A 
ATOM     10  C   UNL     1      52.175   2.124  17.732  0.00  0.00    +0.000 A 
ATOM     11  C   UNL     1      50.813   2.033  17.447  0.00  0.00    +0.000 A 
ATOM     12  C   UNL     1      50.037   3.186  17.237  0.00  0.00    +0.000 A 
BRANCH  12  13
ATOM     13  O   UNL     1      48.731   3.135  16.829  0.00  0.00    +0.000 OA
BRANCH  13  14
ATOM     14  C   UNL     1      47.690   3.197  17.794  0.00  0.00    +0.000 C 
ATOM     15  F   UNL     1      46.949   4.324  17.733  0.00  0.00    +0.000 F 
ATOM     16  F   UNL     1      46.876   2.129  17.650  0.00  0.00    +0.000 F 
ATOM     17  F   UNL     1      48.243   3.141  19.027  0.00  0.00    +0.000 F 
ENDBRANCH  13  14
ENDBRANCH  12  13
ENDBRANCH   5   7
BRANCH   1  18
ATOM     18  C   UNL     1      49.002   8.483  14.832  0.00  0.00    +0.000 C 
ATOM     19  C   UNL     1      48.989   9.996  15.048  0.00  0.00    +0.000 C 
BRANCH  18  20
ATOM     20  C   UNL     1      47.796   7.979  14.007  0.00  0.00    +0.000 C 
BRANCH  20  21
ATOM     21  O   UNL     1      48.130   6.903  13.133  0.00  0.00    +0.000 OA
BRANCH  21  28
ATOM     22  C   UNL     1      46.715   4.406  14.406  0.00  0.00    +0.000 C 
ATOM     23  C   UNL     1      46.405   5.080  13.105  0.00  0.00    +0.000 A 
ATOM     24  N   UNL     1      45.402   4.456  12.425  0.00  0.00    +0.000 NA
ATOM     25  C   UNL     1      45.061   4.931  11.201  0.00  0.00    +0.000 A 
ATOM     26  C   UNL     1      45.670   6.023  10.613  0.00  0.00    +0.000 A 
ATOM     27  C   UNL     1      46.693   6.660  11.324  0.00  0.00    +0.000 A 
ATOM     28  C   UNL     1      47.076   6.202  12.591  0.00  0.00    +0.000 A 
BRANCH  25  29
ATOM     29  C   UNL     1      43.983   4.177  10.488  0.00  0.00    +0.000 C 
ATOM     30  N   UNL     1      43.919   4.408   9.138  0.00  0.00    +0.000 N 
ATOM     31  O   UNL     1      43.211   3.418  11.057  0.00  0.00    +0.000 OA
ATOM     32  H   UNL     1      44.570   5.059   8.718  0.00  0.00    +0.000 HD
ATOM     33  H   UNL     1      43.204   3.959   8.582  0.00  0.00    +0.000 HD
ENDBRANCH  25  29
ENDBRANCH  21  28
ENDBRANCH  20  21
ENDBRANCH  18  20
ENDBRANCH   1  18
TORSDOF 8
ENDMDL
MODEL 6
REMARK VINA RESULT:    -6.688      3.807      8.299
REMARK INTER + INTRA:         -11.836
REMARK INTER:                  -9.606
REMARK INTRA:                  -2.230
REMARK UNBOUND:                -2.021
REMARK  Name = 
REMARK  10 active torsions:
REMARK  status: ('A' for Active; 'I' for Inactive)
REMARK    1  A    between atoms: C_1  and  C_2
REMARK    2  A    between atoms: C_4  and  C_5
REMARK    3  A    between atoms: C_10  and  O_11
REMARK    4  A    between atoms: O_11  and  C_12
REMARK    5  A    between atoms: C_12  and  C_13
REMARK    6  A    between atoms: C_13  and  C_14
REMARK    7  A    between atoms: C_13  and  C_15
REMARK    8  A    between atoms: C_19  and  C_20
REMARK    9  A    between atoms: C_25  and  O_26
REMARK   10  A    between atoms: O_26  and  C_27
REMARK                            x       y       z     vdW  Elec       q    Type
REMARK                         _______ _______ _______ _____ _____    ______ ____
ROOT
ATOM      1  C   UNL     1      49.318   7.911  15.396  0.00  0.00    +0.000 A 
ATOM      2  C   UNL     1      48.652   9.122  15.595  0.00  0.00    +0.000 A 
ATOM      3  C   UNL     1      48.077   9.403  16.834  0.00  0.00    +0.000 A 
ATOM      4  C   UNL     1      48.197   8.497  17.898  0.00  0.00    +0.000 A 
ATOM      5  C   UNL     1      48.851   7.264  17.745  0.00  0.00    +0.000 A 
ATOM      6  C   UNL     1      49.363   6.987  16.459  0.00  0.00    +0.000 A 
ENDROOT
BRANCH   5   7
ATOM      7  C   UNL     1      49.120   6.336  18.890  0.00  0.00    +0.000 A 
ATOM      8  C   UNL     1      50.259   6.571  19.698  0.00  0.00    +0.000 A 
ATOM      9  C   UNL     1      50.556   5.799  20.820  0.00  0.00    +0.000 A 
ATOM     10  C   UNL     1      49.679   4.803  21.214  0.00  0.00    +0.000 A 
ATOM     11  C   UNL     1      48.539   4.546  20.453  0.00  0.00    +0.000 A 
ATOM     12  C   UNL     1      48.290   5.247  19.261  0.00  0.00    +0.000 A 
BRANCH  12  13
ATOM     13  O   UNL     1      47.254   4.936  18.422  0.00  0.00    +0.000 OA
BRANCH  13  14
ATOM     14  C   UNL     1      47.445   3.970  17.397  0.00  0.00    +0.000 C 
ATOM     15  F   UNL     1      46.943   4.332  16.198  0.00  0.00    +0.000 F 
ATOM     16  F   UNL     1      48.764   3.712  17.261  0.00  0.00    +0.000 F 
ATOM     17  F   UNL     1      46.829   2.824  17.767  0.00  0.00    +0.000 F 
ENDBRANCH  13  14
ENDBRANCH  12  13
ENDBRANCH   5   7
BRANCH   1  18
ATOM     18  C   UNL     1      50.085   7.641  14.102  0.00  0.00    +0.000 C 
ATOM     19  C   UNL     1      51.005   8.806  13.740  0.00  0.00    +0.000 C 
BRANCH  18  20
ATOM     20  C   UNL     1      49.069   7.303  12.987  0.00  0.00    +0.000 C 
BRANCH  20  21
ATOM     21  O   UNL     1      48.434   6.040  13.177  0.00  0.00    +0.000 OA
BRANCH  21  28
ATOM     22  C   UNL     1      46.640   3.465  13.264  0.00  0.00    +0.000 C 
ATOM     23  C   UNL     1      46.245   4.853  12.865  0.00  0.00    +0.000 A 
ATOM     24  N   UNL     1      44.944   4.925  12.465  0.00  0.00    +0.000 NA
ATOM     25  C   UNL     1      44.473   6.117  12.021  0.00  0.00    +0.000 A 
ATOM     26  C   UNL     1      45.240   7.264  11.965  0.00  0.00    +0.000 A 
ATOM     27  C   UNL     1      46.571   7.179  12.385  0.00  0.00    +0.000 A 
ATOM     28  C   UNL     1      47.098   5.968  12.851  0.00  0.00    +0.000 A 
BRANCH  25  29
ATOM     29  C   UNL     1      43.050   6.120  11.555  0.00  0.00    +0.000 C 
ATOM     30  N   UNL     1      42.614   7.321  11.056  0.00  0.00    +0.000 N 
ATOM     31  O   UNL     1      42.325   5.138  11.618  0.00  0.00    +0.000 OA
ATOM     32  H   UNL     1      43.249   8.109  11.042  0.00  0.00    +0.000 HD
ATOM     33  H   UNL     1      41.658   7.420  10.742  0.00  0.00    +0.000 HD
ENDBRANCH  25  29
ENDBRANCH  21  28
ENDBRANCH  20  21
ENDBRANCH  18  20
ENDBRANCH   1  18
TORSDOF 8
ENDMDL
MODEL 7
REMARK VINA RESULT:    -6.683      2.657      3.390
REMARK INTER + INTRA:         -11.829
REMARK INTER:                  -9.545
REMARK INTRA:                  -2.284
REMARK UNBOUND:                -2.021
REMARK  Name = 
REMARK  10 active torsions:
REMARK  status: ('A' for Active; 'I' for Inactive)
REMARK    1  A    between atoms: C_1  and  C_2
REMARK    2  A    between atoms: C_4  and  C_5
REMARK    3  A    between atoms: C_10  and  O_11
REMARK    4  A    between atoms: O_11  and  C_12
REMARK    5  A    between atoms: C_12  and  C_13
REMARK    6  A    between atoms: C_13  and  C_14
REMARK    7  A    between atoms: C_13  and  C_15
REMARK    8  A    between atoms: C_19  and  C_20
REMARK    9  A    between atoms: C_25  and  O_26
REMARK   10  A    between atoms: O_26  and  C_27
REMARK                            x       y       z     vdW  Elec       q    Type
REMARK                         _______ _______ _______ _____ _____    ______ ____
ROOT
ATOM      1  C   UNL     1      47.976   8.329  12.328  0.00  0.00    +0.000 A 
ATOM      2  C   UNL     1      47.091   9.346  12.692  0.00  0.00    +0.000 A 
ATOM      3  C   UNL     1      45.717   9.160  12.539  0.00  0.00    +0.000 A 
ATOM      4  C   UNL     1      45.212   7.942  12.060  0.00  0.00    +0.000 A 
ATOM      5  C   UNL     1      46.061   6.893  11.675  0.00  0.00    +0.000 A 
ATOM      6  C   UNL     1      47.446   7.142  11.783  0.00  0.00    +0.000 A 
ENDROOT
BRANCH   5   7
ATOM      7  C   UNL     1      45.557   5.534  11.294  0.00  0.00    +0.000 A 
ATOM      8  C   UNL     1      45.334   5.256   9.923  0.00  0.00    +0.000 A 
ATOM      9  C   UNL     1      44.923   4.003   9.469  0.00  0.00    +0.000 A 
ATOM     10  C   UNL     1      44.789   2.961  10.370  0.00  0.00    +0.000 A 
ATOM     11  C   UNL     1      45.010   3.190  11.728  0.00  0.00    +0.000 A 
ATOM     12  C   UNL     1      45.318   4.475  12.207  0.00  0.00    +0.000 A 
BRANCH  12  13
ATOM     13  O   UNL     1      45.414   4.764  13.541  0.00  0.00    +0.000 OA
BRANCH  13  14
ATOM     14  C   UNL     1      46.638   4.530  14.225  0.00  0.00    +0.000 C 
ATOM     15  F   UNL     1      47.480   3.697  13.578  0.00  0.00    +0.000 F 
ATOM     16  F   UNL     1      47.265   5.706  14.443  0.00  0.00    +0.000 F 
ATOM     17  F   UNL     1      46.359   3.974  15.426  0.00  0.00    +0.000 F 
ENDBRANCH  13  14
ENDBRANCH  12  13
ENDBRANCH   5   7
BRANCH   1  18
ATOM     18  C   UNL     1      49.469   8.446  12.624  0.00  0.00    +0.000 C 
ATOM     19  C   UNL     1      50.312   8.193  11.375  0.00  0.00    +0.000 C 
BRANCH  18  20
ATOM     20  C   UNL     1      49.818   7.496  13.793  0.00  0.00    +0.000 C 
BRANCH  20  21
ATOM     21  O   UNL     1      49.957   8.175  15.040  0.00  0.00    +0.000 OA
BRANCH  21  28
ATOM     22  C   UNL     1      48.058   9.460  17.185  0.00  0.00    +0.000 C 
ATOM     23  C   UNL     1      48.587   8.059  17.139  0.00  0.00    +0.000 A 
ATOM     24  N   UNL     1      48.186   7.320  18.212  0.00  0.00    +0.000 NA
ATOM     25  C   UNL     1      48.644   6.049  18.325  0.00  0.00    +0.000 A 
ATOM     26  C   UNL     1      49.485   5.459  17.401  0.00  0.00    +0.000 A 
ATOM     27  C   UNL     1      49.883   6.225  16.300  0.00  0.00    +0.000 A 
ATOM     28  C   UNL     1      49.434   7.543  16.145  0.00  0.00    +0.000 A 
BRANCH  25  29
ATOM     29  C   UNL     1      48.203   5.305  19.546  0.00  0.00    +0.000 C 
ATOM     30  N   UNL     1      48.601   3.993  19.593  0.00  0.00    +0.000 N 
ATOM     31  O   UNL     1      47.535   5.815  20.434  0.00  0.00    +0.000 OA
ATOM     32  H   UNL     1      49.137   3.613  18.823  0.00  0.00    +0.000 HD
ATOM     33  H   UNL     1      48.325   3.409  20.371  0.00  0.00    +0.000 HD
ENDBRANCH  25  29
ENDBRANCH  21  28
ENDBRANCH  20  21
ENDBRANCH  18  20
ENDBRANCH   1  18
TORSDOF 8
ENDMDL
MODEL 8
REMARK VINA RESULT:    -6.681      1.730      2.238
REMARK INTER + INTRA:         -11.826
REMARK INTER:                  -9.980
REMARK INTRA:                  -1.846
REMARK UNBOUND:                -2.021
REMARK  Name = 
REMARK  10 active torsions:
REMARK  status: ('A' for Active; 'I' for Inactive)
REMARK    1  A    between atoms: C_1  and  C_2
REMARK    2  A    between atoms: C_4  and  C_5
REMARK    3  A    between atoms: C_10  and  O_11
REMARK    4  A    between atoms: O_11  and  C_12
REMARK    5  A    between atoms: C_12  and  C_13
REMARK    6  A    between atoms: C_13  and  C_14
REMARK    7  A    between atoms: C_13  and  C_15
REMARK    8  A    between atoms: C_19  and  C_20
REMARK    9  A    between atoms: C_25  and  O_26
REMARK   10  A    between atoms: O_26  and  C_27
REMARK                            x       y       z     vdW  Elec       q    Type
REMARK                         _______ _______ _______ _____ _____    ______ ____
ROOT
ATOM      1  C   UNL     1      47.338   7.844  12.247  0.00  0.00    +0.000 A 
ATOM      2  C   UNL     1      46.360   8.821  12.445  0.00  0.00    +0.000 A 
ATOM      3  C   UNL     1      45.084   8.645  11.912  0.00  0.00    +0.000 A 
ATOM      4  C   UNL     1      44.758   7.474  11.212  0.00  0.00    +0.000 A 
ATOM      5  C   UNL     1      45.708   6.466  10.982  0.00  0.00    +0.000 A 
ATOM      6  C   UNL     1      47.006   6.709  11.480  0.00  0.00    +0.000 A 
ENDROOT
BRANCH   5   7
ATOM      7  C   UNL     1      45.362   5.146  10.364  0.00  0.00    +0.000 A 
ATOM      8  C   UNL     1      45.504   4.997   8.963  0.00  0.00    +0.000 A 
ATOM      9  C   UNL     1      45.264   3.789   8.308  0.00  0.00    +0.000 A 
ATOM     10  C   UNL     1      44.938   2.666   9.048  0.00  0.00    +0.000 A 
ATOM     11  C   UNL     1      44.800   2.766  10.431  0.00  0.00    +0.000 A 
ATOM     12  C   UNL     1      44.933   4.002  11.086  0.00  0.00    +0.000 A 
BRANCH  12  13
ATOM     13  O   UNL     1      44.677   4.164  12.421  0.00  0.00    +0.000 OA
BRANCH  13  14
ATOM     14  C   UNL     1      43.364   4.500  12.849  0.00  0.00    +0.000 C 
ATOM     15  F   UNL     1      42.458   4.563  11.851  0.00  0.00    +0.000 F 
ATOM     16  F   UNL     1      42.945   3.601  13.767  0.00  0.00    +0.000 F 
ATOM     17  F   UNL     1      43.403   5.716  13.440  0.00  0.00    +0.000 F 
ENDBRANCH  13  14
ENDBRANCH  12  13
ENDBRANCH   5   7
BRANCH   1  18
ATOM     18  C   UNL     1      48.694   7.939  12.943  0.00  0.00    +0.000 C 
ATOM     19  C   UNL     1      49.834   8.086  11.937  0.00  0.00    +0.000 C 
BRANCH  18  20
ATOM     20  C   UNL     1      48.860   6.715  13.872  0.00  0.00    +0.000 C 
BRANCH  20  21
ATOM     21  O   UNL     1      48.509   6.992  15.227  0.00  0.00    +0.000 OA
BRANCH  21  28
ATOM     22  C   UNL     1      47.493   4.323  16.529  0.00  0.00    +0.000 C 
ATOM     23  C   UNL     1      48.761   5.066  16.816  0.00  0.00    +0.000 A 
ATOM     24  N   UNL     1      49.495   4.476  17.801  0.00  0.00    +0.000 NA
ATOM     25  C   UNL     1      50.641   5.081  18.200  0.00  0.00    +0.000 A 
ATOM     26  C   UNL     1      51.110   6.259  17.651  0.00  0.00    +0.000 A 
ATOM     27  C   UNL     1      50.352   6.851  16.635  0.00  0.00    +0.000 A 
ATOM     28  C   UNL     1      49.161   6.259  16.193  0.00  0.00    +0.000 A 
BRANCH  25  29
ATOM     29  C   UNL     1      51.379   4.407  19.314  0.00  0.00    +0.000 C 
ATOM     30  N   UNL     1      50.812   4.563  20.554  0.00  0.00    +0.000 N 
ATOM     31  O   UNL     1      52.409   3.770  19.144  0.00  0.00    +0.000 OA
ATOM     32  H   UNL     1      49.968   5.115  20.643  0.00  0.00    +0.000 HD
ATOM     33  H   UNL     1      51.259   4.162  21.367  0.00  0.00    +0.000 HD
ENDBRANCH  25  29
ENDBRANCH  21  28
ENDBRANCH  20  21
ENDBRANCH  18  20
ENDBRANCH   1  18
TORSDOF 8
ENDMDL
MODEL 9
REMARK VINA RESULT:    -6.555      2.611      4.379
REMARK INTER + INTRA:         -11.642
REMARK INTER:                  -9.009
REMARK INTRA:                  -2.633
REMARK UNBOUND:                -2.021
REMARK  Name = 
REMARK  10 active torsions:
REMARK  status: ('A' for Active; 'I' for Inactive)
REMARK    1  A    between atoms: C_1  and  C_2
REMARK    2  A    between atoms: C_4  and  C_5
REMARK    3  A    between atoms: C_10  and  O_11
REMARK    4  A    between atoms: O_11  and  C_12
REMARK    5  A    between atoms: C_12  and  C_13
REMARK    6  A    between atoms: C_13  and  C_14
REMARK    7  A    between atoms: C_13  and  C_15
REMARK    8  A    between atoms: C_19  and  C_20
REMARK    9  A    between atoms: C_25  and  O_26
REMARK   10  A    between atoms: O_26  and  C_27
REMARK                            x       y       z     vdW  Elec       q    Type
REMARK                         _______ _______ _______ _____ _____    ______ ____
ROOT
ATOM      1  C   UNL     1      49.529   8.237  16.279  0.00  0.00    +0.000 A 
ATOM      2  C   UNL     1      50.797   8.348  15.703  0.00  0.00    +0.000 A 
ATOM      3  C   UNL     1      50.962   8.118  14.338  0.00  0.00    +0.000 A 
ATOM      4  C   UNL     1      49.858   7.817  13.526  0.00  0.00    +0.000 A 
ATOM      5  C   UNL     1      48.566   7.689  14.059  0.00  0.00    +0.000 A 
ATOM      6  C   UNL     1      48.448   7.864  15.455  0.00  0.00    +0.000 A 
ENDROOT
BRANCH   5   7
ATOM      7  C   UNL     1      47.347   7.509  13.207  0.00  0.00    +0.000 A 
ATOM      8  C   UNL     1      46.589   8.654  12.858  0.00  0.00    +0.000 A 
ATOM      9  C   UNL     1      45.476   8.591  12.021  0.00  0.00    +0.000 A 
ATOM     10  C   UNL     1      45.124   7.383  11.444  0.00  0.00    +0.000 A 
ATOM     11  C   UNL     1      45.851   6.234  11.751  0.00  0.00    +0.000 A 
ATOM     12  C   UNL     1      46.906   6.268  12.679  0.00  0.00    +0.000 A 
BRANCH  12  13
ATOM     13  O   UNL     1      47.556   5.141  13.102  0.00  0.00    +0.000 OA
BRANCH  13  14
ATOM     14  C   UNL     1      46.991   4.350  14.139  0.00  0.00    +0.000 C 
ATOM     15  F   UNL     1      45.706   4.650  14.422  0.00  0.00    +0.000 F 
ATOM     16  F   UNL     1      47.074   3.043  13.806  0.00  0.00    +0.000 F 
ATOM     17  F   UNL     1      47.711   4.543  15.267  0.00  0.00    +0.000 F 
ENDBRANCH  13  14
ENDBRANCH  12  13
ENDBRANCH   5   7
BRANCH   1  18
ATOM     18  C   UNL     1      49.293   8.629  17.736  0.00  0.00    +0.000 C 
ATOM     19  C   UNL     1      48.970  10.116  17.874  0.00  0.00    +0.000 C 
BRANCH  18  20
ATOM     20  C   UNL     1      50.521   8.196  18.570  0.00  0.00    +0.000 C 
BRANCH  20  21
ATOM     21  O   UNL     1      50.258   7.071  19.407  0.00  0.00    +0.000 OA
BRANCH  21  28
ATOM     22  C   UNL     1      47.633   5.425  18.902  0.00  0.00    +0.000 C 
ATOM     23  C   UNL     1      49.037   5.062  18.530  0.00  0.00    +0.000 A 
ATOM     24  N   UNL     1      49.116   3.835  17.941  0.00  0.00    +0.000 NA
ATOM     25  C   UNL     1      50.340   3.358  17.607  0.00  0.00    +0.000 A 
ATOM     26  C   UNL     1      51.513   4.056  17.823  0.00  0.00    +0.000 A 
ATOM     27  C   UNL     1      51.419   5.316  18.422  0.00  0.00    +0.000 A 
ATOM     28  C   UNL     1      50.174   5.847  18.782  0.00  0.00    +0.000 A 
BRANCH  25  29
ATOM     29  C   UNL     1      50.362   1.989  17.003  0.00  0.00    +0.000 C 
ATOM     30  N   UNL     1      51.184   1.094  17.641  0.00  0.00    +0.000 N 
ATOM     31  O   UNL     1      49.709   1.684  16.016  0.00  0.00    +0.000 OA
ATOM     32  H   UNL     1      51.717   1.401  18.444  0.00  0.00    +0.000 HD
ATOM     33  H   UNL     1      51.278   0.153  17.284  0.00  0.00    +0.000 HD
ENDBRANCH  25  29
ENDBRANCH  21  28
ENDBRANCH  20  21
ENDBRANCH  18  20
ENDBRANCH   1  18
TORSDOF 8
ENDMDL
