MODEL 1
REMARK VINA RESULT:    -7.438      0.000      0.000
REMARK INTER + INTRA:         -10.063
REMARK INTER:                  -9.612
REMARK INTRA:                  -0.451
REMARK UNBOUND:                -0.451
REMARK  Name = 
REMARK  5 active torsions:
REMARK  status: ('A' for Active; 'I' for Inactive)
REMARK    1  A    between atoms: C_2  and  C_4
REMARK    2  A    between atoms: C_8  and  S_9
REMARK    3  A    between atoms: S_9  and  C_10
REMARK    4  A    between atoms: C_10  and  C_11
REMARK    5  A    between atoms: C_15  and  N_16
REMARK                            x       y       z     vdW  Elec       q    Type
REMARK                         _______ _______ _______ _____ _____    ______ ____
ROOT
ATOM      1  C   UNL     1      43.506   6.201  11.735  0.00  0.00    +0.000 C 
ENDROOT
BRANCH   1   2
ATOM      2  C   UNL     1      43.720   4.784  11.260  0.00  0.00    +0.000 A 
ATOM      3  C   UNL     1      43.031   3.731  11.850  0.00  0.00    +0.000 A 
ATOM      4  N   UNL     1      43.184   2.434  11.505  0.00  0.00    +0.000 NA
ATOM      5  C   UNL     1      44.044   2.179  10.485  0.00  0.00    +0.000 A 
ATOM      6  C   UNL     1      44.791   3.139   9.799  0.00  0.00    +0.000 A 
ATOM      7  C   UNL     1      44.643   4.448  10.259  0.00  0.00    +0.000 A 
BRANCH   6   8
ATOM      8  N   UNL     1      45.550   2.814   8.679  0.00  0.00    +0.000 N 
ATOM      9  C   UNL     1      45.729   1.394   8.350  0.00  0.00    +0.000 C 
ATOM     10  C   UNL     1      47.031   1.240   7.572  0.00  0.00    +0.000 C 
ATOM     11  C   UNL     1      47.039   2.129   6.330  0.00  0.00    +0.000 C 
ATOM     12  C   UNL     1      46.701   3.581   6.675  0.00  0.00    +0.000 C 
ATOM     13  C   UNL     1      45.426   3.696   7.515  0.00  0.00    +0.000 C 
ENDBRANCH   6   8
ENDBRANCH   1   2
BRANCH   1  14
ATOM     14  S   UNL     1      44.807   7.358  11.163  0.00  0.00    +0.000 S 
BRANCH  14  19
ATOM     15  C   UNL     1      47.128   5.591  13.953  0.00  0.00    +0.000 A 
ATOM     16  C   UNL     1      48.133   6.530  14.208  0.00  0.00    +0.000 A 
ATOM     17  C   UNL     1      48.132   7.749  13.530  0.00  0.00    +0.000 A 
ATOM     18  C   UNL     1      47.138   8.032  12.590  0.00  0.00    +0.000 A 
ATOM     19  C   UNL     1      46.143   7.094  12.307  0.00  0.00    +0.000 A 
ATOM     20  C   UNL     1      46.140   5.878  13.002  0.00  0.00    +0.000 A 
BRANCH  15  22
ATOM     21  N   UNL     1      46.722   4.275  15.962  0.00  0.00    +0.000 N 
ATOM     22  C   UNL     1      47.073   4.274  14.643  0.00  0.00    +0.000 C 
ATOM     23  O   UNL     1      47.294   3.227  14.049  0.00  0.00    +0.000 OA
ATOM     24  H   UNL     1      46.584   3.361  16.382  0.00  0.00    +0.000 HD
ATOM     25  H   UNL     1      46.287   5.066  16.409  0.00  0.00    +0.000 HD
ENDBRANCH  15  22
ENDBRANCH  14  19
ENDBRANCH   1  14
TORSDOF 5
ENDMDL
MODEL 2
REMARK VINA RESULT:    -7.438      2.589      6.703
REMARK INTER + INTRA:         -10.063
REMARK INTER:                  -9.207
REMARK INTRA:                  -0.855
REMARK UNBOUND:                -0.451
REMARK  Name = 
REMARK  5 active torsions:
REMARK  status: ('A' for Active; 'I' for Inactive)
REMARK    1  A    between atoms: C_2  and  C_4
REMARK    2  A    between atoms: C_8  and  S_9
REMARK    3  A    between atoms: S_9  and  C_10
REMARK    4  A    between atoms: C_10  and  C_11
REMARK    5  A    between atoms: C_15  and  N_16
REMARK                            x       y       z     vdW  Elec       q    Type
REMARK                         _______ _______ _______ _____ _____    ______ ____
ROOT
ATOM      1  C   UNL     1      44.886   2.904  12.151  0.00  0.00    +0.000 C 
ENDROOT
BRANCH   1   2
ATOM      2  C   UNL     1      45.725   4.051  12.659  0.00  0.00    +0.000 A 
ATOM      3  C   UNL     1      46.849   3.810  13.443  0.00  0.00    +0.000 A 
ATOM      4  N   UNL     1      47.636   4.777  13.960  0.00  0.00    +0.000 NA
ATOM      5  C   UNL     1      47.308   6.056  13.644  0.00  0.00    +0.000 A 
ATOM      6  C   UNL     1      46.216   6.440  12.862  0.00  0.00    +0.000 A 
ATOM      7  C   UNL     1      45.400   5.396  12.425  0.00  0.00    +0.000 A 
BRANCH   6   8
ATOM      8  N   UNL     1      46.021   7.762  12.474  0.00  0.00    +0.000 N 
ATOM      9  C   UNL     1      44.652   8.207  12.188  0.00  0.00    +0.000 C 
ATOM     10  C   UNL     1      44.719   9.375  11.210  0.00  0.00    +0.000 C 
ATOM     11  C   UNL     1      45.593  10.502  11.757  0.00  0.00    +0.000 C 
ATOM     12  C   UNL     1      46.968   9.988  12.191  0.00  0.00    +0.000 C 
ATOM     13  C   UNL     1      46.867   8.773  13.117  0.00  0.00    +0.000 C 
ENDBRANCH   6   8
ENDBRANCH   1   2
BRANCH   1  14
ATOM     14  S   UNL     1      43.842   3.356  10.713  0.00  0.00    +0.000 S 
BRANCH  14  19
ATOM     15  C   UNL     1      46.372   2.109   7.826  0.00  0.00    +0.000 A 
ATOM     16  C   UNL     1      46.858   3.292   7.261  0.00  0.00    +0.000 A 
ATOM     17  C   UNL     1      46.426   4.525   7.752  0.00  0.00    +0.000 A 
ATOM     18  C   UNL     1      45.502   4.582   8.799  0.00  0.00    +0.000 A 
ATOM     19  C   UNL     1      44.989   3.408   9.355  0.00  0.00    +0.000 A 
ATOM     20  C   UNL     1      45.438   2.174   8.868  0.00  0.00    +0.000 A 
BRANCH  15  22
ATOM     21  N   UNL     1      47.333   0.689   6.096  0.00  0.00    +0.000 N 
ATOM     22  C   UNL     1      46.793   0.765   7.347  0.00  0.00    +0.000 C 
ATOM     23  O   UNL     1      46.700  -0.230   8.055  0.00  0.00    +0.000 OA
ATOM     24  H   UNL     1      47.714  -0.214   5.833  0.00  0.00    +0.000 HD
ATOM     25  H   UNL     1      47.663   1.500   5.596  0.00  0.00    +0.000 HD
ENDBRANCH  15  22
ENDBRANCH  14  19
ENDBRANCH   1  14
TORSDOF 5
ENDMDL
MODEL 3
REMARK VINA RESULT:    -7.254      2.792      6.683
REMARK INTER + INTRA:          -9.826
REMARK INTER:                  -9.130
REMARK INTRA:                  -0.695
REMARK UNBOUND:                -0.451
REMARK  Name = 
REMARK  5 active torsions:
REMARK  status: ('A' for Active; 'I' for Inactive)
REMARK    1  A    between atoms: C_2  and  C_4
REMARK    2  A    between atoms: C_8  and  S_9
REMARK    3  A    between atoms: S_9  and  C_10
REMARK    4  A    between atoms: C_10  and  C_11
REMARK    5  A    between atoms: C_15  and  N_16
REMARK                            x       y       z     vdW  Elec       q    Type
REMARK                         _______ _______ _______ _____ _____    ______ ____
ROOT
ATOM      1  C   UNL     1      44.912   3.587  12.167  0.00  0.00    +0.000 C 
ENDROOT
BRANCH   1   2
ATOM      2  C   UNL     1      45.059   5.082  12.023  0.00  0.00    +0.000 A 
ATOM      3  C   UNL     1      43.936   5.894  11.908  0.00  0.00    +0.000 A 
ATOM      4  N   UNL     1      43.979   7.234  11.748  0.00  0.00    +0.000 NA
ATOM      5  C   UNL     1      45.213   7.801  11.743  0.00  0.00    +0.000 A 
ATOM      6  C   UNL     1      46.420   7.109  11.860  0.00  0.00    +0.000 A 
ATOM      7  C   UNL     1      46.305   5.721  11.943  0.00  0.00    +0.000 A 
BRANCH   6   8
ATOM      8  N   UNL     1      47.637   7.774  11.978  0.00  0.00    +0.000 N 
ATOM      9  C   UNL     1      47.617   9.229  12.168  0.00  0.00    +0.000 C 
ATOM     10  C   UNL     1      48.926   9.803  11.636  0.00  0.00    +0.000 C 
ATOM     11  C   UNL     1      50.130   9.146  12.309  0.00  0.00    +0.000 C 
ATOM     12  C   UNL     1      50.055   7.619  12.231  0.00  0.00    +0.000 C 
ATOM     13  C   UNL     1      48.703   7.080  12.708  0.00  0.00    +0.000 C 
ENDBRANCH   6   8
ENDBRANCH   1   2
BRANCH   1  14
ATOM     14  S   UNL     1      43.939   2.824  10.814  0.00  0.00    +0.000 S 
BRANCH  14  19
ATOM     15  C   UNL     1      46.428   1.993   7.747  0.00  0.00    +0.000 A 
ATOM     16  C   UNL     1      46.663   3.235   7.149  0.00  0.00    +0.000 A 
ATOM     17  C   UNL     1      46.064   4.382   7.672  0.00  0.00    +0.000 A 
ATOM     18  C   UNL     1      45.222   4.293   8.784  0.00  0.00    +0.000 A 
ATOM     19  C   UNL     1      44.959   3.055   9.375  0.00  0.00    +0.000 A 
ATOM     20  C   UNL     1      45.575   1.910   8.855  0.00  0.00    +0.000 A 
BRANCH  15  22
ATOM     21  N   UNL     1      47.761   0.815   6.083  0.00  0.00    +0.000 N 
ATOM     22  C   UNL     1      47.036   0.735   7.237  0.00  0.00    +0.000 C 
ATOM     23  O   UNL     1      46.929  -0.324   7.841  0.00  0.00    +0.000 OA
ATOM     24  H   UNL     1      48.258  -0.028   5.813  0.00  0.00    +0.000 HD
ATOM     25  H   UNL     1      48.087   1.691   5.705  0.00  0.00    +0.000 HD
ENDBRANCH  15  22
ENDBRANCH  14  19
ENDBRANCH   1  14
TORSDOF 5
ENDMDL
MODEL 4
REMARK VINA RESULT:    -7.216      2.956      3.708
REMARK INTER + INTRA:          -9.776
REMARK INTER:                  -9.086
REMARK INTRA:                  -0.690
REMARK UNBOUND:                -0.451
REMARK  Name = 
REMARK  5 active torsions:
REMARK  status: ('A' for Active; 'I' for Inactive)
REMARK    1  A    between atoms: C_2  and  C_4
REMARK    2  A    between atoms: C_8  and  S_9
REMARK    3  A    between atoms: S_9  and  C_10
REMARK    4  A    between atoms: C_10  and  C_11
REMARK    5  A    between atoms: C_15  and  N_16
REMARK                            x       y       z     vdW  Elec       q    Type
REMARK                         _______ _______ _______ _____ _____    ______ ____
ROOT
ATOM      1  C   UNL     1      44.638   5.857  12.858  0.00  0.00    +0.000 C 
ENDROOT
BRANCH   1   2
ATOM      2  C   UNL     1      44.379   4.632  12.016  0.00  0.00    +0.000 A 
ATOM      3  C   UNL     1      43.332   3.771  12.327  0.00  0.00    +0.000 A 
ATOM      4  N   UNL     1      43.049   2.641  11.644  0.00  0.00    +0.000 NA
ATOM      5  C   UNL     1      43.830   2.376  10.566  0.00  0.00    +0.000 A 
ATOM      6  C   UNL     1      44.905   3.157  10.136  0.00  0.00    +0.000 A 
ATOM      7  C   UNL     1      45.191   4.266  10.932  0.00  0.00    +0.000 A 
BRANCH   6   8
ATOM      8  N   UNL     1      45.575   2.890   8.946  0.00  0.00    +0.000 N 
ATOM      9  C   UNL     1      45.669   1.494   8.500  0.00  0.00    +0.000 C 
ATOM     10  C   UNL     1      46.910   1.350   7.626  0.00  0.00    +0.000 C 
ATOM     11  C   UNL     1      46.877   2.332   6.456  0.00  0.00    +0.000 C 
ATOM     12  C   UNL     1      46.626   3.765   6.930  0.00  0.00    +0.000 C 
ATOM     13  C   UNL     1      45.415   3.864   7.862  0.00  0.00    +0.000 C 
ENDBRANCH   6   8
ENDBRANCH   1   2
BRANCH   1  14
ATOM     14  S   UNL     1      46.405   6.342  12.901  0.00  0.00    +0.000 S 
BRANCH  14  19
ATOM     15  C   UNL     1      45.052   9.909  11.584  0.00  0.00    +0.000 A 
ATOM     16  C   UNL     1      46.179  10.737  11.616  0.00  0.00    +0.000 A 
ATOM     17  C   UNL     1      47.404  10.225  12.044  0.00  0.00    +0.000 A 
ATOM     18  C   UNL     1      47.508   8.892  12.449  0.00  0.00    +0.000 A 
ATOM     19  C   UNL     1      46.386   8.061  12.446  0.00  0.00    +0.000 A 
ATOM     20  C   UNL     1      45.162   8.577  12.002  0.00  0.00    +0.000 A 
BRANCH  15  22
ATOM     21  N   UNL     1      43.293  10.006   9.902  0.00  0.00    +0.000 N 
ATOM     22  C   UNL     1      43.718  10.395  11.139  0.00  0.00    +0.000 C 
ATOM     23  O   UNL     1      43.009  11.083  11.862  0.00  0.00    +0.000 OA
ATOM     24  H   UNL     1      42.338  10.255   9.664  0.00  0.00    +0.000 HD
ATOM     25  H   UNL     1      43.717   9.245   9.395  0.00  0.00    +0.000 HD
ENDBRANCH  15  22
ENDBRANCH  14  19
ENDBRANCH   1  14
TORSDOF 5
ENDMDL
MODEL 5
REMARK VINA RESULT:    -7.168      1.493      1.986
REMARK INTER + INTRA:          -9.714
REMARK INTER:                  -8.952
REMARK INTRA:                  -0.762
REMARK UNBOUND:                -0.451
REMARK  Name = 
REMARK  5 active torsions:
REMARK  status: ('A' for Active; 'I' for Inactive)
REMARK    1  A    between atoms: C_2  and  C_4
REMARK    2  A    between atoms: C_8  and  S_9
REMARK    3  A    between atoms: S_9  and  C_10
REMARK    4  A    between atoms: C_10  and  C_11
REMARK    5  A    between atoms: C_15  and  N_16
REMARK                            x       y       z     vdW  Elec       q    Type
REMARK                         _______ _______ _______ _____ _____    ______ ____
ROOT
ATOM      1  C   UNL     1      45.448   7.290  12.765  0.00  0.00    +0.000 C 
ENDROOT
BRANCH   1   2
ATOM      2  C   UNL     1      44.791   6.102  12.107  0.00  0.00    +0.000 A 
ATOM      3  C   UNL     1      43.519   5.694  12.496  0.00  0.00    +0.000 A 
ATOM      4  N   UNL     1      42.872   4.628  11.979  0.00  0.00    +0.000 NA
ATOM      5  C   UNL     1      43.513   3.954  10.990  0.00  0.00    +0.000 A 
ATOM      6  C   UNL     1      44.783   4.259  10.497  0.00  0.00    +0.000 A 
ATOM      7  C   UNL     1      45.427   5.323  11.129  0.00  0.00    +0.000 A 
BRANCH   6   8
ATOM      8  N   UNL     1      45.318   3.602   9.393  0.00  0.00    +0.000 N 
ATOM      9  C   UNL     1      44.923   2.209   9.156  0.00  0.00    +0.000 C 
ATOM     10  C   UNL     1      46.036   1.518   8.375  0.00  0.00    +0.000 C 
ATOM     11  C   UNL     1      46.343   2.264   7.077  0.00  0.00    +0.000 C 
ATOM     12  C   UNL     1      46.604   3.750   7.329  0.00  0.00    +0.000 C 
ATOM     13  C   UNL     1      45.503   4.397   8.174  0.00  0.00    +0.000 C 
ENDBRANCH   6   8
ENDBRANCH   1   2
BRANCH   1  14
ATOM     14  S   UNL     1      47.273   7.294  12.589  0.00  0.00    +0.000 S 
BRANCH  14  19
ATOM     15  C   UNL     1      47.922   5.000  15.846  0.00  0.00    +0.000 A 
ATOM     16  C   UNL     1      48.630   5.834  16.717  0.00  0.00    +0.000 A 
ATOM     17  C   UNL     1      48.932   7.141  16.335  0.00  0.00    +0.000 A 
ATOM     18  C   UNL     1      48.540   7.617  15.081  0.00  0.00    +0.000 A 
ATOM     19  C   UNL     1      47.856   6.787  14.191  0.00  0.00    +0.000 A 
ATOM     20  C   UNL     1      47.542   5.481  14.586  0.00  0.00    +0.000 A 
BRANCH  15  22
ATOM     21  N   UNL     1      46.969   3.387  17.403  0.00  0.00    +0.000 N 
ATOM     22  C   UNL     1      47.569   3.598  16.195  0.00  0.00    +0.000 C 
ATOM     23  O   UNL     1      47.770   2.671  15.420  0.00  0.00    +0.000 OA
ATOM     24  H   UNL     1      46.638   2.443  17.573  0.00  0.00    +0.000 HD
ATOM     25  H   UNL     1      46.557   4.132  17.943  0.00  0.00    +0.000 HD
ENDBRANCH  15  22
ENDBRANCH  14  19
ENDBRANCH   1  14
TORSDOF 5
ENDMDL
MODEL 6
REMARK VINA RESULT:    -6.950      2.269      2.559
REMARK INTER + INTRA:          -9.432
REMARK INTER:                  -8.724
REMARK INTRA:                  -0.708
REMARK UNBOUND:                -0.451
REMARK  Name = 
REMARK  5 active torsions:
REMARK  status: ('A' for Active; 'I' for Inactive)
REMARK    1  A    between atoms: C_2  and  C_4
REMARK    2  A    between atoms: C_8  and  S_9
REMARK    3  A    between atoms: S_9  and  C_10
REMARK    4  A    between atoms: C_10  and  C_11
REMARK    5  A    between atoms: C_15  and  N_16
REMARK                            x       y       z     vdW  Elec       q    Type
REMARK                         _______ _______ _______ _____ _____    ______ ____
ROOT
ATOM      1  C   UNL     1      44.649   6.126  12.936  0.00  0.00    +0.000 C 
ENDROOT
BRANCH   1   2
ATOM      2  C   UNL     1      44.409   4.843  12.178  0.00  0.00    +0.000 A 
ATOM      3  C   UNL     1      43.426   3.952  12.594  0.00  0.00    +0.000 A 
ATOM      4  N   UNL     1      43.165   2.773  11.991  0.00  0.00    +0.000 NA
ATOM      5  C   UNL     1      43.900   2.484  10.887  0.00  0.00    +0.000 A 
ATOM      6  C   UNL     1      44.909   3.290  10.355  0.00  0.00    +0.000 A 
ATOM      7  C   UNL     1      45.179   4.456  11.072  0.00  0.00    +0.000 A 
BRANCH   6   8
ATOM      8  N   UNL     1      45.526   2.988   9.145  0.00  0.00    +0.000 N 
ATOM      9  C   UNL     1      45.476   1.601   8.667  0.00  0.00    +0.000 C 
ATOM     10  C   UNL     1      46.679   1.358   7.764  0.00  0.00    +0.000 C 
ATOM     11  C   UNL     1      46.720   2.366   6.616  0.00  0.00    +0.000 C 
ATOM     12  C   UNL     1      46.619   3.805   7.127  0.00  0.00    +0.000 C 
ATOM     13  C   UNL     1      45.441   3.999   8.086  0.00  0.00    +0.000 C 
ENDBRANCH   6   8
ENDBRANCH   1   2
BRANCH   1  14
ATOM     14  S   UNL     1      45.228   7.498  11.866  0.00  0.00    +0.000 S 
BRANCH  14  19
ATOM     15  C   UNL     1      48.441   8.692  13.998  0.00  0.00    +0.000 A 
ATOM     16  C   UNL     1      49.535   8.255  13.245  0.00  0.00    +0.000 A 
ATOM     17  C   UNL     1      49.324   7.575  12.044  0.00  0.00    +0.000 A 
ATOM     18  C   UNL     1      48.024   7.321  11.597  0.00  0.00    +0.000 A 
ATOM     19  C   UNL     1      46.923   7.730  12.353  0.00  0.00    +0.000 A 
ATOM     20  C   UNL     1      47.141   8.425  13.549  0.00  0.00    +0.000 A 
BRANCH  15  22
ATOM     21  N   UNL     1      47.625   9.249  16.224  0.00  0.00    +0.000 N 
ATOM     22  C   UNL     1      48.600   9.421  15.285  0.00  0.00    +0.000 C 
ATOM     23  O   UNL     1      49.581  10.117  15.514  0.00  0.00    +0.000 OA
ATOM     24  H   UNL     1      47.807   9.665  17.132  0.00  0.00    +0.000 HD
ATOM     25  H   UNL     1      46.953   8.499  16.180  0.00  0.00    +0.000 HD
ENDBRANCH  15  22
ENDBRANCH  14  19
ENDBRANCH   1  14
TORSDOF 5
ENDMDL
MODEL 7
REMARK VINA RESULT:    -6.820      2.833      6.974
REMARK INTER + INTRA:          -9.265
REMARK INTER:                  -8.582
REMARK INTRA:                  -0.682
REMARK UNBOUND:                -0.451
REMARK  Name = 
REMARK  5 active torsions:
REMARK  status: ('A' for Active; 'I' for Inactive)
REMARK    1  A    between atoms: C_2  and  C_4
REMARK    2  A    between atoms: C_8  and  S_9
REMARK    3  A    between atoms: S_9  and  C_10
REMARK    4  A    between atoms: C_10  and  C_11
REMARK    5  A    between atoms: C_15  and  N_16
REMARK                            x       y       z     vdW  Elec       q    Type
REMARK                         _______ _______ _______ _____ _____    ______ ____
ROOT
ATOM      1  C   UNL     1      43.818   3.906  10.498  0.00  0.00    +0.000 C 
ENDROOT
BRANCH   1   2
ATOM      2  C   UNL     1      44.775   4.375  11.567  0.00  0.00    +0.000 A 
ATOM      3  C   UNL     1      45.022   3.589  12.687  0.00  0.00    +0.000 A 
ATOM      4  N   UNL     1      45.840   3.945  13.700  0.00  0.00    +0.000 NA
ATOM      5  C   UNL     1      46.480   5.135  13.569  0.00  0.00    +0.000 A 
ATOM      6  C   UNL     1      46.334   6.016  12.496  0.00  0.00    +0.000 A 
ATOM      7  C   UNL     1      45.414   5.623  11.523  0.00  0.00    +0.000 A 
BRANCH   6   8
ATOM      8  N   UNL     1      47.123   7.156  12.370  0.00  0.00    +0.000 N 
ATOM      9  C   UNL     1      46.623   8.413  12.939  0.00  0.00    +0.000 C 
ATOM     10  C   UNL     1      47.248   9.572  12.171  0.00  0.00    +0.000 C 
ATOM     11  C   UNL     1      48.773   9.491  12.195  0.00  0.00    +0.000 C 
ATOM     12  C   UNL     1      49.270   8.117  11.740  0.00  0.00    +0.000 C 
ATOM     13  C   UNL     1      48.574   6.973  12.482  0.00  0.00    +0.000 C 
ENDBRANCH   6   8
ENDBRANCH   1   2
BRANCH   1  14
ATOM     14  S   UNL     1      44.383   4.301   8.800  0.00  0.00    +0.000 S 
BRANCH  14  19
ATOM     15  C   UNL     1      47.031   1.978   6.831  0.00  0.00    +0.000 A 
ATOM     16  C   UNL     1      46.840   0.703   7.375  0.00  0.00    +0.000 A 
ATOM     17  C   UNL     1      45.882   0.509   8.370  0.00  0.00    +0.000 A 
ATOM     18  C   UNL     1      45.120   1.585   8.834  0.00  0.00    +0.000 A 
ATOM     19  C   UNL     1      45.318   2.868   8.318  0.00  0.00    +0.000 A 
ATOM     20  C   UNL     1      46.271   3.053   7.308  0.00  0.00    +0.000 A 
BRANCH  15  22
ATOM     21  N   UNL     1      49.211   2.826   6.153  0.00  0.00    +0.000 N 
ATOM     22  C   UNL     1      48.036   2.248   5.768  0.00  0.00    +0.000 C 
ATOM     23  O   UNL     1      47.841   1.933   4.601  0.00  0.00    +0.000 OA
ATOM     24  H   UNL     1      49.924   2.900   5.434  0.00  0.00    +0.000 HD
ATOM     25  H   UNL     1      49.512   2.859   7.115  0.00  0.00    +0.000 HD
ENDBRANCH  15  22
ENDBRANCH  14  19
ENDBRANCH   1  14
TORSDOF 5
ENDMDL
MODEL 8
REMARK VINA RESULT:    -6.755      1.853      2.372
REMARK INTER + INTRA:          -9.180
REMARK INTER:                  -8.580
REMARK INTRA:                  -0.601
REMARK UNBOUND:                -0.451
REMARK  Name = 
REMARK  5 active torsions:
REMARK  status: ('A' for Active; 'I' for Inactive)
REMARK    1  A    between atoms: C_2  and  C_4
REMARK    2  A    between atoms: C_8  and  S_9
REMARK    3  A    between atoms: S_9  and  C_10
REMARK    4  A    between atoms: C_10  and  C_11
REMARK    5  A    between atoms: C_15  and  N_16
REMARK                            x       y       z     vdW  Elec       q    Type
REMARK                         _______ _______ _______ _____ _____    ______ ____
ROOT
ATOM      1  C   UNL     1      44.888   6.523  11.745  0.00  0.00    +0.000 C 
ENDROOT
BRANCH   1   2
ATOM      2  C   UNL     1      44.600   5.158  11.170  0.00  0.00    +0.000 A 
ATOM      3  C   UNL     1      43.528   4.407  11.637  0.00  0.00    +0.000 A 
ATOM      4  N   UNL     1      43.217   3.169  11.197  0.00  0.00    +0.000 NA
ATOM      5  C   UNL     1      43.998   2.668  10.206  0.00  0.00    +0.000 A 
ATOM      6  C   UNL     1      45.097   3.316   9.639  0.00  0.00    +0.000 A 
ATOM      7  C   UNL     1      45.408   4.557  10.194  0.00  0.00    +0.000 A 
BRANCH   6   8
ATOM      8  N   UNL     1      45.767   2.793   8.537  0.00  0.00    +0.000 N 
ATOM      9  C   UNL     1      45.777   1.336   8.358  0.00  0.00    +0.000 C 
ATOM     10  C   UNL     1      47.020   0.956   7.559  0.00  0.00    +0.000 C 
ATOM     11  C   UNL     1      47.069   1.705   6.228  0.00  0.00    +0.000 C 
ATOM     12  C   UNL     1      46.905   3.214   6.424  0.00  0.00    +0.000 C 
ATOM     13  C   UNL     1      45.688   3.557   7.288  0.00  0.00    +0.000 C 
ENDBRANCH   6   8
ENDBRANCH   1   2
BRANCH   1  14
ATOM     14  S   UNL     1      46.679   6.862  11.937  0.00  0.00    +0.000 S 
BRANCH  14  19
ATOM     15  C   UNL     1      48.459   6.195  15.497  0.00  0.00    +0.000 A 
ATOM     16  C   UNL     1      47.934   4.969  15.919  0.00  0.00    +0.000 A 
ATOM     17  C   UNL     1      47.011   4.296  15.118  0.00  0.00    +0.000 A 
ATOM     18  C   UNL     1      46.601   4.848  13.901  0.00  0.00    +0.000 A 
ATOM     19  C   UNL     1      47.097   6.083  13.480  0.00  0.00    +0.000 A 
ATOM     20  C   UNL     1      48.035   6.746  14.282  0.00  0.00    +0.000 A 
BRANCH  15  22
ATOM     21  N   UNL     1      50.751   6.905  15.913  0.00  0.00    +0.000 N 
ATOM     22  C   UNL     1      49.445   6.960  16.306  0.00  0.00    +0.000 C 
ATOM     23  O   UNL     1      49.103   7.645  17.261  0.00  0.00    +0.000 OA
ATOM     24  H   UNL     1      51.389   7.520  16.409  0.00  0.00    +0.000 HD
ATOM     25  H   UNL     1      51.032   6.577  15.002  0.00  0.00    +0.000 HD
ENDBRANCH  15  22
ENDBRANCH  14  19
ENDBRANCH   1  14
TORSDOF 5
ENDMDL
MODEL 9
REMARK VINA RESULT:    -6.588      2.414      7.363
REMARK INTER + INTRA:          -8.965
REMARK INTER:                  -8.190
REMARK INTRA:                  -0.775
REMARK UNBOUND:                -0.451
REMARK  Name = 
REMARK  5 active torsions:
REMARK  status: ('A' for Active; 'I' for Inactive)
REMARK    1  A    between atoms: C_2  and  C_4
REMARK    2  A    between atoms: C_8  and  S_9
REMARK    3  A    between atoms: S_9  and  C_10
REMARK    4  A    between atoms: C_10  and  C_11
REMARK    5  A    between atoms: C_15  and  N_16
REMARK                            x       y       z     vdW  Elec       q    Type
REMARK                         _______ _______ _______ _____ _____    ______ ____
ROOT
ATOM      1  C   UNL     1      47.134   7.197  11.825  0.00  0.00    +0.000 C 
ENDROOT
BRANCH   1   2
ATOM      2  C   UNL     1      47.787   7.294  13.182  0.00  0.00    +0.000 A 
ATOM      3  C   UNL     1      48.361   8.487  13.605  0.00  0.00    +0.000 A 
ATOM      4  N   UNL     1      48.988   8.651  14.789  0.00  0.00    +0.000 NA
ATOM      5  C   UNL     1      49.009   7.574  15.615  0.00  0.00    +0.000 A 
ATOM      6  C   UNL     1      48.465   6.322  15.322  0.00  0.00    +0.000 A 
ATOM      7  C   UNL     1      47.902   6.200  14.052  0.00  0.00    +0.000 A 
BRANCH   6   8
ATOM      8  N   UNL     1      48.410   5.307  16.273  0.00  0.00    +0.000 N 
ATOM      9  C   UNL     1      48.671   5.654  17.675  0.00  0.00    +0.000 C 
ATOM     10  C   UNL     1      49.194   4.413  18.390  0.00  0.00    +0.000 C 
ATOM     11  C   UNL     1      48.219   3.245  18.252  0.00  0.00    +0.000 C 
ATOM     12  C   UNL     1      47.842   2.995  16.790  0.00  0.00    +0.000 C 
ATOM     13  C   UNL     1      47.386   4.275  16.082  0.00  0.00    +0.000 C 
ENDBRANCH   6   8
ENDBRANCH   1   2
BRANCH   1  14
ATOM     14  S   UNL     1      45.311   7.383  11.887  0.00  0.00    +0.000 S 
BRANCH  14  19
ATOM     15  C   UNL     1      44.449   3.684  10.522  0.00  0.00    +0.000 A 
ATOM     16  C   UNL     1      43.770   3.076  11.583  0.00  0.00    +0.000 A 
ATOM     17  C   UNL     1      43.548   3.787  12.764  0.00  0.00    +0.000 A 
ATOM     18  C   UNL     1      44.010   5.099  12.893  0.00  0.00    +0.000 A 
ATOM     19  C   UNL     1      44.712   5.709  11.851  0.00  0.00    +0.000 A 
ATOM     20  C   UNL     1      44.918   4.995  10.664  0.00  0.00    +0.000 A 
BRANCH  15  22
ATOM     21  N   UNL     1      44.289   3.585   8.094  0.00  0.00    +0.000 N 
ATOM     22  C   UNL     1      44.717   2.979   9.240  0.00  0.00    +0.000 C 
ATOM     23  O   UNL     1      45.329   1.920   9.202  0.00  0.00    +0.000 OA
ATOM     24  H   UNL     1      44.578   3.144   7.226  0.00  0.00    +0.000 HD
ATOM     25  H   UNL     1      44.022   4.556   8.059  0.00  0.00    +0.000 HD
ENDBRANCH  15  22
ENDBRANCH  14  19
ENDBRANCH   1  14
TORSDOF 5
ENDMDL
