MODEL 1
REMARK VINA RESULT:    -6.798      0.000      0.000
REMARK INTER + INTRA:          -8.801
REMARK INTER:                  -7.990
REMARK INTRA:                  -0.811
REMARK UNBOUND:                -0.811
REMARK  Name = 
REMARK  3 active torsions:
REMARK  status: ('A' for Active; 'I' for Inactive)
REMARK    1  A    between atoms: N_8  and  C_9
REMARK    2  A    between atoms: C_9  and  C_10
REMARK    3  A    between atoms: C_14  and  C_15
REMARK                            x       y       z     vdW  Elec       q    Type
REMARK                         _______ _______ _______ _____ _____    ______ ____
ROOT
ATOM      1  C   UNL     1      44.234   5.810  11.433  0.00  0.00    +0.000 C 
ATOM      2  C   UNL     1      42.954   6.627  11.259  0.00  0.00    +0.000 C 
ATOM      3  C   UNL     1      43.294   6.059  12.595  0.00  0.00    +0.000 C 
ENDROOT
BRANCH   1  11
ATOM      4 CL   UNL     1      50.159   8.278  12.277  0.00  0.00    +0.000 Cl
ATOM      5  C   UNL     1      48.789   7.304  12.646  0.00  0.00    +0.000 A 
ATOM      6  C   UNL     1      48.760   6.575  13.812  0.00  0.00    +0.000 A 
ATOM      7  C   UNL     1      47.622   5.832  14.046  0.00  0.00    +0.000 A 
ATOM      8 CL   UNL     1      47.473   4.881  15.467  0.00  0.00    +0.000 Cl
ATOM      9  N   UNL     1      46.546   5.782  13.228  0.00  0.00    +0.000 NA
ATOM     10  C   UNL     1      46.594   6.496  12.089  0.00  0.00    +0.000 A 
ATOM     11  N   UNL     1      45.490   6.565  11.197  0.00  0.00    +0.000 N 
ATOM     12  C   UNL     1      47.710   7.272  11.771  0.00  0.00    +0.000 A 
ATOM     13  H   UNL     1      45.846   6.406  10.254  0.00  0.00    +0.000 HD
ENDBRANCH   1  11
BRANCH   1  14
ATOM     14  C   UNL     1      44.253   4.408  10.847  0.00  0.00    +0.000 A 
ATOM     15  C   UNL     1      43.647   3.336  11.514  0.00  0.00    +0.000 A 
ATOM     16  C   UNL     1      43.620   2.060  10.955  0.00  0.00    +0.000 A 
ATOM     17  C   UNL     1      44.255   1.816   9.737  0.00  0.00    +0.000 A 
ATOM     18  C   UNL     1      44.923   2.849   9.072  0.00  0.00    +0.000 A 
ATOM     19  C   UNL     1      44.888   4.137   9.623  0.00  0.00    +0.000 A 
BRANCH  18  20
ATOM     20  C   UNL     1      45.710   2.568   7.804  0.00  0.00    +0.000 C 
ATOM     21  C   UNL     1      46.522   1.270   7.952  0.00  0.00    +0.000 C 
ATOM     22  C   UNL     1      47.404   1.035   6.737  0.00  0.00    +0.000 C 
ATOM     23  O   UNL     1      48.240   2.165   6.498  0.00  0.00    +0.000 OA
ATOM     24  C   UNL     1      47.488   3.342   6.210  0.00  0.00    +0.000 C 
ATOM     25  C   UNL     1      46.623   3.735   7.401  0.00  0.00    +0.000 C 
ENDBRANCH  18  20
ENDBRANCH   1  14
TORSDOF 3
ENDMDL
MODEL 2
REMARK VINA RESULT:    -6.307      3.242      5.597
REMARK INTER + INTRA:          -8.225
REMARK INTER:                  -7.428
REMARK INTRA:                  -0.797
REMARK UNBOUND:                -0.811
REMARK  Name = 
REMARK  3 active torsions:
REMARK  status: ('A' for Active; 'I' for Inactive)
REMARK    1  A    between atoms: N_8  and  C_9
REMARK    2  A    between atoms: C_9  and  C_10
REMARK    3  A    between atoms: C_14  and  C_15
REMARK                            x       y       z     vdW  Elec       q    Type
REMARK                         _______ _______ _______ _____ _____    ______ ____
ROOT
ATOM      1  C   UNL     1      49.192   8.062  12.675  0.00  0.00    +0.000 C 
ATOM      2  C   UNL     1      50.091   8.272  11.456  0.00  0.00    +0.000 C 
ATOM      3  C   UNL     1      49.742   9.431  12.328  0.00  0.00    +0.000 C 
ENDROOT
BRANCH   1  11
ATOM      4 CL   UNL     1      50.798   5.642  18.461  0.00  0.00    +0.000 Cl
ATOM      5  C   UNL     1      50.031   6.720  17.360  0.00  0.00    +0.000 A 
ATOM      6  C   UNL     1      49.320   7.796  17.837  0.00  0.00    +0.000 A 
ATOM      7  C   UNL     1      48.748   8.624  16.894  0.00  0.00    +0.000 A 
ATOM      8 CL   UNL     1      47.836   9.997  17.371  0.00  0.00    +0.000 Cl
ATOM      9  N   UNL     1      48.847   8.459  15.554  0.00  0.00    +0.000 NA
ATOM     10  C   UNL     1      49.540   7.398  15.106  0.00  0.00    +0.000 A 
ATOM     11  N   UNL     1      49.759   7.173  13.720  0.00  0.00    +0.000 N 
ATOM     12  C   UNL     1      50.148   6.506  15.992  0.00  0.00    +0.000 A 
ATOM     13  H   UNL     1      49.546   6.195  13.529  0.00  0.00    +0.000 HD
ENDBRANCH   1  11
BRANCH   1  14
ATOM     14  C   UNL     1      47.713   7.827  12.420  0.00  0.00    +0.000 A 
ATOM     15  C   UNL     1      46.795   8.885  12.448  0.00  0.00    +0.000 A 
ATOM     16  C   UNL     1      45.447   8.680  12.166  0.00  0.00    +0.000 A 
ATOM     17  C   UNL     1      44.974   7.393  11.907  0.00  0.00    +0.000 A 
ATOM     18  C   UNL     1      45.850   6.302  11.931  0.00  0.00    +0.000 A 
ATOM     19  C   UNL     1      47.213   6.540  12.159  0.00  0.00    +0.000 A 
BRANCH  18  20
ATOM     20  C   UNL     1      45.327   4.888  11.761  0.00  0.00    +0.000 C 
ATOM     21  C   UNL     1      44.923   4.637  10.298  0.00  0.00    +0.000 C 
ATOM     22  C   UNL     1      44.289   3.266  10.133  0.00  0.00    +0.000 C 
ATOM     23  O   UNL     1      43.189   3.110  11.026  0.00  0.00    +0.000 OA
ATOM     24  C   UNL     1      43.589   3.192  12.393  0.00  0.00    +0.000 C 
ATOM     25  C   UNL     1      44.162   4.568  12.707  0.00  0.00    +0.000 C 
ENDBRANCH  18  20
ENDBRANCH   1  14
TORSDOF 3
ENDMDL
MODEL 3
REMARK VINA RESULT:    -6.035      4.145      6.388
REMARK INTER + INTRA:          -7.905
REMARK INTER:                  -7.931
REMARK INTRA:                   0.025
REMARK UNBOUND:                -0.811
REMARK  Name = 
REMARK  3 active torsions:
REMARK  status: ('A' for Active; 'I' for Inactive)
REMARK    1  A    between atoms: N_8  and  C_9
REMARK    2  A    between atoms: C_9  and  C_10
REMARK    3  A    between atoms: C_14  and  C_15
REMARK                            x       y       z     vdW  Elec       q    Type
REMARK                         _______ _______ _______ _____ _____    ______ ____
ROOT
ATOM      1  C   UNL     1      48.102   4.617  16.433  0.00  0.00    +0.000 C 
ATOM      2  C   UNL     1      46.982   4.223  17.397  0.00  0.00    +0.000 C 
ATOM      3  C   UNL     1      47.738   3.165  16.668  0.00  0.00    +0.000 C 
ENDROOT
BRANCH   1  11
ATOM      4 CL   UNL     1      53.851   5.644  19.229  0.00  0.00    +0.000 Cl
ATOM      5  C   UNL     1      52.618   4.733  18.445  0.00  0.00    +0.000 A 
ATOM      6  C   UNL     1      52.781   3.381  18.254  0.00  0.00    +0.000 A 
ATOM      7  C   UNL     1      51.743   2.716  17.635  0.00  0.00    +0.000 A 
ATOM      8 CL   UNL     1      51.834   1.028  17.342  0.00  0.00    +0.000 Cl
ATOM      9  N   UNL     1      50.591   3.293  17.219  0.00  0.00    +0.000 NA
ATOM     10  C   UNL     1      50.453   4.617  17.407  0.00  0.00    +0.000 A 
ATOM     11  N   UNL     1      49.255   5.303  17.068  0.00  0.00    +0.000 N 
ATOM     12  C   UNL     1      51.456   5.368  18.022  0.00  0.00    +0.000 A 
ATOM     13  H   UNL     1      49.518   6.142  16.550  0.00  0.00    +0.000 HD
ENDBRANCH   1  11
BRANCH   1  14
ATOM     14  C   UNL     1      47.697   5.224  15.101  0.00  0.00    +0.000 A 
ATOM     15  C   UNL     1      48.416   6.287  14.539  0.00  0.00    +0.000 A 
ATOM     16  C   UNL     1      48.075   6.811  13.295  0.00  0.00    +0.000 A 
ATOM     17  C   UNL     1      46.964   6.321  12.608  0.00  0.00    +0.000 A 
ATOM     18  C   UNL     1      46.186   5.301  13.166  0.00  0.00    +0.000 A 
ATOM     19  C   UNL     1      46.580   4.747  14.392  0.00  0.00    +0.000 A 
BRANCH  18  20
ATOM     20  C   UNL     1      44.914   4.838  12.479  0.00  0.00    +0.000 C 
ATOM     21  C   UNL     1      44.832   3.302  12.479  0.00  0.00    +0.000 C 
ATOM     22  C   UNL     1      43.623   2.818  11.695  0.00  0.00    +0.000 C 
ATOM     23  O   UNL     1      43.635   3.354  10.373  0.00  0.00    +0.000 OA
ATOM     24  C   UNL     1      43.558   4.778  10.368  0.00  0.00    +0.000 C 
ATOM     25  C   UNL     1      44.775   5.388  11.053  0.00  0.00    +0.000 C 
ENDBRANCH  18  20
ENDBRANCH   1  14
TORSDOF 3
ENDMDL
MODEL 4
REMARK VINA RESULT:    -6.034      4.259      6.746
REMARK INTER + INTRA:          -7.903
REMARK INTER:                  -7.512
REMARK INTRA:                  -0.391
REMARK UNBOUND:                -0.811
REMARK  Name = 
REMARK  3 active torsions:
REMARK  status: ('A' for Active; 'I' for Inactive)
REMARK    1  A    between atoms: N_8  and  C_9
REMARK    2  A    between atoms: C_9  and  C_10
REMARK    3  A    between atoms: C_14  and  C_15
REMARK                            x       y       z     vdW  Elec       q    Type
REMARK                         _______ _______ _______ _____ _____    ______ ____
ROOT
ATOM      1  C   UNL     1      47.812   4.527  16.809  0.00  0.00    +0.000 C 
ATOM      2  C   UNL     1      47.675   3.012  16.966  0.00  0.00    +0.000 C 
ATOM      3  C   UNL     1      49.027   3.639  16.984  0.00  0.00    +0.000 C 
ENDROOT
BRANCH   1  11
ATOM      4 CL   UNL     1      47.088   8.680  21.722  0.00  0.00    +0.000 Cl
ATOM      5  C   UNL     1      47.917   7.874  20.448  0.00  0.00    +0.000 A 
ATOM      6  C   UNL     1      49.253   8.121  20.234  0.00  0.00    +0.000 A 
ATOM      7  C   UNL     1      49.852   7.425  19.206  0.00  0.00    +0.000 A 
ATOM      8 CL   UNL     1      51.515   7.653  18.845  0.00  0.00    +0.000 Cl
ATOM      9  N   UNL     1      49.229   6.523  18.413  0.00  0.00    +0.000 NA
ATOM     10  C   UNL     1      47.921   6.299  18.631  0.00  0.00    +0.000 A 
ATOM     11  N   UNL     1      47.193   5.322  17.899  0.00  0.00    +0.000 N 
ATOM     12  C   UNL     1      47.235   6.964  19.649  0.00  0.00    +0.000 A 
ATOM     13  H   UNL     1      46.321   5.754  17.593  0.00  0.00    +0.000 HD
ENDBRANCH   1  11
BRANCH   1  14
ATOM     14  C   UNL     1      47.576   5.110  15.426  0.00  0.00    +0.000 A 
ATOM     15  C   UNL     1      48.385   6.139  14.926  0.00  0.00    +0.000 A 
ATOM     16  C   UNL     1      48.202   6.641  13.640  0.00  0.00    +0.000 A 
ATOM     17  C   UNL     1      47.160   6.163  12.843  0.00  0.00    +0.000 A 
ATOM     18  C   UNL     1      46.294   5.179  13.332  0.00  0.00    +0.000 A 
ATOM     19  C   UNL     1      46.533   4.646  14.607  0.00  0.00    +0.000 A 
BRANCH  18  20
ATOM     20  C   UNL     1      45.094   4.733  12.517  0.00  0.00    +0.000 C 
ATOM     21  C   UNL     1      45.352   4.954  11.017  0.00  0.00    +0.000 C 
ATOM     22  C   UNL     1      44.118   4.622  10.194  0.00  0.00    +0.000 C 
ATOM     23  O   UNL     1      42.991   5.362  10.659  0.00  0.00    +0.000 OA
ATOM     24  C   UNL     1      42.656   5.045  12.008  0.00  0.00    +0.000 C 
ATOM     25  C   UNL     1      43.793   5.422  12.950  0.00  0.00    +0.000 C 
ENDBRANCH  18  20
ENDBRANCH   1  14
TORSDOF 3
ENDMDL
MODEL 5
REMARK VINA RESULT:    -5.965      4.602      7.176
REMARK INTER + INTRA:          -7.822
REMARK INTER:                  -7.084
REMARK INTRA:                  -0.739
REMARK UNBOUND:                -0.811
REMARK  Name = 
REMARK  3 active torsions:
REMARK  status: ('A' for Active; 'I' for Inactive)
REMARK    1  A    between atoms: N_8  and  C_9
REMARK    2  A    between atoms: C_9  and  C_10
REMARK    3  A    between atoms: C_14  and  C_15
REMARK                            x       y       z     vdW  Elec       q    Type
REMARK                         _______ _______ _______ _____ _____    ______ ____
ROOT
ATOM      1  C   UNL     1      49.797   7.555  16.321  0.00  0.00    +0.000 C 
ATOM      2  C   UNL     1      49.848   8.951  16.942  0.00  0.00    +0.000 C 
ATOM      3  C   UNL     1      48.694   8.053  17.233  0.00  0.00    +0.000 C 
ENDROOT
BRANCH   1  11
ATOM      4 CL   UNL     1      52.933   2.268  18.353  0.00  0.00    +0.000 Cl
ATOM      5  C   UNL     1      51.586   3.192  17.812  0.00  0.00    +0.000 A 
ATOM      6  C   UNL     1      50.338   2.617  17.755  0.00  0.00    +0.000 A 
ATOM      7  C   UNL     1      49.305   3.425  17.328  0.00  0.00    +0.000 A 
ATOM      8 CL   UNL     1      47.704   2.816  17.216  0.00  0.00    +0.000 Cl
ATOM      9  N   UNL     1      49.432   4.726  16.977  0.00  0.00    +0.000 NA
ATOM     10  C   UNL     1      50.661   5.270  17.031  0.00  0.00    +0.000 A 
ATOM     11  N   UNL     1      50.888   6.644  16.748  0.00  0.00    +0.000 N 
ATOM     12  C   UNL     1      51.763   4.522  17.448  0.00  0.00    +0.000 A 
ATOM     13  H   UNL     1      51.686   6.699  16.116  0.00  0.00    +0.000 HD
ENDBRANCH   1  11
BRANCH   1  14
ATOM     14  C   UNL     1      49.478   7.461  14.839  0.00  0.00    +0.000 A 
ATOM     15  C   UNL     1      50.300   8.066  13.880  0.00  0.00    +0.000 A 
ATOM     16  C   UNL     1      50.037   7.939  12.518  0.00  0.00    +0.000 A 
ATOM     17  C   UNL     1      48.903   7.250  12.086  0.00  0.00    +0.000 A 
ATOM     18  C   UNL     1      48.025   6.685  13.016  0.00  0.00    +0.000 A 
ATOM     19  C   UNL     1      48.341   6.774  14.379  0.00  0.00    +0.000 A 
BRANCH  18  20
ATOM     20  C   UNL     1      46.734   6.030  12.560  0.00  0.00    +0.000 C 
ATOM     21  C   UNL     1      45.669   7.098  12.256  0.00  0.00    +0.000 C 
ATOM     22  C   UNL     1      44.335   6.458  11.909  0.00  0.00    +0.000 C 
ATOM     23  O   UNL     1      43.921   5.569  12.944  0.00  0.00    +0.000 OA
ATOM     24  C   UNL     1      44.835   4.489  13.126  0.00  0.00    +0.000 C 
ATOM     25  C   UNL     1      46.199   5.004  13.569  0.00  0.00    +0.000 C 
ENDBRANCH  18  20
ENDBRANCH   1  14
TORSDOF 3
ENDMDL
MODEL 6
REMARK VINA RESULT:    -5.889      4.284      7.799
REMARK INTER + INTRA:          -7.734
REMARK INTER:                  -7.086
REMARK INTRA:                  -0.648
REMARK UNBOUND:                -0.811
REMARK  Name = 
REMARK  3 active torsions:
REMARK  status: ('A' for Active; 'I' for Inactive)
REMARK    1  A    between atoms: N_8  and  C_9
REMARK    2  A    between atoms: C_9  and  C_10
REMARK    3  A    between atoms: C_14  and  C_15
REMARK                            x       y       z     vdW  Elec       q    Type
REMARK                         _______ _______ _______ _____ _____    ______ ____
ROOT
ATOM      1  C   UNL     1      48.288   8.131  13.101  0.00  0.00    +0.000 C 
ATOM      2  C   UNL     1      49.163   9.119  12.330  0.00  0.00    +0.000 C 
ATOM      3  C   UNL     1      49.463   7.660  12.267  0.00  0.00    +0.000 C 
ENDROOT
BRANCH   1  11
ATOM      4 CL   UNL     1      42.431   5.855  11.542  0.00  0.00    +0.000 Cl
ATOM      5  C   UNL     1      44.044   5.783  12.139  0.00  0.00    +0.000 A 
ATOM      6  C   UNL     1      44.578   4.576  12.526  0.00  0.00    +0.000 A 
ATOM      7  C   UNL     1      45.881   4.595  12.977  0.00  0.00    +0.000 A 
ATOM      8 CL   UNL     1      46.653   3.150  13.488  0.00  0.00    +0.000 Cl
ATOM      9  N   UNL     1      46.660   5.699  13.054  0.00  0.00    +0.000 NA
ATOM     10  C   UNL     1      46.118   6.871  12.679  0.00  0.00    +0.000 A 
ATOM     11  N   UNL     1      46.873   8.076  12.658  0.00  0.00    +0.000 N 
ATOM     12  C   UNL     1      44.804   6.944  12.213  0.00  0.00    +0.000 A 
ATOM     13  H   UNL     1      46.314   8.797  13.114  0.00  0.00    +0.000 HD
ENDBRANCH   1  11
BRANCH   1  14
ATOM     14  C   UNL     1      48.450   8.084  14.611  0.00  0.00    +0.000 A 
ATOM     15  C   UNL     1      48.290   9.235  15.393  0.00  0.00    +0.000 A 
ATOM     16  C   UNL     1      48.389   9.185  16.781  0.00  0.00    +0.000 A 
ATOM     17  C   UNL     1      48.713   7.986  17.417  0.00  0.00    +0.000 A 
ATOM     18  C   UNL     1      48.941   6.829  16.664  0.00  0.00    +0.000 A 
ATOM     19  C   UNL     1      48.778   6.889  15.273  0.00  0.00    +0.000 A 
BRANCH  18  20
ATOM     20  C   UNL     1      49.401   5.549  17.337  0.00  0.00    +0.000 C 
ATOM     21  C   UNL     1      50.900   5.317  17.081  0.00  0.00    +0.000 C 
ATOM     22  C   UNL     1      51.352   3.982  17.650  0.00  0.00    +0.000 C 
ATOM     23  O   UNL     1      50.551   2.920  17.136  0.00  0.00    +0.000 OA
ATOM     24  C   UNL     1      49.179   3.054  17.502  0.00  0.00    +0.000 C 
ATOM     25  C   UNL     1      48.582   4.323  16.908  0.00  0.00    +0.000 C 
ENDBRANCH  18  20
ENDBRANCH   1  14
TORSDOF 3
ENDMDL
MODEL 7
REMARK VINA RESULT:    -5.643      4.307      7.598
REMARK INTER + INTRA:          -7.445
REMARK INTER:                  -7.134
REMARK INTRA:                  -0.310
REMARK UNBOUND:                -0.811
REMARK  Name = 
REMARK  3 active torsions:
REMARK  status: ('A' for Active; 'I' for Inactive)
REMARK    1  A    between atoms: N_8  and  C_9
REMARK    2  A    between atoms: C_9  and  C_10
REMARK    3  A    between atoms: C_14  and  C_15
REMARK                            x       y       z     vdW  Elec       q    Type
REMARK                         _______ _______ _______ _____ _____    ______ ____
ROOT
ATOM      1  C   UNL     1      47.345   7.548  12.246  0.00  0.00    +0.000 C 
ATOM      2  C   UNL     1      48.690   7.263  12.914  0.00  0.00    +0.000 C 
ATOM      3  C   UNL     1      47.424   6.994  13.655  0.00  0.00    +0.000 C 
ENDROOT
BRANCH   1  11
ATOM      4 CL   UNL     1      44.468   3.440   8.153  0.00  0.00    +0.000 Cl
ATOM      5  C   UNL     1      44.634   4.386   9.581  0.00  0.00    +0.000 A 
ATOM      6  C   UNL     1      43.682   4.307  10.570  0.00  0.00    +0.000 A 
ATOM      7  C   UNL     1      43.893   5.082  11.692  0.00  0.00    +0.000 A 
ATOM      8 CL   UNL     1      42.771   5.067  12.991  0.00  0.00    +0.000 Cl
ATOM      9  N   UNL     1      44.959   5.892  11.886  0.00  0.00    +0.000 NA
ATOM     10  C   UNL     1      45.876   5.962  10.905  0.00  0.00    +0.000 A 
ATOM     11  N   UNL     1      47.064   6.730  11.040  0.00  0.00    +0.000 N 
ATOM     12  C   UNL     1      45.739   5.215   9.734  0.00  0.00    +0.000 A 
ATOM     13  H   UNL     1      47.175   7.278  10.187  0.00  0.00    +0.000 HD
ENDBRANCH   1  11
BRANCH   1  14
ATOM     14  C   UNL     1      46.933   9.003  12.099  0.00  0.00    +0.000 A 
ATOM     15  C   UNL     1      47.866  10.038  12.237  0.00  0.00    +0.000 A 
ATOM     16  C   UNL     1      47.500  11.370  12.053  0.00  0.00    +0.000 A 
ATOM     17  C   UNL     1      46.172  11.700  11.784  0.00  0.00    +0.000 A 
ATOM     18  C   UNL     1      45.200  10.697  11.699  0.00  0.00    +0.000 A 
ATOM     19  C   UNL     1      45.600   9.360  11.829  0.00  0.00    +0.000 A 
BRANCH  18  20
ATOM     20  C   UNL     1      43.736  11.055  11.517  0.00  0.00    +0.000 C 
ATOM     21  C   UNL     1      43.001   9.939  10.755  0.00  0.00    +0.000 C 
ATOM     22  C   UNL     1      41.562  10.331  10.463  0.00  0.00    +0.000 C 
ATOM     23  O   UNL     1      41.513  11.576   9.769  0.00  0.00    +0.000 OA
ATOM     24  C   UNL     1      42.059  12.645  10.539  0.00  0.00    +0.000 C 
ATOM     25  C   UNL     1      43.537  12.408  10.820  0.00  0.00    +0.000 C 
ENDBRANCH  18  20
ENDBRANCH   1  14
TORSDOF 3
ENDMDL
MODEL 8
REMARK VINA RESULT:    -5.638      3.352      5.692
REMARK INTER + INTRA:          -7.438
REMARK INTER:                  -6.767
REMARK INTRA:                  -0.672
REMARK UNBOUND:                -0.811
REMARK  Name = 
REMARK  3 active torsions:
REMARK  status: ('A' for Active; 'I' for Inactive)
REMARK    1  A    between atoms: N_8  and  C_9
REMARK    2  A    between atoms: C_9  and  C_10
REMARK    3  A    between atoms: C_14  and  C_15
REMARK                            x       y       z     vdW  Elec       q    Type
REMARK                         _______ _______ _______ _____ _____    ______ ____
ROOT
ATOM      1  C   UNL     1      48.507   8.316  13.755  0.00  0.00    +0.000 C 
ATOM      2  C   UNL     1      48.515   8.109  15.269  0.00  0.00    +0.000 C 
ATOM      3  C   UNL     1      49.239   7.150  14.387  0.00  0.00    +0.000 C 
ENDROOT
BRANCH   1  11
ATOM      4 CL   UNL     1      52.465  12.375  10.629  0.00  0.00    +0.000 Cl
ATOM      5  C   UNL     1      51.748  10.860  11.021  0.00  0.00    +0.000 A 
ATOM      6  C   UNL     1      52.208   9.709  10.424  0.00  0.00    +0.000 A 
ATOM      7  C   UNL     1      51.596   8.532  10.802  0.00  0.00    +0.000 A 
ATOM      8 CL   UNL     1      52.084   7.034  10.123  0.00  0.00    +0.000 Cl
ATOM      9  N   UNL     1      50.599   8.433  11.711  0.00  0.00    +0.000 NA
ATOM     10  C   UNL     1      50.158   9.569  12.280  0.00  0.00    +0.000 A 
ATOM     11  N   UNL     1      49.163   9.565  13.295  0.00  0.00    +0.000 N 
ATOM     12  C   UNL     1      50.718  10.805  11.952  0.00  0.00    +0.000 A 
ATOM     13  H   UNL     1      48.475  10.278  13.054  0.00  0.00    +0.000 HD
ENDBRANCH   1  11
BRANCH   1  14
ATOM     14  C   UNL     1      47.218   8.003  13.014  0.00  0.00    +0.000 A 
ATOM     15  C   UNL     1      46.334   9.021  12.635  0.00  0.00    +0.000 A 
ATOM     16  C   UNL     1      45.176   8.740  11.912  0.00  0.00    +0.000 A 
ATOM     17  C   UNL     1      44.847   7.420  11.603  0.00  0.00    +0.000 A 
ATOM     18  C   UNL     1      45.675   6.372  12.018  0.00  0.00    +0.000 A 
ATOM     19  C   UNL     1      46.864   6.681  12.693  0.00  0.00    +0.000 A 
BRANCH  18  20
ATOM     20  C   UNL     1      45.268   4.928  11.783  0.00  0.00    +0.000 C 
ATOM     21  C   UNL     1      44.862   4.717  10.315  0.00  0.00    +0.000 C 
ATOM     22  C   UNL     1      44.343   3.307  10.088  0.00  0.00    +0.000 C 
ATOM     23  O   UNL     1      43.274   3.015  10.987  0.00  0.00    +0.000 OA
ATOM     24  C   UNL     1      43.689   3.063  12.351  0.00  0.00    +0.000 C 
ATOM     25  C   UNL     1      44.150   4.465  12.727  0.00  0.00    +0.000 C 
ENDBRANCH  18  20
ENDBRANCH   1  14
TORSDOF 3
ENDMDL
MODEL 9
REMARK VINA RESULT:    -5.454      4.870      7.958
REMARK INTER + INTRA:          -7.222
REMARK INTER:                  -6.434
REMARK INTRA:                  -0.788
REMARK UNBOUND:                -0.811
REMARK  Name = 
REMARK  3 active torsions:
REMARK  status: ('A' for Active; 'I' for Inactive)
REMARK    1  A    between atoms: N_8  and  C_9
REMARK    2  A    between atoms: C_9  and  C_10
REMARK    3  A    between atoms: C_14  and  C_15
REMARK                            x       y       z     vdW  Elec       q    Type
REMARK                         _______ _______ _______ _____ _____    ______ ____
ROOT
ATOM      1  C   UNL     1      49.150   8.946  14.569  0.00  0.00    +0.000 C 
ATOM      2  C   UNL     1      50.429   9.781  14.508  0.00  0.00    +0.000 C 
ATOM      3  C   UNL     1      50.400   8.425  13.890  0.00  0.00    +0.000 C 
ENDROOT
BRANCH   1  11
ATOM      4 CL   UNL     1      43.738   9.471  11.056  0.00  0.00    +0.000 Cl
ATOM      5  C   UNL     1      44.994   8.657  11.905  0.00  0.00    +0.000 A 
ATOM      6  C   UNL     1      45.046   7.283  11.901  0.00  0.00    +0.000 A 
ATOM      7  C   UNL     1      46.091   6.703  12.589  0.00  0.00    +0.000 A 
ATOM      8 CL   UNL     1      46.257   4.996  12.656  0.00  0.00    +0.000 Cl
ATOM      9  N   UNL     1      47.058   7.383  13.248  0.00  0.00    +0.000 NA
ATOM     10  C   UNL     1      46.988   8.726  13.247  0.00  0.00    +0.000 A 
ATOM     11  N   UNL     1      47.990   9.532  13.851  0.00  0.00    +0.000 N 
ATOM     12  C   UNL     1      45.960   9.394  12.579  0.00  0.00    +0.000 A 
ATOM     13  H   UNL     1      47.519  10.234  14.420  0.00  0.00    +0.000 HD
ENDBRANCH   1  11
BRANCH   1  14
ATOM     14  C   UNL     1      48.782   8.329  15.908  0.00  0.00    +0.000 A 
ATOM     15  C   UNL     1      48.307   9.117  16.964  0.00  0.00    +0.000 A 
ATOM     16  C   UNL     1      47.923   8.547  18.175  0.00  0.00    +0.000 A 
ATOM     17  C   UNL     1      48.062   7.173  18.377  0.00  0.00    +0.000 A 
ATOM     18  C   UNL     1      48.590   6.362  17.367  0.00  0.00    +0.000 A 
ATOM     19  C   UNL     1      48.916   6.948  16.136  0.00  0.00    +0.000 A 
BRANCH  18  20
ATOM     20  C   UNL     1      48.848   4.887  17.617  0.00  0.00    +0.000 C 
ATOM     21  C   UNL     1      50.346   4.572  17.470  0.00  0.00    +0.000 C 
ATOM     22  C   UNL     1      50.608   3.081  17.603  0.00  0.00    +0.000 C 
ATOM     23  O   UNL     1      49.813   2.347  16.674  0.00  0.00    +0.000 OA
ATOM     24  C   UNL     1      48.416   2.520  16.905  0.00  0.00    +0.000 C 
ATOM     25  C   UNL     1      48.011   3.975  16.709  0.00  0.00    +0.000 C 
ENDBRANCH  18  20
ENDBRANCH   1  14
TORSDOF 3
ENDMDL
