MODEL 1
REMARK VINA RESULT:    -7.588      0.000      0.000
REMARK INTER + INTRA:         -12.467
REMARK INTER:                 -11.136
REMARK INTRA:                  -1.330
REMARK UNBOUND:                -1.330
REMARK  Name = 
REMARK  9 active torsions:
REMARK  status: ('A' for Active; 'I' for Inactive)
REMARK    1  A    between atoms: C_1  and  C_2
REMARK    2  A    between atoms: C_2  and  C_3
REMARK    3  A    between atoms: C_3  and  N_4
REMARK    4  A    between atoms: C_10  and  C_11
REMARK    5  A    between atoms: N_13  and  C_14
REMARK    6  A    between atoms: C_14  and  C_15
REMARK    7  A    between atoms: C_18  and  C_19
REMARK    8  A    between atoms: C_19  and  N_20
REMARK    9  A    between atoms: C_21  and  C_23
REMARK                            x       y       z     vdW  Elec       q    Type
REMARK                         _______ _______ _______ _____ _____    ______ ____
ROOT
ATOM      1  C   UNL     1      46.477   8.623  13.095  0.00  0.00    +0.000 C 
ENDROOT
BRANCH   1   2
ATOM      2  C   UNL     1      45.887   7.321  12.613  0.00  0.00    +0.000 A 
ATOM      3  C   UNL     1      44.725   7.298  11.832  0.00  0.00    +0.000 A 
ATOM      4  C   UNL     1      44.188   6.083  11.388  0.00  0.00    +0.000 A 
ATOM      5  C   UNL     1      44.789   4.867  11.739  0.00  0.00    +0.000 A 
ATOM      6  C   UNL     1      45.943   4.891  12.534  0.00  0.00    +0.000 A 
ATOM      7  C   UNL     1      46.481   6.104  12.974  0.00  0.00    +0.000 A 
BRANCH   5   8
ATOM      8  C   UNL     1      44.222   3.559  11.256  0.00  0.00    +0.000 C 
BRANCH   8   9
ATOM      9  N   UNL     1      45.070   2.932  10.273  0.00  0.00    +0.000 N 
ATOM     10  C   UNL     1      45.034   3.310   8.947  0.00  0.00    +0.000 C 
ATOM     11  O   UNL     1      44.345   4.232   8.522  0.00  0.00    +0.000 OA
ATOM     12  H   UNL     1      45.665   2.148  10.527  0.00  0.00    +0.000 HD
BRANCH  10  13
ATOM     13  C   UNL     1      45.885   2.501   8.031  0.00  0.00    +0.000 A 
ATOM     14  C   UNL     1      46.361   3.061   6.853  0.00  0.00    +0.000 A 
ATOM     15  N   UNL     1      47.096   2.351   5.957  0.00  0.00    +0.000 NA
ATOM     16  C   UNL     1      47.328   1.061   6.294  0.00  0.00    +0.000 A 
ATOM     17  C   UNL     1      46.864   0.505   7.477  0.00  0.00    +0.000 A 
ATOM     18  N   UNL     1      46.134   1.204   8.380  0.00  0.00    +0.000 NA
ENDBRANCH  10  13
ENDBRANCH   8   9
ENDBRANCH   5   8
ENDBRANCH   1   2
BRANCH   1  21
ATOM     19  C   UNL     1      48.155   9.084  14.834  0.00  0.00    +0.000 C 
ATOM     20  O   UNL     1      48.920   9.627  14.042  0.00  0.00    +0.000 OA
ATOM     21  N   UNL     1      46.982   8.492  14.436  0.00  0.00    +0.000 N 
ATOM     22  H   UNL     1      46.296   8.256  15.144  0.00  0.00    +0.000 HD
BRANCH  19  29
ATOM     23  N   UNL     1      49.349   5.604  17.742  0.00  0.00    +0.000 N 
ATOM     24  C   UNL     1      49.560   6.089  19.019  0.00  0.00    +0.000 A 
ATOM     25  N   UNL     1      49.446   7.324  19.383  0.00  0.00    +0.000 NA
ATOM     26  C   UNL     1      49.078   8.170  18.388  0.00  0.00    +0.000 A 
ATOM     27  S   UNL     1      48.812   9.823  18.696  0.00  0.00    +0.000 S 
ATOM     28  C   UNL     1      48.388  10.116  17.070  0.00  0.00    +0.000 A 
ATOM     29  C   UNL     1      48.476   8.990  16.263  0.00  0.00    +0.000 A 
ATOM     30  C   UNL     1      48.870   7.849  17.060  0.00  0.00    +0.000 A 
ATOM     31  C   UNL     1      49.045   6.457  16.686  0.00  0.00    +0.000 A 
ATOM     32  O   UNL     1      48.954   6.074  15.522  0.00  0.00    +0.000 OA
BRANCH  23  33
ATOM     33  C   UNL     1      49.535   4.187  17.463  0.00  0.00    +0.000 C 
BRANCH  33  35
ATOM     34  C   UNL     1      47.184   3.310  17.287  0.00  0.00    +0.000 C 
ATOM     35  C   UNL     1      48.453   3.333  18.124  0.00  0.00    +0.000 C 
ENDBRANCH  33  35
ENDBRANCH  23  33
ENDBRANCH  19  29
ENDBRANCH   1  21
TORSDOF 8
ENDMDL
MODEL 2
REMARK VINA RESULT:    -7.513      4.790      8.365
REMARK INTER + INTRA:         -12.357
REMARK INTER:                 -11.165
REMARK INTRA:                  -1.192
REMARK UNBOUND:                -1.330
REMARK  Name = 
REMARK  9 active torsions:
REMARK  status: ('A' for Active; 'I' for Inactive)
REMARK    1  A    between atoms: C_1  and  C_2
REMARK    2  A    between atoms: C_2  and  C_3
REMARK    3  A    between atoms: C_3  and  N_4
REMARK    4  A    between atoms: C_10  and  C_11
REMARK    5  A    between atoms: N_13  and  C_14
REMARK    6  A    between atoms: C_14  and  C_15
REMARK    7  A    between atoms: C_18  and  C_19
REMARK    8  A    between atoms: C_19  and  N_20
REMARK    9  A    between atoms: C_21  and  C_23
REMARK                            x       y       z     vdW  Elec       q    Type
REMARK                         _______ _______ _______ _____ _____    ______ ____
ROOT
ATOM      1  C   UNL     1      46.132   8.273  12.633  0.00  0.00    +0.000 C 
ENDROOT
BRANCH   1   2
ATOM      2  C   UNL     1      47.579   8.438  12.240  0.00  0.00    +0.000 A 
ATOM      3  C   UNL     1      48.099   9.695  11.908  0.00  0.00    +0.000 A 
ATOM      4  C   UNL     1      49.444   9.838  11.547  0.00  0.00    +0.000 A 
ATOM      5  C   UNL     1      50.289   8.721  11.489  0.00  0.00    +0.000 A 
ATOM      6  C   UNL     1      49.763   7.461  11.807  0.00  0.00    +0.000 A 
ATOM      7  C   UNL     1      48.420   7.320  12.170  0.00  0.00    +0.000 A 
BRANCH   5   8
ATOM      8  C   UNL     1      51.739   8.870  11.112  0.00  0.00    +0.000 C 
BRANCH   8   9
ATOM      9  N   UNL     1      52.204   7.765  10.311  0.00  0.00    +0.000 N 
ATOM     10  C   UNL     1      52.966   7.970   9.179  0.00  0.00    +0.000 C 
ATOM     11  O   UNL     1      53.355   9.074   8.812  0.00  0.00    +0.000 OA
ATOM     12  H   UNL     1      51.921   6.813  10.526  0.00  0.00    +0.000 HD
BRANCH  10  13
ATOM     13  C   UNL     1      53.280   6.744   8.393  0.00  0.00    +0.000 A 
ATOM     14  C   UNL     1      52.487   6.396   7.309  0.00  0.00    +0.000 A 
ATOM     15  N   UNL     1      52.696   5.262   6.590  0.00  0.00    +0.000 NA
ATOM     16  C   UNL     1      53.730   4.496   7.009  0.00  0.00    +0.000 A 
ATOM     17  C   UNL     1      54.531   4.850   8.086  0.00  0.00    +0.000 A 
ATOM     18  N   UNL     1      54.334   5.981   8.806  0.00  0.00    +0.000 NA
ENDBRANCH  10  13
ENDBRANCH   8   9
ENDBRANCH   5   8
ENDBRANCH   1   2
BRANCH   1  21
ATOM     19  C   UNL     1      44.618   6.616  11.626  0.00  0.00    +0.000 C 
ATOM     20  O   UNL     1      43.871   7.478  11.175  0.00  0.00    +0.000 OA
ATOM     21  N   UNL     1      45.695   6.918  12.421  0.00  0.00    +0.000 N 
ATOM     22  H   UNL     1      46.393   6.200  12.583  0.00  0.00    +0.000 HD
BRANCH  19  29
ATOM     23  N   UNL     1      45.768   3.589   8.234  0.00  0.00    +0.000 N 
ATOM     24  C   UNL     1      45.280   2.329   8.522  0.00  0.00    +0.000 A 
ATOM     25  N   UNL     1      44.596   2.007   9.571  0.00  0.00    +0.000 NA
ATOM     26  C   UNL     1      44.362   3.037  10.424  0.00  0.00    +0.000 A 
ATOM     27  S   UNL     1      43.420   2.818  11.824  0.00  0.00    +0.000 S 
ATOM     28  C   UNL     1      43.581   4.460  12.258  0.00  0.00    +0.000 A 
ATOM     29  C   UNL     1      44.373   5.189  11.382  0.00  0.00    +0.000 A 
ATOM     30  C   UNL     1      44.813   4.337  10.299  0.00  0.00    +0.000 A 
ATOM     31  C   UNL     1      45.609   4.646   9.124  0.00  0.00    +0.000 A 
ATOM     32  O   UNL     1      46.119   5.750   8.949  0.00  0.00    +0.000 OA
BRANCH  23  33
ATOM     33  C   UNL     1      46.546   3.808   7.022  0.00  0.00    +0.000 C 
BRANCH  33  35
ATOM     34  C   UNL     1      47.225   2.215   5.199  0.00  0.00    +0.000 C 
ATOM     35  C   UNL     1      47.392   2.587   6.663  0.00  0.00    +0.000 C 
ENDBRANCH  33  35
ENDBRANCH  23  33
ENDBRANCH  19  29
ENDBRANCH   1  21
TORSDOF 8
ENDMDL
MODEL 3
REMARK VINA RESULT:    -7.410      1.249      1.479
REMARK INTER + INTRA:         -12.205
REMARK INTER:                 -11.083
REMARK INTRA:                  -1.122
REMARK UNBOUND:                -1.330
REMARK  Name = 
REMARK  9 active torsions:
REMARK  status: ('A' for Active; 'I' for Inactive)
REMARK    1  A    between atoms: C_1  and  C_2
REMARK    2  A    between atoms: C_2  and  C_3
REMARK    3  A    between atoms: C_3  and  N_4
REMARK    4  A    between atoms: C_10  and  C_11
REMARK    5  A    between atoms: N_13  and  C_14
REMARK    6  A    between atoms: C_14  and  C_15
REMARK    7  A    between atoms: C_18  and  C_19
REMARK    8  A    between atoms: C_19  and  N_20
REMARK    9  A    between atoms: C_21  and  C_23
REMARK                            x       y       z     vdW  Elec       q    Type
REMARK                         _______ _______ _______ _____ _____    ______ ____
ROOT
ATOM      1  C   UNL     1      47.596   8.744  13.669  0.00  0.00    +0.000 C 
ENDROOT
BRANCH   1   2
ATOM      2  C   UNL     1      46.704   7.838  12.858  0.00  0.00    +0.000 A 
ATOM      3  C   UNL     1      45.571   8.336  12.203  0.00  0.00    +0.000 A 
ATOM      4  C   UNL     1      44.751   7.486  11.451  0.00  0.00    +0.000 A 
ATOM      5  C   UNL     1      45.037   6.117  11.358  0.00  0.00    +0.000 A 
ATOM      6  C   UNL     1      46.163   5.617  12.027  0.00  0.00    +0.000 A 
ATOM      7  C   UNL     1      46.983   6.467  12.776  0.00  0.00    +0.000 A 
BRANCH   5   8
ATOM      8  C   UNL     1      44.165   5.200  10.542  0.00  0.00    +0.000 C 
BRANCH   8   9
ATOM      9  N   UNL     1      44.905   4.543   9.494  0.00  0.00    +0.000 N 
ATOM     10  C   UNL     1      44.793   3.186   9.277  0.00  0.00    +0.000 C 
ATOM     11  O   UNL     1      44.023   2.460   9.898  0.00  0.00    +0.000 OA
ATOM     12  H   UNL     1      45.581   5.058   8.935  0.00  0.00    +0.000 HD
BRANCH  10  13
ATOM     13  C   UNL     1      45.699   2.631   8.233  0.00  0.00    +0.000 A 
ATOM     14  C   UNL     1      45.997   3.383   7.106  0.00  0.00    +0.000 A 
ATOM     15  N   UNL     1      46.775   2.905   6.099  0.00  0.00    +0.000 NA
ATOM     16  C   UNL     1      47.234   1.644   6.273  0.00  0.00    +0.000 A 
ATOM     17  C   UNL     1      46.945   0.897   7.406  0.00  0.00    +0.000 A 
ATOM     18  N   UNL     1      46.175   1.365   8.418  0.00  0.00    +0.000 NA
ENDBRANCH  10  13
ENDBRANCH   8   9
ENDBRANCH   5   8
ENDBRANCH   1   2
BRANCH   1  21
ATOM     19  C   UNL     1      48.425   8.956  15.976  0.00  0.00    +0.000 C 
ATOM     20  O   UNL     1      49.148   9.908  15.697  0.00  0.00    +0.000 OA
ATOM     21  N   UNL     1      47.702   8.279  15.027  0.00  0.00    +0.000 N 
ATOM     22  H   UNL     1      46.966   7.652  15.336  0.00  0.00    +0.000 HD
BRANCH  19  29
ATOM     23  N   UNL     1      49.029   4.778  18.018  0.00  0.00    +0.000 N 
ATOM     24  C   UNL     1      48.820   4.869  19.380  0.00  0.00    +0.000 A 
ATOM     25  N   UNL     1      48.498   5.944  20.023  0.00  0.00    +0.000 NA
ATOM     26  C   UNL     1      48.361   7.044  19.240  0.00  0.00    +0.000 A 
ATOM     27  S   UNL     1      47.874   8.534  19.902  0.00  0.00    +0.000 S 
ATOM     28  C   UNL     1      47.913   9.290  18.373  0.00  0.00    +0.000 A 
ATOM     29  C   UNL     1      48.327   8.449  17.350  0.00  0.00    +0.000 A 
ATOM     30  C   UNL     1      48.573   7.125  17.878  0.00  0.00    +0.000 A 
ATOM     31  C   UNL     1      48.969   5.902  17.201  0.00  0.00    +0.000 A 
ATOM     32  O   UNL     1      49.251   5.876  16.005  0.00  0.00    +0.000 OA
BRANCH  23  33
ATOM     33  C   UNL     1      49.410   3.504  17.423  0.00  0.00    +0.000 C 
BRANCH  33  35
ATOM     34  C   UNL     1      51.190   1.735  17.265  0.00  0.00    +0.000 C 
ATOM     35  C   UNL     1      50.853   3.132  17.761  0.00  0.00    +0.000 C 
ENDBRANCH  33  35
ENDBRANCH  23  33
ENDBRANCH  19  29
ENDBRANCH   1  21
TORSDOF 8
ENDMDL
MODEL 4
REMARK VINA RESULT:    -7.409      4.653      9.758
REMARK INTER + INTRA:         -12.205
REMARK INTER:                 -11.621
REMARK INTRA:                  -0.583
REMARK UNBOUND:                -1.330
REMARK  Name = 
REMARK  9 active torsions:
REMARK  status: ('A' for Active; 'I' for Inactive)
REMARK    1  A    between atoms: C_1  and  C_2
REMARK    2  A    between atoms: C_2  and  C_3
REMARK    3  A    between atoms: C_3  and  N_4
REMARK    4  A    between atoms: C_10  and  C_11
REMARK    5  A    between atoms: N_13  and  C_14
REMARK    6  A    between atoms: C_14  and  C_15
REMARK    7  A    between atoms: C_18  and  C_19
REMARK    8  A    between atoms: C_19  and  N_20
REMARK    9  A    between atoms: C_21  and  C_23
REMARK                            x       y       z     vdW  Elec       q    Type
REMARK                         _______ _______ _______ _____ _____    ______ ____
ROOT
ATOM      1  C   UNL     1      47.428   3.851  17.283  0.00  0.00    +0.000 C 
ENDROOT
BRANCH   1   2
ATOM      2  C   UNL     1      48.893   3.595  17.533  0.00  0.00    +0.000 A 
ATOM      3  C   UNL     1      49.712   4.576  18.107  0.00  0.00    +0.000 A 
ATOM      4  C   UNL     1      51.070   4.326  18.337  0.00  0.00    +0.000 A 
ATOM      5  C   UNL     1      51.641   3.099  17.974  0.00  0.00    +0.000 A 
ATOM      6  C   UNL     1      50.825   2.124  17.384  0.00  0.00    +0.000 A 
ATOM      7  C   UNL     1      49.468   2.373  17.158  0.00  0.00    +0.000 A 
BRANCH   5   8
ATOM      8  C   UNL     1      53.099   2.822  18.228  0.00  0.00    +0.000 C 
BRANCH   8   9
ATOM      9  N   UNL     1      53.351   1.421  18.454  0.00  0.00    +0.000 N 
ATOM     10  C   UNL     1      54.304   0.736  17.730  0.00  0.00    +0.000 C 
ATOM     11  O   UNL     1      55.042   1.267  16.906  0.00  0.00    +0.000 OA
ATOM     12  H   UNL     1      52.780   0.890  19.107  0.00  0.00    +0.000 HD
BRANCH  10  13
ATOM     13  C   UNL     1      54.376  -0.728  17.995  0.00  0.00    +0.000 A 
ATOM     14  C   UNL     1      54.958  -1.572  17.060  0.00  0.00    +0.000 A 
ATOM     15  N   UNL     1      55.002  -2.920  17.227  0.00  0.00    +0.000 NA
ATOM     16  C   UNL     1      54.437  -3.379  18.368  0.00  0.00    +0.000 A 
ATOM     17  C   UNL     1      53.867  -2.533  19.309  0.00  0.00    +0.000 A 
ATOM     18  N   UNL     1      53.821  -1.188  19.155  0.00  0.00    +0.000 NA
ENDBRANCH  10  13
ENDBRANCH   8   9
ENDBRANCH   5   8
ENDBRANCH   1   2
BRANCH   1  21
ATOM     19  C   UNL     1      47.236   4.221  14.858  0.00  0.00    +0.000 C 
ATOM     20  O   UNL     1      47.535   3.060  14.593  0.00  0.00    +0.000 OA
ATOM     21  N   UNL     1      47.245   4.708  16.141  0.00  0.00    +0.000 N 
ATOM     22  H   UNL     1      46.786   5.594  16.325  0.00  0.00    +0.000 HD
BRANCH  19  29
ATOM     23  N   UNL     1      44.801   4.022  10.855  0.00  0.00    +0.000 N 
ATOM     24  C   UNL     1      44.779   5.258  10.238  0.00  0.00    +0.000 A 
ATOM     25  N   UNL     1      45.348   6.331  10.682  0.00  0.00    +0.000 NA
ATOM     26  C   UNL     1      46.013   6.169  11.853  0.00  0.00    +0.000 A 
ATOM     27  S   UNL     1      46.879   7.455  12.554  0.00  0.00    +0.000 S 
ATOM     28  C   UNL     1      47.393   6.476  13.853  0.00  0.00    +0.000 A 
ATOM     29  C   UNL     1      46.893   5.182  13.803  0.00  0.00    +0.000 A 
ATOM     30  C   UNL     1      46.094   5.015  12.609  0.00  0.00    +0.000 A 
ATOM     31  C   UNL     1      45.410   3.843  12.093  0.00  0.00    +0.000 A 
ATOM     32  O   UNL     1      45.358   2.786  12.717  0.00  0.00    +0.000 OA
BRANCH  23  33
ATOM     33  C   UNL     1      44.097   2.897  10.255  0.00  0.00    +0.000 C 
BRANCH  33  35
ATOM     34  C   UNL     1      45.717   1.813   8.665  0.00  0.00    +0.000 C 
ATOM     35  C   UNL     1      44.489   2.701   8.790  0.00  0.00    +0.000 C 
ENDBRANCH  33  35
ENDBRANCH  23  33
ENDBRANCH  19  29
ENDBRANCH   1  21
TORSDOF 8
ENDMDL
MODEL 5
REMARK VINA RESULT:    -7.289      2.522      4.063
REMARK INTER + INTRA:         -12.028
REMARK INTER:                 -10.617
REMARK INTRA:                  -1.411
REMARK UNBOUND:                -1.330
REMARK  Name = 
REMARK  9 active torsions:
REMARK  status: ('A' for Active; 'I' for Inactive)
REMARK    1  A    between atoms: C_1  and  C_2
REMARK    2  A    between atoms: C_2  and  C_3
REMARK    3  A    between atoms: C_3  and  N_4
REMARK    4  A    between atoms: C_10  and  C_11
REMARK    5  A    between atoms: N_13  and  C_14
REMARK    6  A    between atoms: C_14  and  C_15
REMARK    7  A    between atoms: C_18  and  C_19
REMARK    8  A    between atoms: C_19  and  N_20
REMARK    9  A    between atoms: C_21  and  C_23
REMARK                            x       y       z     vdW  Elec       q    Type
REMARK                         _______ _______ _______ _____ _____    ______ ____
ROOT
ATOM      1  C   UNL     1      46.886   4.449  14.897  0.00  0.00    +0.000 C 
ENDROOT
BRANCH   1   2
ATOM      2  C   UNL     1      46.214   4.455  13.547  0.00  0.00    +0.000 A 
ATOM      3  C   UNL     1      46.044   5.645  12.829  0.00  0.00    +0.000 A 
ATOM      4  C   UNL     1      45.421   5.638  11.575  0.00  0.00    +0.000 A 
ATOM      5  C   UNL     1      44.935   4.444  11.026  0.00  0.00    +0.000 A 
ATOM      6  C   UNL     1      45.091   3.256  11.753  0.00  0.00    +0.000 A 
ATOM      7  C   UNL     1      45.716   3.263  13.004  0.00  0.00    +0.000 A 
BRANCH   5   8
ATOM      8  C   UNL     1      44.274   4.430   9.674  0.00  0.00    +0.000 C 
BRANCH   8   9
ATOM      9  N   UNL     1      44.901   3.492   8.776  0.00  0.00    +0.000 N 
ATOM     10  C   UNL     1      45.962   3.863   7.977  0.00  0.00    +0.000 C 
ATOM     11  O   UNL     1      46.487   4.970   8.015  0.00  0.00    +0.000 OA
ATOM     12  H   UNL     1      44.527   2.554   8.663  0.00  0.00    +0.000 HD
BRANCH  10  13
ATOM     13  C   UNL     1      46.435   2.820   7.023  0.00  0.00    +0.000 A 
ATOM     14  C   UNL     1      46.705   1.538   7.479  0.00  0.00    +0.000 A 
ATOM     15  N   UNL     1      47.188   0.564   6.663  0.00  0.00    +0.000 NA
ATOM     16  C   UNL     1      47.389   0.935   5.377  0.00  0.00    +0.000 A 
ATOM     17  C   UNL     1      47.106   2.214   4.919  0.00  0.00    +0.000 A 
ATOM     18  N   UNL     1      46.620   3.192   5.722  0.00  0.00    +0.000 NA
ENDBRANCH  10  13
ENDBRANCH   8   9
ENDBRANCH   5   8
ENDBRANCH   1   2
BRANCH   1  21
ATOM     19  C   UNL     1      48.592   5.841  15.994  0.00  0.00    +0.000 C 
ATOM     20  O   UNL     1      49.011   4.906  16.671  0.00  0.00    +0.000 OA
ATOM     21  N   UNL     1      47.503   5.720  15.168  0.00  0.00    +0.000 N 
ATOM     22  H   UNL     1      47.336   6.446  14.480  0.00  0.00    +0.000 HD
BRANCH  19  29
ATOM     23  N   UNL     1      50.540   8.764  12.887  0.00  0.00    +0.000 N 
ATOM     24  C   UNL     1      50.956   9.926  13.509  0.00  0.00    +0.000 A 
ATOM     25  N   UNL     1      50.839  10.189  14.769  0.00  0.00    +0.000 NA
ATOM     26  C   UNL     1      50.256   9.202  15.496  0.00  0.00    +0.000 A 
ATOM     27  S   UNL     1      50.081   9.343  17.183  0.00  0.00    +0.000 S 
ATOM     28  C   UNL     1      49.362   7.800  17.294  0.00  0.00    +0.000 A 
ATOM     29  C   UNL     1      49.208   7.171  16.066  0.00  0.00    +0.000 A 
ATOM     30  C   UNL     1      49.754   8.007  15.019  0.00  0.00    +0.000 A 
ATOM     31  C   UNL     1      49.873   7.767  13.592  0.00  0.00    +0.000 A 
ATOM     32  O   UNL     1      49.398   6.771  13.052  0.00  0.00    +0.000 OA
BRANCH  23  33
ATOM     33  C   UNL     1      50.713   8.605  11.450  0.00  0.00    +0.000 C 
BRANCH  33  35
ATOM     34  C   UNL     1      52.192   7.266   9.919  0.00  0.00    +0.000 C 
ATOM     35  C   UNL     1      52.152   8.232  11.092  0.00  0.00    +0.000 C 
ENDBRANCH  33  35
ENDBRANCH  23  33
ENDBRANCH  19  29
ENDBRANCH   1  21
TORSDOF 8
ENDMDL
MODEL 6
REMARK VINA RESULT:    -6.714      2.819      9.846
REMARK INTER + INTRA:         -11.185
REMARK INTER:                  -9.984
REMARK INTRA:                  -1.200
REMARK UNBOUND:                -1.330
REMARK  Name = 
REMARK  9 active torsions:
REMARK  status: ('A' for Active; 'I' for Inactive)
REMARK    1  A    between atoms: C_1  and  C_2
REMARK    2  A    between atoms: C_2  and  C_3
REMARK    3  A    between atoms: C_3  and  N_4
REMARK    4  A    between atoms: C_10  and  C_11
REMARK    5  A    between atoms: N_13  and  C_14
REMARK    6  A    between atoms: C_14  and  C_15
REMARK    7  A    between atoms: C_18  and  C_19
REMARK    8  A    between atoms: C_19  and  N_20
REMARK    9  A    between atoms: C_21  and  C_23
REMARK                            x       y       z     vdW  Elec       q    Type
REMARK                         _______ _______ _______ _____ _____    ______ ____
ROOT
ATOM      1  C   UNL     1      47.498   7.963  11.782  0.00  0.00    +0.000 C 
ENDROOT
BRANCH   1   2
ATOM      2  C   UNL     1      48.285   8.126  13.058  0.00  0.00    +0.000 A 
ATOM      3  C   UNL     1      47.753   8.818  14.153  0.00  0.00    +0.000 A 
ATOM      4  C   UNL     1      48.491   8.960  15.334  0.00  0.00    +0.000 A 
ATOM      5  C   UNL     1      49.786   8.434  15.433  0.00  0.00    +0.000 A 
ATOM      6  C   UNL     1      50.324   7.755  14.331  0.00  0.00    +0.000 A 
ATOM      7  C   UNL     1      49.585   7.610  13.153  0.00  0.00    +0.000 A 
BRANCH   5   8
ATOM      8  C   UNL     1      50.580   8.575  16.705  0.00  0.00    +0.000 C 
BRANCH   8   9
ATOM      9  N   UNL     1      49.893   8.006  17.837  0.00  0.00    +0.000 N 
ATOM     10  C   UNL     1      50.084   6.690  18.206  0.00  0.00    +0.000 C 
ATOM     11  O   UNL     1      50.883   5.940  17.657  0.00  0.00    +0.000 OA
ATOM     12  H   UNL     1      49.199   8.545  18.347  0.00  0.00    +0.000 HD
BRANCH  10  13
ATOM     13  C   UNL     1      49.225   6.213  19.325  0.00  0.00    +0.000 A 
ATOM     14  C   UNL     1      48.197   7.016  19.800  0.00  0.00    +0.000 A 
ATOM     15  N   UNL     1      47.418   6.653  20.852  0.00  0.00    +0.000 NA
ATOM     16  C   UNL     1      47.718   5.455  21.405  0.00  0.00    +0.000 A 
ATOM     17  C   UNL     1      48.737   4.646  20.922  0.00  0.00    +0.000 A 
ATOM     18  N   UNL     1      49.517   4.996  19.871  0.00  0.00    +0.000 NA
ENDBRANCH  10  13
ENDBRANCH   8   9
ENDBRANCH   5   8
ENDBRANCH   1   2
BRANCH   1  21
ATOM     19  C   UNL     1      45.415   6.662  11.642  0.00  0.00    +0.000 C 
ATOM     20  O   UNL     1      44.710   7.668  11.670  0.00  0.00    +0.000 OA
ATOM     21  N   UNL     1      46.779   6.716  11.778  0.00  0.00    +0.000 N 
ATOM     22  H   UNL     1      47.322   5.895  11.532  0.00  0.00    +0.000 HD
BRANCH  19  29
ATOM     23  N   UNL     1      45.328   3.402   8.272  0.00  0.00    +0.000 N 
ATOM     24  C   UNL     1      44.628   2.288   8.692  0.00  0.00    +0.000 A 
ATOM     25  N   UNL     1      44.064   2.144   9.847  0.00  0.00    +0.000 NA
ATOM     26  C   UNL     1      44.197   3.213  10.672  0.00  0.00    +0.000 A 
ATOM     27  S   UNL     1      43.462   3.233  12.207  0.00  0.00    +0.000 S 
ATOM     28  C   UNL     1      44.044   4.803  12.529  0.00  0.00    +0.000 A 
ATOM     29  C   UNL     1      44.829   5.323  11.508  0.00  0.00    +0.000 A 
ATOM     30  C   UNL     1      44.896   4.377  10.416  0.00  0.00    +0.000 A 
ATOM     31  C   UNL     1      45.546   4.482   9.121  0.00  0.00    +0.000 A 
ATOM     32  O   UNL     1      46.251   5.441   8.817  0.00  0.00    +0.000 OA
BRANCH  23  33
ATOM     33  C   UNL     1      45.935   3.424   6.948  0.00  0.00    +0.000 C 
BRANCH  33  35
ATOM     34  C   UNL     1      47.449   2.113   5.427  0.00  0.00    +0.000 C 
ATOM     35  C   UNL     1      47.148   2.497   6.867  0.00  0.00    +0.000 C 
ENDBRANCH  33  35
ENDBRANCH  23  33
ENDBRANCH  19  29
ENDBRANCH   1  21
TORSDOF 8
ENDMDL
MODEL 7
REMARK VINA RESULT:    -6.665      2.188      3.671
REMARK INTER + INTRA:         -11.112
REMARK INTER:                  -9.993
REMARK INTRA:                  -1.119
REMARK UNBOUND:                -1.330
REMARK  Name = 
REMARK  9 active torsions:
REMARK  status: ('A' for Active; 'I' for Inactive)
REMARK    1  A    between atoms: C_1  and  C_2
REMARK    2  A    between atoms: C_2  and  C_3
REMARK    3  A    between atoms: C_3  and  N_4
REMARK    4  A    between atoms: C_10  and  C_11
REMARK    5  A    between atoms: N_13  and  C_14
REMARK    6  A    between atoms: C_14  and  C_15
REMARK    7  A    between atoms: C_18  and  C_19
REMARK    8  A    between atoms: C_19  and  N_20
REMARK    9  A    between atoms: C_21  and  C_23
REMARK                            x       y       z     vdW  Elec       q    Type
REMARK                         _______ _______ _______ _____ _____    ______ ____
ROOT
ATOM      1  C   UNL     1      47.331   4.593  15.525  0.00  0.00    +0.000 C 
ENDROOT
BRANCH   1   2
ATOM      2  C   UNL     1      46.741   4.905  14.173  0.00  0.00    +0.000 A 
ATOM      3  C   UNL     1      45.615   4.220  13.698  0.00  0.00    +0.000 A 
ATOM      4  C   UNL     1      45.075   4.521  12.443  0.00  0.00    +0.000 A 
ATOM      5  C   UNL     1      45.664   5.496  11.627  0.00  0.00    +0.000 A 
ATOM      6  C   UNL     1      46.801   6.169  12.096  0.00  0.00    +0.000 A 
ATOM      7  C   UNL     1      47.338   5.871  13.351  0.00  0.00    +0.000 A 
BRANCH   5   8
ATOM      8  C   UNL     1      45.081   5.830  10.280  0.00  0.00    +0.000 C 
BRANCH   8   9
ATOM      9  N   UNL     1      45.669   5.041   9.226  0.00  0.00    +0.000 N 
ATOM     10  C   UNL     1      45.147   3.816   8.869  0.00  0.00    +0.000 C 
ATOM     11  O   UNL     1      44.127   3.342   9.360  0.00  0.00    +0.000 OA
ATOM     12  H   UNL     1      46.525   5.343   8.769  0.00  0.00    +0.000 HD
BRANCH  10  13
ATOM     13  C   UNL     1      45.924   3.068   7.841  0.00  0.00    +0.000 A 
ATOM     14  C   UNL     1      46.307   1.756   8.083  0.00  0.00    +0.000 A 
ATOM     15  N   UNL     1      47.061   1.046   7.204  0.00  0.00    +0.000 NA
ATOM     16  C   UNL     1      47.413   1.709   6.078  0.00  0.00    +0.000 A 
ATOM     17  C   UNL     1      47.019   3.017   5.830  0.00  0.00    +0.000 A 
ATOM     18  N   UNL     1      46.263   3.733   6.698  0.00  0.00    +0.000 NA
ENDBRANCH  10  13
ENDBRANCH   8   9
ENDBRANCH   5   8
ENDBRANCH   1   2
BRANCH   1  21
ATOM     19  C   UNL     1      49.280   5.546  16.686  0.00  0.00    +0.000 C 
ATOM     20  O   UNL     1      49.696   4.442  17.028  0.00  0.00    +0.000 OA
ATOM     21  N   UNL     1      48.089   5.710  16.024  0.00  0.00    +0.000 N 
ATOM     22  H   UNL     1      47.902   6.602  15.580  0.00  0.00    +0.000 HD
BRANCH  19  29
ATOM     23  N   UNL     1      48.491   9.252  19.449  0.00  0.00    +0.000 N 
ATOM     24  C   UNL     1      49.552  10.135  19.391  0.00  0.00    +0.000 A 
ATOM     25  N   UNL     1      50.620   9.984  18.678  0.00  0.00    +0.000 NA
ATOM     26  C   UNL     1      50.643   8.845  17.939  0.00  0.00    +0.000 A 
ATOM     27  S   UNL     1      51.938   8.510  16.888  0.00  0.00    +0.000 S 
ATOM     28  C   UNL     1      51.219   7.051  16.375  0.00  0.00    +0.000 A 
ATOM     29  C   UNL     1      50.016   6.774  17.010  0.00  0.00    +0.000 A 
ATOM     30  C   UNL     1      49.686   7.850  17.919  0.00  0.00    +0.000 A 
ATOM     31  C   UNL     1      48.519   8.042  18.762  0.00  0.00    +0.000 A 
ATOM     32  O   UNL     1      47.642   7.189  18.874  0.00  0.00    +0.000 OA
BRANCH  23  33
ATOM     33  C   UNL     1      47.354   9.536  20.314  0.00  0.00    +0.000 C 
BRANCH  33  35
ATOM     34  C   UNL     1      45.280  10.927  20.613  0.00  0.00    +0.000 C 
ATOM     35  C   UNL     1      46.586  10.774  19.850  0.00  0.00    +0.000 C 
ENDBRANCH  33  35
ENDBRANCH  23  33
ENDBRANCH  19  29
ENDBRANCH   1  21
TORSDOF 8
ENDMDL
MODEL 8
REMARK VINA RESULT:    -6.588      2.335      3.747
REMARK INTER + INTRA:         -10.999
REMARK INTER:                  -9.803
REMARK INTRA:                  -1.197
REMARK UNBOUND:                -1.330
REMARK  Name = 
REMARK  9 active torsions:
REMARK  status: ('A' for Active; 'I' for Inactive)
REMARK    1  A    between atoms: C_1  and  C_2
REMARK    2  A    between atoms: C_2  and  C_3
REMARK    3  A    between atoms: C_3  and  N_4
REMARK    4  A    between atoms: C_10  and  C_11
REMARK    5  A    between atoms: N_13  and  C_14
REMARK    6  A    between atoms: C_14  and  C_15
REMARK    7  A    between atoms: C_18  and  C_19
REMARK    8  A    between atoms: C_19  and  N_20
REMARK    9  A    between atoms: C_21  and  C_23
REMARK                            x       y       z     vdW  Elec       q    Type
REMARK                         _______ _______ _______ _____ _____    ______ ____
ROOT
ATOM      1  C   UNL     1      47.401   5.443  14.751  0.00  0.00    +0.000 C 
ENDROOT
BRANCH   1   2
ATOM      2  C   UNL     1      46.600   5.123  13.514  0.00  0.00    +0.000 A 
ATOM      3  C   UNL     1      46.080   3.840  13.301  0.00  0.00    +0.000 A 
ATOM      4  C   UNL     1      45.335   3.555  12.150  0.00  0.00    +0.000 A 
ATOM      5  C   UNL     1      45.117   4.542  11.178  0.00  0.00    +0.000 A 
ATOM      6  C   UNL     1      45.652   5.821  11.386  0.00  0.00    +0.000 A 
ATOM      7  C   UNL     1      46.393   6.106  12.537  0.00  0.00    +0.000 A 
BRANCH   5   8
ATOM      8  C   UNL     1      44.309   4.244   9.944  0.00  0.00    +0.000 C 
BRANCH   8   9
ATOM      9  N   UNL     1      44.998   3.345   9.052  0.00  0.00    +0.000 N 
ATOM     10  C   UNL     1      45.914   3.809   8.131  0.00  0.00    +0.000 C 
ATOM     11  O   UNL     1      46.256   4.984   8.046  0.00  0.00    +0.000 OA
ATOM     12  H   UNL     1      44.770   2.354   9.037  0.00  0.00    +0.000 HD
BRANCH  10  13
ATOM     13  C   UNL     1      46.462   2.779   7.204  0.00  0.00    +0.000 A 
ATOM     14  C   UNL     1      46.650   3.086   5.864  0.00  0.00    +0.000 A 
ATOM     15  N   UNL     1      47.097   2.170   4.965  0.00  0.00    +0.000 NA
ATOM     16  C   UNL     1      47.342   0.938   5.470  0.00  0.00    +0.000 A 
ATOM     17  C   UNL     1      47.165   0.636   6.813  0.00  0.00    +0.000 A 
ATOM     18  N   UNL     1      46.725   1.542   7.718  0.00  0.00    +0.000 NA
ENDBRANCH  10  13
ENDBRANCH   8   9
ENDBRANCH   5   8
ENDBRANCH   1   2
BRANCH   1  21
ATOM     19  C   UNL     1      49.017   7.287  14.955  0.00  0.00    +0.000 C 
ATOM     20  O   UNL     1      49.947   6.528  15.211  0.00  0.00    +0.000 OA
ATOM     21  N   UNL     1      47.727   6.844  14.803  0.00  0.00    +0.000 N 
ATOM     22  H   UNL     1      47.047   7.470  14.384  0.00  0.00    +0.000 HD
BRANCH  19  29
ATOM     23  N   UNL     1      47.989  10.994  17.637  0.00  0.00    +0.000 N 
ATOM     24  C   UNL     1      48.437  12.160  17.046  0.00  0.00    +0.000 A 
ATOM     25  N   UNL     1      49.051  12.241  15.911  0.00  0.00    +0.000 NA
ATOM     26  C   UNL     1      49.239  11.050  15.289  0.00  0.00    +0.000 A 
ATOM     27  S   UNL     1      49.967  10.968  13.754  0.00  0.00    +0.000 S 
ATOM     28  C   UNL     1      49.793   9.272  13.699  0.00  0.00    +0.000 A 
ATOM     29  C   UNL     1      49.221   8.737  14.845  0.00  0.00    +0.000 A 
ATOM     30  C   UNL     1      48.888   9.801  15.765  0.00  0.00    +0.000 A 
ATOM     31  C   UNL     1      48.233   9.752  17.061  0.00  0.00    +0.000 A 
ATOM     32  O   UNL     1      47.942   8.692  17.609  0.00  0.00    +0.000 OA
BRANCH  23  33
ATOM     33  C   UNL     1      47.329  11.044  18.935  0.00  0.00    +0.000 C 
BRANCH  33  35
ATOM     34  C   UNL     1      48.637  10.027  20.827  0.00  0.00    +0.000 C 
ATOM     35  C   UNL     1      48.323  11.305  20.066  0.00  0.00    +0.000 C 
ENDBRANCH  33  35
ENDBRANCH  23  33
ENDBRANCH  19  29
ENDBRANCH   1  21
TORSDOF 8
ENDMDL
MODEL 9
REMARK VINA RESULT:    -6.131      4.172      6.890
REMARK INTER + INTRA:         -10.328
REMARK INTER:                  -9.062
REMARK INTRA:                  -1.267
REMARK UNBOUND:                -1.330
REMARK  Name = 
REMARK  9 active torsions:
REMARK  status: ('A' for Active; 'I' for Inactive)
REMARK    1  A    between atoms: C_1  and  C_2
REMARK    2  A    between atoms: C_2  and  C_3
REMARK    3  A    between atoms: C_3  and  N_4
REMARK    4  A    between atoms: C_10  and  C_11
REMARK    5  A    between atoms: N_13  and  C_14
REMARK    6  A    between atoms: C_14  and  C_15
REMARK    7  A    between atoms: C_18  and  C_19
REMARK    8  A    between atoms: C_19  and  N_20
REMARK    9  A    between atoms: C_21  and  C_23
REMARK                            x       y       z     vdW  Elec       q    Type
REMARK                         _______ _______ _______ _____ _____    ______ ____
ROOT
ATOM      1  C   UNL     1      46.523   4.391  13.796  0.00  0.00    +0.000 C 
ENDROOT
BRANCH   1   2
ATOM      2  C   UNL     1      46.036   5.623  13.075  0.00  0.00    +0.000 A 
ATOM      3  C   UNL     1      46.884   6.717  12.860  0.00  0.00    +0.000 A 
ATOM      4  C   UNL     1      46.422   7.855  12.187  0.00  0.00    +0.000 A 
ATOM      5  C   UNL     1      45.097   7.929  11.738  0.00  0.00    +0.000 A 
ATOM      6  C   UNL     1      44.245   6.840  11.969  0.00  0.00    +0.000 A 
ATOM      7  C   UNL     1      44.708   5.703  12.638  0.00  0.00    +0.000 A 
BRANCH   5   8
ATOM      8  C   UNL     1      44.598   9.146  11.005  0.00  0.00    +0.000 C 
BRANCH   8   9
ATOM      9  N   UNL     1      43.257   9.501  11.398  0.00  0.00    +0.000 N 
ATOM     10  C   UNL     1      42.738  10.751  11.131  0.00  0.00    +0.000 C 
ATOM     11  O   UNL     1      43.335  11.614  10.496  0.00  0.00    +0.000 OA
ATOM     12  H   UNL     1      42.689   8.858  11.942  0.00  0.00    +0.000 HD
BRANCH  10  13
ATOM     13  C   UNL     1      41.382  11.009  11.692  0.00  0.00    +0.000 A 
ATOM     14  C   UNL     1      40.270  10.413  11.115  0.00  0.00    +0.000 A 
ATOM     15  N   UNL     1      39.006  10.656  11.553  0.00  0.00    +0.000 NA
ATOM     16  C   UNL     1      38.911  11.521  12.589  0.00  0.00    +0.000 A 
ATOM     17  C   UNL     1      40.025  12.107  13.175  0.00  0.00    +0.000 A 
ATOM     18  N   UNL     1      41.289  11.869  12.749  0.00  0.00    +0.000 NA
ENDBRANCH  10  13
ENDBRANCH   8   9
ENDBRANCH   5   8
ENDBRANCH   1   2
BRANCH   1  21
ATOM     19  C   UNL     1      47.851   3.896  15.807  0.00  0.00    +0.000 C 
ATOM     20  O   UNL     1      48.123   2.761  15.426  0.00  0.00    +0.000 OA
ATOM     21  N   UNL     1      47.006   4.723  15.111  0.00  0.00    +0.000 N 
ATOM     22  H   UNL     1      46.988   5.708  15.350  0.00  0.00    +0.000 HD
BRANCH  19  29
ATOM     23  N   UNL     1      50.712   7.419  16.989  0.00  0.00    +0.000 N 
ATOM     24  C   UNL     1      50.863   7.481  18.361  0.00  0.00    +0.000 A 
ATOM     25  N   UNL     1      50.308   6.688  19.217  0.00  0.00    +0.000 NA
ATOM     26  C   UNL     1      49.525   5.727  18.664  0.00  0.00    +0.000 A 
ATOM     27  S   UNL     1      48.768   4.549  19.632  0.00  0.00    +0.000 S 
ATOM     28  C   UNL     1      48.083   3.788  18.268  0.00  0.00    +0.000 A 
ATOM     29  C   UNL     1      48.379   4.425  17.071  0.00  0.00    +0.000 A 
ATOM     30  C   UNL     1      49.243   5.557  17.323  0.00  0.00    +0.000 A 
ATOM     31  C   UNL     1      49.858   6.494  16.398  0.00  0.00    +0.000 A 
ATOM     32  O   UNL     1      49.619   6.478  15.193  0.00  0.00    +0.000 OA
BRANCH  23  33
ATOM     33  C   UNL     1      51.380   8.394  16.138  0.00  0.00    +0.000 C 
BRANCH  33  35
ATOM     34  C   UNL     1      53.439   7.083  15.532  0.00  0.00    +0.000 C 
ATOM     35  C   UNL     1      52.901   8.303  16.261  0.00  0.00    +0.000 C 
ENDBRANCH  33  35
ENDBRANCH  23  33
ENDBRANCH  19  29
ENDBRANCH   1  21
TORSDOF 8
ENDMDL
