MODEL 1
REMARK VINA RESULT:    -7.964      0.000      0.000
REMARK INTER + INTRA:         -12.382
REMARK INTER:                 -11.223
REMARK INTRA:                  -1.159
REMARK UNBOUND:                -1.159
REMARK  Name = 
REMARK  8 active torsions:
REMARK  status: ('A' for Active; 'I' for Inactive)
REMARK    1  A    between atoms: C_1  and  C_2
REMARK    2  A    between atoms: C_6  and  C_7
REMARK    3  A    between atoms: C_7  and  O_8
REMARK    4  A    between atoms: O_8  and  C_9
REMARK    5  A    between atoms: C_9  and  C_10
REMARK    6  A    between atoms: C_13  and  C_14
REMARK    7  A    between atoms: C_14  and  N_15
REMARK    8  A    between atoms: C_16  and  C_18
REMARK                            x       y       z     vdW  Elec       q    Type
REMARK                         _______ _______ _______ _____ _____    ______ ____
ROOT
ATOM      1  C   UNL     1      44.460   5.177  12.145  0.00  0.00    +0.000 A 
ATOM      2  C   UNL     1      45.141   4.678  13.260  0.00  0.00    +0.000 A 
ATOM      3  C   UNL     1      46.343   5.249  13.681  0.00  0.00    +0.000 A 
ATOM      4  C   UNL     1      46.895   6.349  13.009  0.00  0.00    +0.000 A 
ATOM      5  C   UNL     1      46.225   6.826  11.871  0.00  0.00    +0.000 A 
ATOM      6  C   UNL     1      45.006   6.271  11.465  0.00  0.00    +0.000 A 
ENDROOT
BRANCH   1   7
ATOM      7  C   UNL     1      43.206   4.506  11.655  0.00  0.00    +0.000 C 
BRANCH   7   8
ATOM      8  O   UNL     1      43.424   4.069  10.322  0.00  0.00    +0.000 OA
BRANCH   8   9
ATOM      9  C   UNL     1      44.099   2.813  10.271  0.00  0.00    +0.000 C 
BRANCH   9  15
ATOM     10  C   UNL     1      47.044   0.203   7.421  0.00  0.00    +0.000 C 
ATOM     11  C   UNL     1      46.502   1.553   7.775  0.00  0.00    +0.000 A 
ATOM     12  C   UNL     1      46.921   2.688   7.091  0.00  0.00    +0.000 A 
ATOM     13  C   UNL     1      46.408   3.923   7.465  0.00  0.00    +0.000 A 
ATOM     14  C   UNL     1      45.491   3.987   8.506  0.00  0.00    +0.000 A 
ATOM     15  C   UNL     1      45.099   2.807   9.138  0.00  0.00    +0.000 A 
ATOM     16  N   UNL     1      45.607   1.598   8.789  0.00  0.00    +0.000 NA
ENDBRANCH   9  15
ENDBRANCH   8   9
ENDBRANCH   7   8
ENDBRANCH   1   7
BRANCH   4  17
ATOM     17  C   UNL     1      48.143   7.050  13.505  0.00  0.00    +0.000 C 
BRANCH  17  18
ATOM     18  N   UNL     1      48.084   7.433  14.895  0.00  0.00    +0.000 N 
ATOM     19  C   UNL     1      48.894   6.871  15.857  0.00  0.00    +0.000 C 
ATOM     20  O   UNL     1      49.717   6.010  15.620  0.00  0.00    +0.000 OA
ATOM     21  H   UNL     1      47.277   7.950  15.204  0.00  0.00    +0.000 HD
BRANCH  19  22
ATOM     22  C   UNL     1      48.722   7.440  17.205  0.00  0.00    +0.000 A 
ATOM     23  C   UNL     1      49.131   8.738  17.477  0.00  0.00    +0.000 A 
ATOM     24  S   UNL     1      48.875   9.202  19.101  0.00  0.00    +0.000 S 
ATOM     25  C   UNL     1      48.217   7.682  19.493  0.00  0.00    +0.000 A 
ATOM     26  N   UNL     1      47.810   7.389  20.759  0.00  0.00    +0.000 NA
ATOM     27  C   UNL     1      47.321   6.202  20.903  0.00  0.00    +0.000 A 
ATOM     28  N   UNL     1      47.197   5.281  19.895  0.00  0.00    +0.000 N 
ATOM     29  C   UNL     1      47.595   5.527  18.604  0.00  0.00    +0.000 A 
ATOM     30  O   UNL     1      47.446   4.692  17.722  0.00  0.00    +0.000 OA
ATOM     31  C   UNL     1      48.164   6.846  18.394  0.00  0.00    +0.000 A 
ATOM     32  H   UNL     1      46.785   4.375  20.066  0.00  0.00    +0.000 HD
ENDBRANCH  19  22
ENDBRANCH  17  18
ENDBRANCH   4  17
TORSDOF 7
ENDMDL
MODEL 2
REMARK VINA RESULT:    -7.576      3.076      4.585
REMARK INTER + INTRA:         -11.835
REMARK INTER:                 -11.179
REMARK INTRA:                  -0.656
REMARK UNBOUND:                -1.159
REMARK  Name = 
REMARK  8 active torsions:
REMARK  status: ('A' for Active; 'I' for Inactive)
REMARK    1  A    between atoms: C_1  and  C_2
REMARK    2  A    between atoms: C_6  and  C_7
REMARK    3  A    between atoms: C_7  and  O_8
REMARK    4  A    between atoms: O_8  and  C_9
REMARK    5  A    between atoms: C_9  and  C_10
REMARK    6  A    between atoms: C_13  and  C_14
REMARK    7  A    between atoms: C_14  and  N_15
REMARK    8  A    between atoms: C_16  and  C_18
REMARK                            x       y       z     vdW  Elec       q    Type
REMARK                         _______ _______ _______ _____ _____    ______ ____
ROOT
ATOM      1  C   UNL     1      45.710   3.404   7.967  0.00  0.00    +0.000 A 
ATOM      2  C   UNL     1      45.218   2.374   8.775  0.00  0.00    +0.000 A 
ATOM      3  C   UNL     1      44.847   2.616  10.099  0.00  0.00    +0.000 A 
ATOM      4  C   UNL     1      44.942   3.901  10.653  0.00  0.00    +0.000 A 
ATOM      5  C   UNL     1      45.468   4.924   9.848  0.00  0.00    +0.000 A 
ATOM      6  C   UNL     1      45.813   4.688   8.512  0.00  0.00    +0.000 A 
ENDROOT
BRANCH   1   7
ATOM      7  C   UNL     1      46.177   3.116   6.567  0.00  0.00    +0.000 C 
BRANCH   7   8
ATOM      8  O   UNL     1      46.775   1.828   6.550  0.00  0.00    +0.000 OA
BRANCH   8   9
ATOM      9  C   UNL     1      47.651   1.655   5.437  0.00  0.00    +0.000 C 
BRANCH   9  15
ATOM     10  C   UNL     1      46.869  -2.763   3.576  0.00  0.00    +0.000 C 
ATOM     11  C   UNL     1      46.603  -1.293   3.488  0.00  0.00    +0.000 A 
ATOM     12  C   UNL     1      45.797  -0.776   2.481  0.00  0.00    +0.000 A 
ATOM     13  C   UNL     1      45.593   0.596   2.425  0.00  0.00    +0.000 A 
ATOM     14  C   UNL     1      46.195   1.410   3.375  0.00  0.00    +0.000 A 
ATOM     15  C   UNL     1      46.977   0.824   4.371  0.00  0.00    +0.000 A 
ATOM     16  N   UNL     1      47.194  -0.515   4.424  0.00  0.00    +0.000 NA
ENDBRANCH   9  15
ENDBRANCH   8   9
ENDBRANCH   7   8
ENDBRANCH   1   7
BRANCH   4  17
ATOM     17  C   UNL     1      44.453   4.210  12.053  0.00  0.00    +0.000 C 
BRANCH  17  18
ATOM     18  N   UNL     1      45.406   4.935  12.857  0.00  0.00    +0.000 N 
ATOM     19  C   UNL     1      46.411   4.311  13.563  0.00  0.00    +0.000 C 
ATOM     20  O   UNL     1      46.577   3.108  13.570  0.00  0.00    +0.000 OA
ATOM     21  H   UNL     1      45.189   5.890  13.094  0.00  0.00    +0.000 HD
BRANCH  19  22
ATOM     22  C   UNL     1      47.317   5.231  14.274  0.00  0.00    +0.000 A 
ATOM     23  C   UNL     1      47.902   6.296  13.606  0.00  0.00    +0.000 A 
ATOM     24  S   UNL     1      48.940   7.226  14.595  0.00  0.00    +0.000 S 
ATOM     25  C   UNL     1      48.645   6.230  15.943  0.00  0.00    +0.000 A 
ATOM     26  N   UNL     1      49.258   6.454  17.138  0.00  0.00    +0.000 NA
ATOM     27  C   UNL     1      48.927   5.624  18.072  0.00  0.00    +0.000 A 
ATOM     28  N   UNL     1      48.035   4.593  17.922  0.00  0.00    +0.000 N 
ATOM     29  C   UNL     1      47.395   4.325  16.736  0.00  0.00    +0.000 A 
ATOM     30  O   UNL     1      46.585   3.414  16.643  0.00  0.00    +0.000 OA
ATOM     31  C   UNL     1      47.744   5.224  15.651  0.00  0.00    +0.000 A 
ATOM     32  H   UNL     1      47.801   3.992  18.697  0.00  0.00    +0.000 HD
ENDBRANCH  19  22
ENDBRANCH  17  18
ENDBRANCH   4  17
TORSDOF 7
ENDMDL
MODEL 3
REMARK VINA RESULT:    -7.461      1.697      2.056
REMARK INTER + INTRA:         -11.674
REMARK INTER:                 -10.619
REMARK INTRA:                  -1.054
REMARK UNBOUND:                -1.159
REMARK  Name = 
REMARK  8 active torsions:
REMARK  status: ('A' for Active; 'I' for Inactive)
REMARK    1  A    between atoms: C_1  and  C_2
REMARK    2  A    between atoms: C_6  and  C_7
REMARK    3  A    between atoms: C_7  and  O_8
REMARK    4  A    between atoms: O_8  and  C_9
REMARK    5  A    between atoms: C_9  and  C_10
REMARK    6  A    between atoms: C_13  and  C_14
REMARK    7  A    between atoms: C_14  and  N_15
REMARK    8  A    between atoms: C_16  and  C_18
REMARK                            x       y       z     vdW  Elec       q    Type
REMARK                         _______ _______ _______ _____ _____    ______ ____
ROOT
ATOM      1  C   UNL     1      44.293   5.302  11.621  0.00  0.00    +0.000 A 
ATOM      2  C   UNL     1      45.424   4.737  12.220  0.00  0.00    +0.000 A 
ATOM      3  C   UNL     1      46.419   5.543  12.776  0.00  0.00    +0.000 A 
ATOM      4  C   UNL     1      46.307   6.941  12.765  0.00  0.00    +0.000 A 
ATOM      5  C   UNL     1      45.187   7.504  12.133  0.00  0.00    +0.000 A 
ATOM      6  C   UNL     1      44.176   6.696  11.600  0.00  0.00    +0.000 A 
ENDROOT
BRANCH   1   7
ATOM      7  C   UNL     1      43.265   4.427  10.958  0.00  0.00    +0.000 C 
BRANCH   7   8
ATOM      8  O   UNL     1      43.942   3.466  10.162  0.00  0.00    +0.000 OA
BRANCH   8   9
ATOM      9  C   UNL     1      44.362   4.005   8.909  0.00  0.00    +0.000 C 
BRANCH   9  15
ATOM     10  C   UNL     1      47.342   3.164   5.165  0.00  0.00    +0.000 C 
ATOM     11  C   UNL     1      46.727   2.647   6.428  0.00  0.00    +0.000 A 
ATOM     12  C   UNL     1      47.017   1.368   6.888  0.00  0.00    +0.000 A 
ATOM     13  C   UNL     1      46.408   0.921   8.053  0.00  0.00    +0.000 A 
ATOM     14  C   UNL     1      45.532   1.763   8.725  0.00  0.00    +0.000 A 
ATOM     15  C   UNL     1      45.299   3.042   8.218  0.00  0.00    +0.000 A 
ATOM     16  N   UNL     1      45.878   3.481   7.072  0.00  0.00    +0.000 NA
ENDBRANCH   9  15
ENDBRANCH   8   9
ENDBRANCH   7   8
ENDBRANCH   1   7
BRANCH   4  17
ATOM     17  C   UNL     1      47.322   7.833  13.449  0.00  0.00    +0.000 C 
BRANCH  17  18
ATOM     18  N   UNL     1      47.726   7.365  14.753  0.00  0.00    +0.000 N 
ATOM     19  C   UNL     1      49.022   7.001  15.044  0.00  0.00    +0.000 C 
ATOM     20  O   UNL     1      49.927   7.040  14.235  0.00  0.00    +0.000 OA
ATOM     21  H   UNL     1      47.002   7.077  15.391  0.00  0.00    +0.000 HD
BRANCH  19  22
ATOM     22  C   UNL     1      49.242   6.608  16.447  0.00  0.00    +0.000 A 
ATOM     23  C   UNL     1      49.903   7.460  17.320  0.00  0.00    +0.000 A 
ATOM     24  S   UNL     1      50.086   6.812  18.890  0.00  0.00    +0.000 S 
ATOM     25  C   UNL     1      49.295   5.370  18.450  0.00  0.00    +0.000 A 
ATOM     26  N   UNL     1      49.134   4.350  19.338  0.00  0.00    +0.000 NA
ATOM     27  C   UNL     1      48.505   3.325  18.865  0.00  0.00    +0.000 A 
ATOM     28  N   UNL     1      48.017   3.227  17.588  0.00  0.00    +0.000 N 
ATOM     29  C   UNL     1      48.158   4.227  16.656  0.00  0.00    +0.000 A 
ATOM     30  O   UNL     1      47.687   4.119  15.532  0.00  0.00    +0.000 OA
ATOM     31  C   UNL     1      48.870   5.397  17.136  0.00  0.00    +0.000 A 
ATOM     32  H   UNL     1      47.513   2.408  17.284  0.00  0.00    +0.000 HD
ENDBRANCH  19  22
ENDBRANCH  17  18
ENDBRANCH   4  17
TORSDOF 7
ENDMDL
MODEL 4
REMARK VINA RESULT:    -7.298      4.051      6.070
REMARK INTER + INTRA:         -11.444
REMARK INTER:                 -10.655
REMARK INTRA:                  -0.789
REMARK UNBOUND:                -1.159
REMARK  Name = 
REMARK  8 active torsions:
REMARK  status: ('A' for Active; 'I' for Inactive)
REMARK    1  A    between atoms: C_1  and  C_2
REMARK    2  A    between atoms: C_6  and  C_7
REMARK    3  A    between atoms: C_7  and  O_8
REMARK    4  A    between atoms: O_8  and  C_9
REMARK    5  A    between atoms: C_9  and  C_10
REMARK    6  A    between atoms: C_13  and  C_14
REMARK    7  A    between atoms: C_14  and  N_15
REMARK    8  A    between atoms: C_16  and  C_18
REMARK                            x       y       z     vdW  Elec       q    Type
REMARK                         _______ _______ _______ _____ _____    ______ ____
ROOT
ATOM      1  C   UNL     1      46.005   2.331   8.009  0.00  0.00    +0.000 A 
ATOM      2  C   UNL     1      46.191   3.708   7.853  0.00  0.00    +0.000 A 
ATOM      3  C   UNL     1      45.534   4.619   8.683  0.00  0.00    +0.000 A 
ATOM      4  C   UNL     1      44.682   4.179   9.706  0.00  0.00    +0.000 A 
ATOM      5  C   UNL     1      44.473   2.798   9.837  0.00  0.00    +0.000 A 
ATOM      6  C   UNL     1      45.152   1.883   9.023  0.00  0.00    +0.000 A 
ENDROOT
BRANCH   1   7
ATOM      7  C   UNL     1      46.658   1.363   7.061  0.00  0.00    +0.000 C 
BRANCH   7   8
ATOM      8  O   UNL     1      46.805   2.001   5.801  0.00  0.00    +0.000 OA
BRANCH   8   9
ATOM      9  C   UNL     1      47.713   1.304   4.947  0.00  0.00    +0.000 C 
BRANCH   9  15
ATOM     10  C   UNL     1      47.053  -2.952   2.700  0.00  0.00    +0.000 C 
ATOM     11  C   UNL     1      46.634  -1.522   2.840  0.00  0.00    +0.000 A 
ATOM     12  C   UNL     1      45.619  -0.998   2.049  0.00  0.00    +0.000 A 
ATOM     13  C   UNL     1      45.275   0.339   2.198  0.00  0.00    +0.000 A 
ATOM     14  C   UNL     1      45.952   1.111   3.133  0.00  0.00    +0.000 A 
ATOM     15  C   UNL     1      46.948   0.518   3.909  0.00  0.00    +0.000 A 
ATOM     16  N   UNL     1      47.300  -0.784   3.759  0.00  0.00    +0.000 NA
ENDBRANCH   9  15
ENDBRANCH   8   9
ENDBRANCH   7   8
ENDBRANCH   1   7
BRANCH   4  17
ATOM     17  C   UNL     1      44.037   5.141  10.683  0.00  0.00    +0.000 C 
BRANCH  17  18
ATOM     18  N   UNL     1      44.851   6.291  10.994  0.00  0.00    +0.000 N 
ATOM     19  C   UNL     1      45.318   6.551  12.263  0.00  0.00    +0.000 C 
ATOM     20  O   UNL     1      45.083   5.843  13.222  0.00  0.00    +0.000 OA
ATOM     21  H   UNL     1      44.882   7.039  10.320  0.00  0.00    +0.000 HD
BRANCH  19  22
ATOM     22  C   UNL     1      46.181   7.741  12.362  0.00  0.00    +0.000 A 
ATOM     23  C   UNL     1      45.660   9.008  12.142  0.00  0.00    +0.000 A 
ATOM     24  S   UNL     1      46.824  10.251  12.273  0.00  0.00    +0.000 S 
ATOM     25  C   UNL     1      48.062   9.136  12.620  0.00  0.00    +0.000 A 
ATOM     26  N   UNL     1      49.347   9.540  12.818  0.00  0.00    +0.000 NA
ATOM     27  C   UNL     1      50.174   8.584  13.083  0.00  0.00    +0.000 A 
ATOM     28  N   UNL     1      49.833   7.259  13.175  0.00  0.00    +0.000 N 
ATOM     29  C   UNL     1      48.552   6.802  12.981  0.00  0.00    +0.000 A 
ATOM     30  O   UNL     1      48.277   5.615  13.097  0.00  0.00    +0.000 OA
ATOM     31  C   UNL     1      47.587   7.839  12.667  0.00  0.00    +0.000 A 
ATOM     32  H   UNL     1      50.522   6.559  13.409  0.00  0.00    +0.000 HD
ENDBRANCH  19  22
ENDBRANCH  17  18
ENDBRANCH   4  17
TORSDOF 7
ENDMDL
MODEL 5
REMARK VINA RESULT:    -7.222      2.939      8.784
REMARK INTER + INTRA:         -11.337
REMARK INTER:                  -9.911
REMARK INTRA:                  -1.426
REMARK UNBOUND:                -1.159
REMARK  Name = 
REMARK  8 active torsions:
REMARK  status: ('A' for Active; 'I' for Inactive)
REMARK    1  A    between atoms: C_1  and  C_2
REMARK    2  A    between atoms: C_6  and  C_7
REMARK    3  A    between atoms: C_7  and  O_8
REMARK    4  A    between atoms: O_8  and  C_9
REMARK    5  A    between atoms: C_9  and  C_10
REMARK    6  A    between atoms: C_13  and  C_14
REMARK    7  A    between atoms: C_14  and  N_15
REMARK    8  A    between atoms: C_16  and  C_18
REMARK                            x       y       z     vdW  Elec       q    Type
REMARK                         _______ _______ _______ _____ _____    ______ ____
ROOT
ATOM      1  C   UNL     1      49.252   8.191  16.038  0.00  0.00    +0.000 A 
ATOM      2  C   UNL     1      48.159   8.919  15.559  0.00  0.00    +0.000 A 
ATOM      3  C   UNL     1      47.732   8.787  14.236  0.00  0.00    +0.000 A 
ATOM      4  C   UNL     1      48.377   7.908  13.354  0.00  0.00    +0.000 A 
ATOM      5  C   UNL     1      49.494   7.204  13.830  0.00  0.00    +0.000 A 
ATOM      6  C   UNL     1      49.905   7.316  15.164  0.00  0.00    +0.000 A 
ENDROOT
BRANCH   1   7
ATOM      7  C   UNL     1      49.749   8.398  17.443  0.00  0.00    +0.000 C 
BRANCH   7   8
ATOM      8  O   UNL     1      49.953   7.124  18.037  0.00  0.00    +0.000 OA
BRANCH   8   9
ATOM      9  C   UNL     1      48.739   6.563  18.537  0.00  0.00    +0.000 C 
BRANCH   9  15
ATOM     10  C   UNL     1      50.827   2.347  17.327  0.00  0.00    +0.000 C 
ATOM     11  C   UNL     1      49.565   3.144  17.435  0.00  0.00    +0.000 A 
ATOM     12  C   UNL     1      48.344   2.596  17.058  0.00  0.00    +0.000 A 
ATOM     13  C   UNL     1      47.200   3.376  17.156  0.00  0.00    +0.000 A 
ATOM     14  C   UNL     1      47.307   4.677  17.629  0.00  0.00    +0.000 A 
ATOM     15  C   UNL     1      48.561   5.160  18.008  0.00  0.00    +0.000 A 
ATOM     16  N   UNL     1      49.686   4.408  17.902  0.00  0.00    +0.000 NA
ENDBRANCH   9  15
ENDBRANCH   8   9
ENDBRANCH   7   8
ENDBRANCH   1   7
BRANCH   4  17
ATOM     17  C   UNL     1      47.874   7.671  11.945  0.00  0.00    +0.000 C 
BRANCH  17  18
ATOM     18  N   UNL     1      47.032   6.506  11.814  0.00  0.00    +0.000 N 
ATOM     19  C   UNL     1      45.657   6.575  11.832  0.00  0.00    +0.000 C 
ATOM     20  O   UNL     1      45.040   7.614  11.962  0.00  0.00    +0.000 OA
ATOM     21  H   UNL     1      47.459   5.603  11.948  0.00  0.00    +0.000 HD
BRANCH  19  22
ATOM     22  C   UNL     1      44.980   5.283  11.624  0.00  0.00    +0.000 A 
ATOM     23  C   UNL     1      44.232   4.710  12.642  0.00  0.00    +0.000 A 
ATOM     24  S   UNL     1      43.553   3.202  12.217  0.00  0.00    +0.000 S 
ATOM     25  C   UNL     1      44.243   3.264  10.662  0.00  0.00    +0.000 A 
ATOM     26  N   UNL     1      44.076   2.248   9.770  0.00  0.00    +0.000 NA
ATOM     27  C   UNL     1      44.647   2.440   8.628  0.00  0.00    +0.000 A 
ATOM     28  N   UNL     1      45.367   3.558   8.292  0.00  0.00    +0.000 N 
ATOM     29  C   UNL     1      45.566   4.606   9.157  0.00  0.00    +0.000 A 
ATOM     30  O   UNL     1      46.191   5.601   8.817  0.00  0.00    +0.000 OA
ATOM     31  C   UNL     1      44.952   4.432  10.461  0.00  0.00    +0.000 A 
ATOM     32  H   UNL     1      45.771   3.660   7.373  0.00  0.00    +0.000 HD
ENDBRANCH  19  22
ENDBRANCH  17  18
ENDBRANCH   4  17
TORSDOF 7
ENDMDL
MODEL 6
REMARK VINA RESULT:    -7.209      1.480      2.105
REMARK INTER + INTRA:         -11.317
REMARK INTER:                 -10.335
REMARK INTRA:                  -0.983
REMARK UNBOUND:                -1.159
REMARK  Name = 
REMARK  8 active torsions:
REMARK  status: ('A' for Active; 'I' for Inactive)
REMARK    1  A    between atoms: C_1  and  C_2
REMARK    2  A    between atoms: C_6  and  C_7
REMARK    3  A    between atoms: C_7  and  O_8
REMARK    4  A    between atoms: O_8  and  C_9
REMARK    5  A    between atoms: C_9  and  C_10
REMARK    6  A    between atoms: C_13  and  C_14
REMARK    7  A    between atoms: C_14  and  N_15
REMARK    8  A    between atoms: C_16  and  C_18
REMARK                            x       y       z     vdW  Elec       q    Type
REMARK                         _______ _______ _______ _____ _____    ______ ____
ROOT
ATOM      1  C   UNL     1      45.014   4.672  12.044  0.00  0.00    +0.000 A 
ATOM      2  C   UNL     1      45.274   6.042  11.943  0.00  0.00    +0.000 A 
ATOM      3  C   UNL     1      46.277   6.640  12.709  0.00  0.00    +0.000 A 
ATOM      4  C   UNL     1      47.063   5.881  13.589  0.00  0.00    +0.000 A 
ATOM      5  C   UNL     1      46.776   4.513  13.711  0.00  0.00    +0.000 A 
ATOM      6  C   UNL     1      45.789   3.909  12.923  0.00  0.00    +0.000 A 
ENDROOT
BRANCH   1   7
ATOM      7  C   UNL     1      43.881   4.053  11.271  0.00  0.00    +0.000 C 
BRANCH   7   8
ATOM      8  O   UNL     1      44.431   3.187  10.290  0.00  0.00    +0.000 OA
BRANCH   8   9
ATOM      9  C   UNL     1      44.563   3.826   9.020  0.00  0.00    +0.000 C 
BRANCH   9  15
ATOM     10  C   UNL     1      46.752  -0.320   7.745  0.00  0.00    +0.000 C 
ATOM     11  C   UNL     1      46.691   1.169   7.604  0.00  0.00    +0.000 A 
ATOM     12  C   UNL     1      47.592   1.843   6.788  0.00  0.00    +0.000 A 
ATOM     13  C   UNL     1      47.512   3.227   6.702  0.00  0.00    +0.000 A 
ATOM     14  C   UNL     1      46.536   3.895   7.428  0.00  0.00    +0.000 A 
ATOM     15  C   UNL     1      45.650   3.156   8.214  0.00  0.00    +0.000 A 
ATOM     16  N   UNL     1      45.731   1.805   8.316  0.00  0.00    +0.000 NA
ENDBRANCH   9  15
ENDBRANCH   8   9
ENDBRANCH   7   8
ENDBRANCH   1   7
BRANCH   4  17
ATOM     17  C   UNL     1      48.222   6.486  14.355  0.00  0.00    +0.000 C 
BRANCH  17  18
ATOM     18  N   UNL     1      48.088   6.389  15.788  0.00  0.00    +0.000 N 
ATOM     19  C   UNL     1      49.151   6.111  16.618  0.00  0.00    +0.000 C 
ATOM     20  O   UNL     1      50.282   5.921  16.217  0.00  0.00    +0.000 OA
ATOM     21  H   UNL     1      47.159   6.291  16.166  0.00  0.00    +0.000 HD
BRANCH  19  22
ATOM     22  C   UNL     1      48.820   6.114  18.054  0.00  0.00    +0.000 A 
ATOM     23  C   UNL     1      49.012   4.975  18.822  0.00  0.00    +0.000 A 
ATOM     24  S   UNL     1      48.541   5.170  20.452  0.00  0.00    +0.000 S 
ATOM     25  C   UNL     1      48.060   6.780  20.181  0.00  0.00    +0.000 A 
ATOM     26  N   UNL     1      47.523   7.538  21.178  0.00  0.00    +0.000 NA
ATOM     27  C   UNL     1      47.216   8.742  20.827  0.00  0.00    +0.000 A 
ATOM     28  N   UNL     1      47.401   9.263  19.572  0.00  0.00    +0.000 N 
ATOM     29  C   UNL     1      47.935   8.538  18.534  0.00  0.00    +0.000 A 
ATOM     30  O   UNL     1      48.112   9.040  17.433  0.00  0.00    +0.000 OA
ATOM     31  C   UNL     1      48.285   7.171  18.876  0.00  0.00    +0.000 A 
ATOM     32  H   UNL     1      47.162  10.221  19.365  0.00  0.00    +0.000 HD
ENDBRANCH  19  22
ENDBRANCH  17  18
ENDBRANCH   4  17
TORSDOF 7
ENDMDL
MODEL 7
REMARK VINA RESULT:    -7.206      3.293      5.483
REMARK INTER + INTRA:         -11.314
REMARK INTER:                 -10.623
REMARK INTRA:                  -0.691
REMARK UNBOUND:                -1.159
REMARK  Name = 
REMARK  8 active torsions:
REMARK  status: ('A' for Active; 'I' for Inactive)
REMARK    1  A    between atoms: C_1  and  C_2
REMARK    2  A    between atoms: C_6  and  C_7
REMARK    3  A    between atoms: C_7  and  O_8
REMARK    4  A    between atoms: O_8  and  C_9
REMARK    5  A    between atoms: C_9  and  C_10
REMARK    6  A    between atoms: C_13  and  C_14
REMARK    7  A    between atoms: C_14  and  N_15
REMARK    8  A    between atoms: C_16  and  C_18
REMARK                            x       y       z     vdW  Elec       q    Type
REMARK                         _______ _______ _______ _____ _____    ______ ____
ROOT
ATOM      1  C   UNL     1      45.515   3.163   7.967  0.00  0.00    +0.000 A 
ATOM      2  C   UNL     1      45.619   4.466   8.466  0.00  0.00    +0.000 A 
ATOM      3  C   UNL     1      45.116   4.793   9.727  0.00  0.00    +0.000 A 
ATOM      4  C   UNL     1      44.507   3.823  10.536  0.00  0.00    +0.000 A 
ATOM      5  C   UNL     1      44.375   2.525  10.017  0.00  0.00    +0.000 A 
ATOM      6  C   UNL     1      44.903   2.191   8.764  0.00  0.00    +0.000 A 
ENDROOT
BRANCH   1   7
ATOM      7  C   UNL     1      45.992   2.840   6.578  0.00  0.00    +0.000 C 
BRANCH   7   8
ATOM      8  O   UNL     1      46.918   1.767   6.661  0.00  0.00    +0.000 OA
BRANCH   8   9
ATOM      9  C   UNL     1      47.734   1.668   5.494  0.00  0.00    +0.000 C 
BRANCH   9  15
ATOM     10  C   UNL     1      46.794  -2.731   3.659  0.00  0.00    +0.000 C 
ATOM     11  C   UNL     1      46.577  -1.253   3.565  0.00  0.00    +0.000 A 
ATOM     12  C   UNL     1      45.785  -0.714   2.559  0.00  0.00    +0.000 A 
ATOM     13  C   UNL     1      45.627   0.664   2.496  0.00  0.00    +0.000 A 
ATOM     14  C   UNL     1      46.260   1.461   3.440  0.00  0.00    +0.000 A 
ATOM     15  C   UNL     1      47.027   0.854   4.436  0.00  0.00    +0.000 A 
ATOM     16  N   UNL     1      47.198  -0.491   4.495  0.00  0.00    +0.000 NA
ENDBRANCH   9  15
ENDBRANCH   8   9
ENDBRANCH   7   8
ENDBRANCH   1   7
BRANCH   4  17
ATOM     17  C   UNL     1      44.044   4.128  11.945  0.00  0.00    +0.000 C 
BRANCH  17  18
ATOM     18  N   UNL     1      45.035   4.798  12.753  0.00  0.00    +0.000 N 
ATOM     19  C   UNL     1      46.090   4.135  13.337  0.00  0.00    +0.000 C 
ATOM     20  O   UNL     1      46.274   2.939  13.227  0.00  0.00    +0.000 OA
ATOM     21  H   UNL     1      44.818   5.723  13.087  0.00  0.00    +0.000 HD
BRANCH  19  22
ATOM     22  C   UNL     1      47.024   5.006  14.073  0.00  0.00    +0.000 A 
ATOM     23  C   UNL     1      47.421   4.681  15.362  0.00  0.00    +0.000 A 
ATOM     24  S   UNL     1      48.480   5.829  16.053  0.00  0.00    +0.000 S 
ATOM     25  C   UNL     1      48.437   6.799  14.655  0.00  0.00    +0.000 A 
ATOM     26  N   UNL     1      49.118   7.976  14.586  0.00  0.00    +0.000 NA
ATOM     27  C   UNL     1      49.000   8.596  13.460  0.00  0.00    +0.000 A 
ATOM     28  N   UNL     1      48.268   8.146  12.392  0.00  0.00    +0.000 N 
ATOM     29  C   UNL     1      47.561   6.968  12.414  0.00  0.00    +0.000 A 
ATOM     30  O   UNL     1      46.939   6.581  11.434  0.00  0.00    +0.000 OA
ATOM     31  C   UNL     1      47.652   6.239  13.666  0.00  0.00    +0.000 A 
ATOM     32  H   UNL     1      48.232   8.666  11.528  0.00  0.00    +0.000 HD
ENDBRANCH  19  22
ENDBRANCH  17  18
ENDBRANCH   4  17
TORSDOF 7
ENDMDL
MODEL 8
REMARK VINA RESULT:    -7.154      6.135      9.729
REMARK INTER + INTRA:         -11.240
REMARK INTER:                 -10.460
REMARK INTRA:                  -0.780
REMARK UNBOUND:                -1.159
REMARK  Name = 
REMARK  8 active torsions:
REMARK  status: ('A' for Active; 'I' for Inactive)
REMARK    1  A    between atoms: C_1  and  C_2
REMARK    2  A    between atoms: C_6  and  C_7
REMARK    3  A    between atoms: C_7  and  O_8
REMARK    4  A    between atoms: O_8  and  C_9
REMARK    5  A    between atoms: C_9  and  C_10
REMARK    6  A    between atoms: C_13  and  C_14
REMARK    7  A    between atoms: C_14  and  N_15
REMARK    8  A    between atoms: C_16  and  C_18
REMARK                            x       y       z     vdW  Elec       q    Type
REMARK                         _______ _______ _______ _____ _____    ______ ____
ROOT
ATOM      1  C   UNL     1      51.461   2.925  17.772  0.00  0.00    +0.000 A 
ATOM      2  C   UNL     1      50.872   4.178  17.964  0.00  0.00    +0.000 A 
ATOM      3  C   UNL     1      49.525   4.392  17.662  0.00  0.00    +0.000 A 
ATOM      4  C   UNL     1      48.721   3.352  17.172  0.00  0.00    +0.000 A 
ATOM      5  C   UNL     1      49.326   2.105  16.949  0.00  0.00    +0.000 A 
ATOM      6  C   UNL     1      50.668   1.884  17.278  0.00  0.00    +0.000 A 
ENDROOT
BRANCH   1   7
ATOM      7  C   UNL     1      52.930   2.727  18.029  0.00  0.00    +0.000 C 
BRANCH   7   8
ATOM      8  O   UNL     1      53.135   1.382  18.436  0.00  0.00    +0.000 OA
BRANCH   8   9
ATOM      9  C   UNL     1      54.375   0.859  17.963  0.00  0.00    +0.000 C 
BRANCH   9  15
ATOM     10  C   UNL     1      52.866  -3.092  20.352  0.00  0.00    +0.000 C 
ATOM     11  C   UNL     1      53.642  -2.536  19.200  0.00  0.00    +0.000 A 
ATOM     12  C   UNL     1      54.299  -3.379  18.313  0.00  0.00    +0.000 A 
ATOM     13  C   UNL     1      55.025  -2.820  17.269  0.00  0.00    +0.000 A 
ATOM     14  C   UNL     1      55.069  -1.438  17.141  0.00  0.00    +0.000 A 
ATOM     15  C   UNL     1      54.371  -0.649  18.055  0.00  0.00    +0.000 A 
ATOM     16  N   UNL     1      53.672  -1.188  19.087  0.00  0.00    +0.000 NA
ENDBRANCH   9  15
ENDBRANCH   8   9
ENDBRANCH   7   8
ENDBRANCH   1   7
BRANCH   4  17
ATOM     17  C   UNL     1      47.236   3.531  16.932  0.00  0.00    +0.000 C 
BRANCH  17  18
ATOM     18  N   UNL     1      46.923   4.488  15.898  0.00  0.00    +0.000 N 
ATOM     19  C   UNL     1      46.963   4.175  14.558  0.00  0.00    +0.000 C 
ATOM     20  O   UNL     1      47.266   3.077  14.135  0.00  0.00    +0.000 OA
ATOM     21  H   UNL     1      46.904   5.462  16.152  0.00  0.00    +0.000 HD
BRANCH  19  22
ATOM     22  C   UNL     1      46.552   5.272  13.664  0.00  0.00    +0.000 A 
ATOM     23  C   UNL     1      47.392   6.355  13.449  0.00  0.00    +0.000 A 
ATOM     24  S   UNL     1      46.724   7.533  12.408  0.00  0.00    +0.000 S 
ATOM     25  C   UNL     1      45.290   6.636  12.217  0.00  0.00    +0.000 A 
ATOM     26  N   UNL     1      44.260   7.099  11.456  0.00  0.00    +0.000 NA
ATOM     27  C   UNL     1      43.242   6.306  11.396  0.00  0.00    +0.000 A 
ATOM     28  N   UNL     1      43.161   5.088  12.022  0.00  0.00    +0.000 N 
ATOM     29  C   UNL     1      44.172   4.581  12.802  0.00  0.00    +0.000 A 
ATOM     30  O   UNL     1      44.078   3.479  13.325  0.00  0.00    +0.000 OA
ATOM     31  C   UNL     1      45.334   5.443  12.911  0.00  0.00    +0.000 A 
ATOM     32  H   UNL     1      42.346   4.502  11.917  0.00  0.00    +0.000 HD
ENDBRANCH  19  22
ENDBRANCH  17  18
ENDBRANCH   4  17
TORSDOF 7
ENDMDL
