MODEL 1
REMARK VINA RESULT:    -8.300      0.000      0.000
REMARK INTER + INTRA:         -12.183
REMARK INTER:                 -11.211
REMARK INTRA:                  -0.972
REMARK UNBOUND:                -0.972
REMARK  Name = 
REMARK  7 active torsions:
REMARK  status: ('A' for Active; 'I' for Inactive)
REMARK    1  A    between atoms: C_1  and  C_2
REMARK    2  A    between atoms: C_2  and  O_3
REMARK    3  A    between atoms: C_2  and  C_10
REMARK    4  A    between atoms: O_3  and  C_4
REMARK    5  A    between atoms: C_13  and  C_14
REMARK    6  A    between atoms: C_14  and  N_15
REMARK    7  A    between atoms: C_16  and  C_18
REMARK                            x       y       z     vdW  Elec       q    Type
REMARK                         _______ _______ _______ _____ _____    ______ ____
ROOT
ATOM      1  C   UNL     1      48.406   6.906  13.540  0.00  0.00    +0.000 C 
ENDROOT
BRANCH   1   5
ATOM      2  C   UNL     1      45.151   4.938  11.601  0.00  0.00    +0.000 A 
ATOM      3  C   UNL     1      45.597   6.154  11.082  0.00  0.00    +0.000 A 
ATOM      4  C   UNL     1      46.673   6.801  11.692  0.00  0.00    +0.000 A 
ATOM      5  C   UNL     1      47.289   6.227  12.805  0.00  0.00    +0.000 A 
ATOM      6  C   UNL     1      46.781   5.014  13.252  0.00  0.00    +0.000 A 
ATOM      7  N   UNL     1      45.740   4.364  12.682  0.00  0.00    +0.000 NA
BRANCH   2   9
ATOM      8  C   UNL     1      42.693   5.047  11.629  0.00  0.00    +0.000 C 
ATOM      9  C   UNL     1      43.885   4.257  11.078  0.00  0.00    +0.000 C 
BRANCH   9  10
ATOM     10  O   UNL     1      43.889   4.252   9.642  0.00  0.00    +0.000 OA
BRANCH  10  11
ATOM     11  C   UNL     1      44.804   3.476   8.983  0.00  0.00    +0.000 A 
ATOM     12  C   UNL     1      44.991   2.104   9.148  0.00  0.00    +0.000 A 
ATOM     13  C   UNL     1      45.917   1.415   8.356  0.00  0.00    +0.000 A 
ATOM     14  C   UNL     1      46.678   2.098   7.411  0.00  0.00    +0.000 A 
ATOM     15  C   UNL     1      46.511   3.470   7.252  0.00  0.00    +0.000 A 
ATOM     16  C   UNL     1      45.570   4.152   8.027  0.00  0.00    +0.000 A 
ENDBRANCH  10  11
ENDBRANCH   9  10
ENDBRANCH   2   9
ENDBRANCH   1   5
BRANCH   1  17
ATOM     17  N   UNL     1      48.157   6.931  14.961  0.00  0.00    +0.000 N 
ATOM     18  C   UNL     1      49.174   6.758  15.865  0.00  0.00    +0.000 C 
ATOM     19  O   UNL     1      50.341   6.619  15.508  0.00  0.00    +0.000 OA
ATOM     20  H   UNL     1      47.195   6.829  15.271  0.00  0.00    +0.000 HD
BRANCH  18  21
ATOM     21  C   UNL     1      48.809   6.799  17.288  0.00  0.00    +0.000 A 
ATOM     22  C   UNL     1      48.381   7.993  17.851  0.00  0.00    +0.000 A 
ATOM     23  S   UNL     1      47.950   7.864  19.496  0.00  0.00    +0.000 S 
ATOM     24  C   UNL     1      48.374   6.216  19.531  0.00  0.00    +0.000 A 
ATOM     25  N   UNL     1      48.267   5.493  20.677  0.00  0.00    +0.000 NA
ATOM     26  C   UNL     1      48.651   4.265  20.571  0.00  0.00    +0.000 A 
ATOM     27  N   UNL     1      49.126   3.693  19.420  0.00  0.00    +0.000 N 
ATOM     28  C   UNL     1      49.224   4.376  18.232  0.00  0.00    +0.000 A 
ATOM     29  O   UNL     1      49.609   3.825  17.207  0.00  0.00    +0.000 OA
ATOM     30  C   UNL     1      48.815   5.766  18.299  0.00  0.00    +0.000 A 
ATOM     31  H   UNL     1      49.405   2.722  19.401  0.00  0.00    +0.000 HD
ENDBRANCH  18  21
ENDBRANCH   1  17
TORSDOF 6
ENDMDL
MODEL 2
REMARK VINA RESULT:    -8.102      1.314      2.009
REMARK INTER + INTRA:         -11.916
REMARK INTER:                 -10.818
REMARK INTRA:                  -1.098
REMARK UNBOUND:                -0.972
REMARK  Name = 
REMARK  7 active torsions:
REMARK  status: ('A' for Active; 'I' for Inactive)
REMARK    1  A    between atoms: C_1  and  C_2
REMARK    2  A    between atoms: C_2  and  O_3
REMARK    3  A    between atoms: C_2  and  C_10
REMARK    4  A    between atoms: O_3  and  C_4
REMARK    5  A    between atoms: C_13  and  C_14
REMARK    6  A    between atoms: C_14  and  N_15
REMARK    7  A    between atoms: C_16  and  C_18
REMARK                            x       y       z     vdW  Elec       q    Type
REMARK                         _______ _______ _______ _____ _____    ______ ____
ROOT
ATOM      1  C   UNL     1      48.204   6.882  13.772  0.00  0.00    +0.000 C 
ENDROOT
BRANCH   1   5
ATOM      2  C   UNL     1      45.095   4.948  11.577  0.00  0.00    +0.000 A 
ATOM      3  C   UNL     1      45.562   6.182  11.122  0.00  0.00    +0.000 A 
ATOM      4  C   UNL     1      46.591   6.819  11.817  0.00  0.00    +0.000 A 
ATOM      5  C   UNL     1      47.142   6.217  12.949  0.00  0.00    +0.000 A 
ATOM      6  C   UNL     1      46.618   4.987  13.329  0.00  0.00    +0.000 A 
ATOM      7  N   UNL     1      45.621   4.347  12.676  0.00  0.00    +0.000 NA
BRANCH   2   9
ATOM      8  C   UNL     1      42.640   5.044  11.446  0.00  0.00    +0.000 C 
ATOM      9  C   UNL     1      43.870   4.273  10.956  0.00  0.00    +0.000 C 
BRANCH   9  10
ATOM     10  O   UNL     1      43.969   4.302   9.524  0.00  0.00    +0.000 OA
BRANCH  10  11
ATOM     11  C   UNL     1      44.888   3.499   8.905  0.00  0.00    +0.000 A 
ATOM     12  C   UNL     1      45.027   2.122   9.077  0.00  0.00    +0.000 A 
ATOM     13  C   UNL     1      45.965   1.405   8.325  0.00  0.00    +0.000 A 
ATOM     14  C   UNL     1      46.786   2.063   7.414  0.00  0.00    +0.000 A 
ATOM     15  C   UNL     1      46.666   3.440   7.249  0.00  0.00    +0.000 A 
ATOM     16  C   UNL     1      45.714   4.150   7.983  0.00  0.00    +0.000 A 
ENDBRANCH  10  11
ENDBRANCH   9  10
ENDBRANCH   2   9
ENDBRANCH   1   5
BRANCH   1  17
ATOM     17  N   UNL     1      48.048   6.577  15.174  0.00  0.00    +0.000 N 
ATOM     18  C   UNL     1      49.136   6.393  15.988  0.00  0.00    +0.000 C 
ATOM     19  O   UNL     1      50.284   6.522  15.572  0.00  0.00    +0.000 OA
ATOM     20  H   UNL     1      47.134   6.259  15.485  0.00  0.00    +0.000 HD
BRANCH  18  21
ATOM     21  C   UNL     1      48.863   6.083  17.399  0.00  0.00    +0.000 A 
ATOM     22  C   UNL     1      49.105   4.803  17.878  0.00  0.00    +0.000 A 
ATOM     23  S   UNL     1      48.783   4.618  19.542  0.00  0.00    +0.000 S 
ATOM     24  C   UNL     1      48.255   6.231  19.672  0.00  0.00    +0.000 A 
ATOM     25  N   UNL     1      47.808   6.724  20.857  0.00  0.00    +0.000 NA
ATOM     26  C   UNL     1      47.409   7.952  20.807  0.00  0.00    +0.000 A 
ATOM     27  N   UNL     1      47.424   8.732  19.681  0.00  0.00    +0.000 N 
ATOM     28  C   UNL     1      47.896   8.286  18.469  0.00  0.00    +0.000 A 
ATOM     29  O   UNL     1      47.941   9.021  17.490  0.00  0.00    +0.000 OA
ATOM     30  C   UNL     1      48.346   6.907  18.468  0.00  0.00    +0.000 A 
ATOM     31  H   UNL     1      47.104   9.689  19.710  0.00  0.00    +0.000 HD
ENDBRANCH  18  21
ENDBRANCH   1  17
TORSDOF 6
ENDMDL
MODEL 3
REMARK VINA RESULT:    -7.781      1.655      1.969
REMARK INTER + INTRA:         -11.482
REMARK INTER:                 -10.668
REMARK INTRA:                  -0.815
REMARK UNBOUND:                -0.972
REMARK  Name = 
REMARK  7 active torsions:
REMARK  status: ('A' for Active; 'I' for Inactive)
REMARK    1  A    between atoms: C_1  and  C_2
REMARK    2  A    between atoms: C_2  and  O_3
REMARK    3  A    between atoms: C_2  and  C_10
REMARK    4  A    between atoms: O_3  and  C_4
REMARK    5  A    between atoms: C_13  and  C_14
REMARK    6  A    between atoms: C_14  and  N_15
REMARK    7  A    between atoms: C_16  and  C_18
REMARK                            x       y       z     vdW  Elec       q    Type
REMARK                         _______ _______ _______ _____ _____    ______ ____
ROOT
ATOM      1  C   UNL     1      46.618   8.143  13.125  0.00  0.00    +0.000 C 
ENDROOT
BRANCH   1   5
ATOM      2  C   UNL     1      45.158   4.638  11.172  0.00  0.00    +0.000 A 
ATOM      3  C   UNL     1      44.780   4.868  12.495  0.00  0.00    +0.000 A 
ATOM      4  C   UNL     1      45.233   6.019  13.143  0.00  0.00    +0.000 A 
ATOM      5  C   UNL     1      46.050   6.924  12.462  0.00  0.00    +0.000 A 
ATOM      6  C   UNL     1      46.374   6.616  11.147  0.00  0.00    +0.000 A 
ATOM      7  N   UNL     1      45.952   5.509  10.494  0.00  0.00    +0.000 NA
BRANCH   2   9
ATOM      8  C   UNL     1      43.487   2.838  11.021  0.00  0.00    +0.000 C 
ATOM      9  C   UNL     1      44.827   3.326  10.458  0.00  0.00    +0.000 C 
BRANCH   9  10
ATOM     10  O   UNL     1      44.750   3.545   9.041  0.00  0.00    +0.000 OA
BRANCH  10  11
ATOM     11  C   UNL     1      45.594   2.854   8.215  0.00  0.00    +0.000 A 
ATOM     12  C   UNL     1      46.044   1.547   8.404  0.00  0.00    +0.000 A 
ATOM     13  C   UNL     1      46.852   0.929   7.442  0.00  0.00    +0.000 A 
ATOM     14  C   UNL     1      47.233   1.622   6.296  0.00  0.00    +0.000 A 
ATOM     15  C   UNL     1      46.802   2.932   6.107  0.00  0.00    +0.000 A 
ATOM     16  C   UNL     1      45.978   3.539   7.058  0.00  0.00    +0.000 A 
ENDBRANCH  10  11
ENDBRANCH   9  10
ENDBRANCH   2   9
ENDBRANCH   1   5
BRANCH   1  17
ATOM     17  N   UNL     1      47.268   7.807  14.369  0.00  0.00    +0.000 N 
ATOM     18  C   UNL     1      48.384   7.010  14.397  0.00  0.00    +0.000 C 
ATOM     19  O   UNL     1      48.902   6.586  13.367  0.00  0.00    +0.000 OA
ATOM     20  H   UNL     1      46.746   7.962  15.227  0.00  0.00    +0.000 HD
BRANCH  18  21
ATOM     21  C   UNL     1      48.964   6.729  15.717  0.00  0.00    +0.000 A 
ATOM     22  C   UNL     1      49.904   7.600  16.251  0.00  0.00    +0.000 A 
ATOM     23  S   UNL     1      50.444   7.160  17.808  0.00  0.00    +0.000 S 
ATOM     24  C   UNL     1      49.481   5.757  17.803  0.00  0.00    +0.000 A 
ATOM     25  N   UNL     1      49.494   4.899  18.856  0.00  0.00    +0.000 NA
ATOM     26  C   UNL     1      48.741   3.860  18.708  0.00  0.00    +0.000 A 
ATOM     27  N   UNL     1      47.970   3.607  17.604  0.00  0.00    +0.000 N 
ATOM     28  C   UNL     1      47.902   4.460  16.528  0.00  0.00    +0.000 A 
ATOM     29  O   UNL     1      47.168   4.231  15.574  0.00  0.00    +0.000 OA
ATOM     30  C   UNL     1      48.740   5.640  16.640  0.00  0.00    +0.000 A 
ATOM     31  H   UNL     1      47.397   2.778  17.552  0.00  0.00    +0.000 HD
ENDBRANCH  18  21
ENDBRANCH   1  17
TORSDOF 6
ENDMDL
MODEL 4
REMARK VINA RESULT:    -7.663      1.091      1.530
REMARK INTER + INTRA:         -11.323
REMARK INTER:                 -10.237
REMARK INTRA:                  -1.085
REMARK UNBOUND:                -0.972
REMARK  Name = 
REMARK  7 active torsions:
REMARK  status: ('A' for Active; 'I' for Inactive)
REMARK    1  A    between atoms: C_1  and  C_2
REMARK    2  A    between atoms: C_2  and  O_3
REMARK    3  A    between atoms: C_2  and  C_10
REMARK    4  A    between atoms: O_3  and  C_4
REMARK    5  A    between atoms: C_13  and  C_14
REMARK    6  A    between atoms: C_14  and  N_15
REMARK    7  A    between atoms: C_16  and  C_18
REMARK                            x       y       z     vdW  Elec       q    Type
REMARK                         _______ _______ _______ _____ _____    ______ ____
ROOT
ATOM      1  C   UNL     1      48.572   6.916  14.053  0.00  0.00    +0.000 C 
ENDROOT
BRANCH   1   5
ATOM      2  C   UNL     1      45.301   5.060  12.032  0.00  0.00    +0.000 A 
ATOM      3  C   UNL     1      45.845   6.224  11.488  0.00  0.00    +0.000 A 
ATOM      4  C   UNL     1      46.927   6.833  12.125  0.00  0.00    +0.000 A 
ATOM      5  C   UNL     1      47.453   6.273  13.290  0.00  0.00    +0.000 A 
ATOM      6  C   UNL     1      46.851   5.112  13.760  0.00  0.00    +0.000 A 
ATOM      7  N   UNL     1      45.801   4.500  13.165  0.00  0.00    +0.000 NA
BRANCH   2   9
ATOM      8  C   UNL     1      42.846   5.092  12.202  0.00  0.00    +0.000 C 
ATOM      9  C   UNL     1      44.023   4.432  11.473  0.00  0.00    +0.000 C 
BRANCH   9  10
ATOM     10  O   UNL     1      43.949   4.651  10.056  0.00  0.00    +0.000 OA
BRANCH  10  11
ATOM     11  C   UNL     1      44.737   3.902   9.226  0.00  0.00    +0.000 A 
ATOM     12  C   UNL     1      45.586   4.390   8.233  0.00  0.00    +0.000 A 
ATOM     13  C   UNL     1      46.395   3.515   7.499  0.00  0.00    +0.000 A 
ATOM     14  C   UNL     1      46.343   2.145   7.737  0.00  0.00    +0.000 A 
ATOM     15  C   UNL     1      45.486   1.646   8.714  0.00  0.00    +0.000 A 
ATOM     16  C   UNL     1      44.696   2.523   9.461  0.00  0.00    +0.000 A 
ENDBRANCH  10  11
ENDBRANCH   9  10
ENDBRANCH   2   9
ENDBRANCH   1   5
BRANCH   1  17
ATOM     17  N   UNL     1      48.188   7.187  15.417  0.00  0.00    +0.000 N 
ATOM     18  C   UNL     1      48.907   8.051  16.202  0.00  0.00    +0.000 C 
ATOM     19  O   UNL     1      49.877   8.665  15.766  0.00  0.00    +0.000 OA
ATOM     20  H   UNL     1      47.535   6.543  15.857  0.00  0.00    +0.000 HD
BRANCH  18  21
ATOM     21  C   UNL     1      48.429   8.251  17.577  0.00  0.00    +0.000 A 
ATOM     22  C   UNL     1      48.238   9.541  18.055  0.00  0.00    +0.000 A 
ATOM     23  S   UNL     1      47.637   9.603  19.650  0.00  0.00    +0.000 S 
ATOM     24  C   UNL     1      47.661   7.906  19.780  0.00  0.00    +0.000 A 
ATOM     25  N   UNL     1      47.282   7.290  20.931  0.00  0.00    +0.000 NA
ATOM     26  C   UNL     1      47.379   6.003  20.904  0.00  0.00    +0.000 A 
ATOM     27  N   UNL     1      47.814   5.276  19.827  0.00  0.00    +0.000 N 
ATOM     28  C   UNL     1      48.180   5.853  18.634  0.00  0.00    +0.000 A 
ATOM     29  O   UNL     1      48.521   5.174  17.672  0.00  0.00    +0.000 OA
ATOM     30  C   UNL     1      48.100   7.301  18.615  0.00  0.00    +0.000 A 
ATOM     31  H   UNL     1      47.861   4.268  19.867  0.00  0.00    +0.000 HD
ENDBRANCH  18  21
ENDBRANCH   1  17
TORSDOF 6
ENDMDL
MODEL 5
REMARK VINA RESULT:    -7.110      3.384      8.666
REMARK INTER + INTRA:         -10.576
REMARK INTER:                  -9.499
REMARK INTRA:                  -1.077
REMARK UNBOUND:                -0.972
REMARK  Name = 
REMARK  7 active torsions:
REMARK  status: ('A' for Active; 'I' for Inactive)
REMARK    1  A    between atoms: C_1  and  C_2
REMARK    2  A    between atoms: C_2  and  O_3
REMARK    3  A    between atoms: C_2  and  C_10
REMARK    4  A    between atoms: O_3  and  C_4
REMARK    5  A    between atoms: C_13  and  C_14
REMARK    6  A    between atoms: C_14  and  N_15
REMARK    7  A    between atoms: C_16  and  C_18
REMARK                            x       y       z     vdW  Elec       q    Type
REMARK                         _______ _______ _______ _____ _____    ______ ____
ROOT
ATOM      1  C   UNL     1      48.422   7.431  13.049  0.00  0.00    +0.000 C 
ENDROOT
BRANCH   1   5
ATOM      2  C   UNL     1      49.602   5.751  16.792  0.00  0.00    +0.000 A 
ATOM      3  C   UNL     1      50.417   6.725  16.214  0.00  0.00    +0.000 A 
ATOM      4  C   UNL     1      50.036   7.299  14.999  0.00  0.00    +0.000 A 
ATOM      5  C   UNL     1      48.850   6.898  14.383  0.00  0.00    +0.000 A 
ATOM      6  C   UNL     1      48.100   5.924  15.030  0.00  0.00    +0.000 A 
ATOM      7  N   UNL     1      48.444   5.350  16.206  0.00  0.00    +0.000 NA
BRANCH   2   9
ATOM      8  C   UNL     1      48.990   5.247  19.122  0.00  0.00    +0.000 C 
ATOM      9  C   UNL     1      50.038   4.975  18.036  0.00  0.00    +0.000 C 
BRANCH   9  10
ATOM     10  O   UNL     1      50.125   3.574  17.734  0.00  0.00    +0.000 OA
BRANCH  10  11
ATOM     11  C   UNL     1      51.352   2.968  17.737  0.00  0.00    +0.000 A 
ATOM     12  C   UNL     1      52.566   3.570  18.066  0.00  0.00    +0.000 A 
ATOM     13  C   UNL     1      53.745   2.816  18.098  0.00  0.00    +0.000 A 
ATOM     14  C   UNL     1      53.721   1.461  17.779  0.00  0.00    +0.000 A 
ATOM     15  C   UNL     1      52.516   0.856  17.432  0.00  0.00    +0.000 A 
ATOM     16  C   UNL     1      51.337   1.605  17.422  0.00  0.00    +0.000 A 
ENDBRANCH  10  11
ENDBRANCH   9  10
ENDBRANCH   2   9
ENDBRANCH   1   5
BRANCH   1  17
ATOM     17  N   UNL     1      47.662   6.450  12.312  0.00  0.00    +0.000 N 
ATOM     18  C   UNL     1      46.446   6.760  11.759  0.00  0.00    +0.000 C 
ATOM     19  O   UNL     1      45.974   7.891  11.827  0.00  0.00    +0.000 OA
ATOM     20  H   UNL     1      47.922   5.474  12.425  0.00  0.00    +0.000 HD
BRANCH  18  21
ATOM     21  C   UNL     1      45.756   5.685  11.033  0.00  0.00    +0.000 A 
ATOM     22  C   UNL     1      45.836   5.633   9.648  0.00  0.00    +0.000 A 
ATOM     23  S   UNL     1      45.023   4.301   8.960  0.00  0.00    +0.000 S 
ATOM     24  C   UNL     1      44.486   3.775  10.486  0.00  0.00    +0.000 A 
ATOM     25  N   UNL     1      43.700   2.672  10.606  0.00  0.00    +0.000 NA
ATOM     26  C   UNL     1      43.339   2.403  11.817  0.00  0.00    +0.000 A 
ATOM     27  N   UNL     1      43.700   3.133  12.919  0.00  0.00    +0.000 N 
ATOM     28  C   UNL     1      44.516   4.237  12.849  0.00  0.00    +0.000 A 
ATOM     29  O   UNL     1      44.860   4.844  13.857  0.00  0.00    +0.000 OA
ATOM     30  C   UNL     1      44.941   4.590  11.508  0.00  0.00    +0.000 A 
ATOM     31  H   UNL     1      43.389   2.866  13.841  0.00  0.00    +0.000 HD
ENDBRANCH  18  21
ENDBRANCH   1  17
TORSDOF 6
ENDMDL
MODEL 6
REMARK VINA RESULT:    -7.030      3.022      8.892
REMARK INTER + INTRA:         -10.468
REMARK INTER:                  -9.417
REMARK INTRA:                  -1.051
REMARK UNBOUND:                -0.972
REMARK  Name = 
REMARK  7 active torsions:
REMARK  status: ('A' for Active; 'I' for Inactive)
REMARK    1  A    between atoms: C_1  and  C_2
REMARK    2  A    between atoms: C_2  and  O_3
REMARK    3  A    between atoms: C_2  and  C_10
REMARK    4  A    between atoms: O_3  and  C_4
REMARK    5  A    between atoms: C_13  and  C_14
REMARK    6  A    between atoms: C_14  and  N_15
REMARK    7  A    between atoms: C_16  and  C_18
REMARK                            x       y       z     vdW  Elec       q    Type
REMARK                         _______ _______ _______ _____ _____    ______ ____
ROOT
ATOM      1  C   UNL     1      47.773   7.666  12.086  0.00  0.00    +0.000 C 
ENDROOT
BRANCH   1   5
ATOM      2  C   UNL     1      50.208   6.957  15.521  0.00  0.00    +0.000 A 
ATOM      3  C   UNL     1      50.655   7.869  14.564  0.00  0.00    +0.000 A 
ATOM      4  C   UNL     1      49.863   8.127  13.445  0.00  0.00    +0.000 A 
ATOM      5  C   UNL     1      48.636   7.478  13.297  0.00  0.00    +0.000 A 
ATOM      6  C   UNL     1      48.269   6.587  14.298  0.00  0.00    +0.000 A 
ATOM      7  N   UNL     1      49.016   6.317  15.393  0.00  0.00    +0.000 NA
BRANCH   2   9
ATOM      8  C   UNL     1      51.439   7.775  17.488  0.00  0.00    +0.000 C 
ATOM      9  C   UNL     1      51.094   6.515  16.686  0.00  0.00    +0.000 C 
BRANCH   9  10
ATOM     10  O   UNL     1      50.396   5.555  17.496  0.00  0.00    +0.000 OA
BRANCH  10  11
ATOM     11  C   UNL     1      50.871   4.274  17.565  0.00  0.00    +0.000 A 
ATOM     12  C   UNL     1      50.144   3.111  17.315  0.00  0.00    +0.000 A 
ATOM     13  C   UNL     1      50.772   1.860  17.352  0.00  0.00    +0.000 A 
ATOM     14  C   UNL     1      52.125   1.763  17.662  0.00  0.00    +0.000 A 
ATOM     15  C   UNL     1      52.856   2.918  17.930  0.00  0.00    +0.000 A 
ATOM     16  C   UNL     1      52.232   4.166  17.871  0.00  0.00    +0.000 A 
ENDBRANCH  10  11
ENDBRANCH   9  10
ENDBRANCH   2   9
ENDBRANCH   1   5
BRANCH   1  17
ATOM     17  N   UNL     1      47.029   6.467  11.782  0.00  0.00    +0.000 N 
ATOM     18  C   UNL     1      45.682   6.384  12.025  0.00  0.00    +0.000 C 
ATOM     19  O   UNL     1      45.044   7.337  12.467  0.00  0.00    +0.000 OA
ATOM     20  H   UNL     1      47.558   5.614  11.624  0.00  0.00    +0.000 HD
BRANCH  18  21
ATOM     21  C   UNL     1      45.023   5.116  11.681  0.00  0.00    +0.000 A 
ATOM     22  C   UNL     1      44.314   4.427  12.656  0.00  0.00    +0.000 A 
ATOM     23  S   UNL     1      43.570   3.002  12.088  0.00  0.00    +0.000 S 
ATOM     24  C   UNL     1      44.215   3.225  10.529  0.00  0.00    +0.000 A 
ATOM     25  N   UNL     1      43.976   2.322   9.541  0.00  0.00    +0.000 NA
ATOM     26  C   UNL     1      44.551   2.597   8.417  0.00  0.00    +0.000 A 
ATOM     27  N   UNL     1      45.337   3.696   8.192  0.00  0.00    +0.000 N 
ATOM     28  C   UNL     1      45.582   4.650   9.151  0.00  0.00    +0.000 A 
ATOM     29  O   UNL     1      46.251   5.647   8.907  0.00  0.00    +0.000 OA
ATOM     30  C   UNL     1      44.968   4.382  10.438  0.00  0.00    +0.000 A 
ATOM     31  H   UNL     1      45.754   3.858   7.286  0.00  0.00    +0.000 HD
ENDBRANCH  18  21
ENDBRANCH   1  17
TORSDOF 6
ENDMDL
MODEL 7
REMARK VINA RESULT:    -6.763      1.870      2.248
REMARK INTER + INTRA:         -10.107
REMARK INTER:                  -8.940
REMARK INTRA:                  -1.166
REMARK UNBOUND:                -0.972
REMARK  Name = 
REMARK  7 active torsions:
REMARK  status: ('A' for Active; 'I' for Inactive)
REMARK    1  A    between atoms: C_1  and  C_2
REMARK    2  A    between atoms: C_2  and  O_3
REMARK    3  A    between atoms: C_2  and  C_10
REMARK    4  A    between atoms: O_3  and  C_4
REMARK    5  A    between atoms: C_13  and  C_14
REMARK    6  A    between atoms: C_14  and  N_15
REMARK    7  A    between atoms: C_16  and  C_18
REMARK                            x       y       z     vdW  Elec       q    Type
REMARK                         _______ _______ _______ _____ _____    ______ ____
ROOT
ATOM      1  C   UNL     1      47.550   9.581  12.871  0.00  0.00    +0.000 C 
ENDROOT
BRANCH   1   5
ATOM      2  C   UNL     1      45.139   6.391  11.375  0.00  0.00    +0.000 A 
ATOM      3  C   UNL     1      44.556   7.650  11.529  0.00  0.00    +0.000 A 
ATOM      4  C   UNL     1      45.335   8.709  11.999  0.00  0.00    +0.000 A 
ATOM      5  C   UNL     1      46.681   8.500  12.303  0.00  0.00    +0.000 A 
ATOM      6  C   UNL     1      47.179   7.216  12.117  0.00  0.00    +0.000 A 
ATOM      7  N   UNL     1      46.448   6.171  11.665  0.00  0.00    +0.000 NA
BRANCH   2   9
ATOM      8  C   UNL     1      42.899   5.393  11.573  0.00  0.00    +0.000 C 
ATOM      9  C   UNL     1      44.307   5.159  11.015  0.00  0.00    +0.000 C 
BRANCH   9  10
ATOM     10  O   UNL     1      44.283   4.984   9.590  0.00  0.00    +0.000 OA
BRANCH  10  11
ATOM     11  C   UNL     1      45.009   3.967   9.033  0.00  0.00    +0.000 A 
ATOM     12  C   UNL     1      44.902   2.611   9.345  0.00  0.00    +0.000 A 
ATOM     13  C   UNL     1      45.657   1.662   8.647  0.00  0.00    +0.000 A 
ATOM     14  C   UNL     1      46.541   2.063   7.648  0.00  0.00    +0.000 A 
ATOM     15  C   UNL     1      46.667   3.415   7.342  0.00  0.00    +0.000 A 
ATOM     16  C   UNL     1      45.896   4.359   8.025  0.00  0.00    +0.000 A 
ENDBRANCH  10  11
ENDBRANCH   9  10
ENDBRANCH   2   9
ENDBRANCH   1   5
BRANCH   1  17
ATOM     17  N   UNL     1      47.948   9.277  14.224  0.00  0.00    +0.000 N 
ATOM     18  C   UNL     1      49.254   9.395  14.626  0.00  0.00    +0.000 C 
ATOM     19  O   UNL     1      50.129   9.807  13.869  0.00  0.00    +0.000 OA
ATOM     20  H   UNL     1      47.300   8.740  14.794  0.00  0.00    +0.000 HD
BRANCH  18  21
ATOM     21  C   UNL     1      49.550   9.056  16.025  0.00  0.00    +0.000 A 
ATOM     22  C   UNL     1      49.965  10.053  16.898  0.00  0.00    +0.000 A 
ATOM     23  S   UNL     1      50.221   9.508  18.494  0.00  0.00    +0.000 S 
ATOM     24  C   UNL     1      49.839   7.906  18.064  0.00  0.00    +0.000 A 
ATOM     25  N   UNL     1      49.889   6.907  18.984  0.00  0.00    +0.000 NA
ATOM     26  C   UNL     1      49.606   5.737  18.516  0.00  0.00    +0.000 A 
ATOM     27  N   UNL     1      49.270   5.478  17.213  0.00  0.00    +0.000 N 
ATOM     28  C   UNL     1      49.178   6.460  16.256  0.00  0.00    +0.000 A 
ATOM     29  O   UNL     1      48.830   6.205  15.109  0.00  0.00    +0.000 OA
ATOM     30  C   UNL     1      49.498   7.794  16.727  0.00  0.00    +0.000 A 
ATOM     31  H   UNL     1      49.053   4.539  16.911  0.00  0.00    +0.000 HD
ENDBRANCH  18  21
ENDBRANCH   1  17
TORSDOF 6
ENDMDL
MODEL 8
REMARK VINA RESULT:    -6.760      4.421      5.369
REMARK INTER + INTRA:         -10.103
REMARK INTER:                  -8.949
REMARK INTRA:                  -1.154
REMARK UNBOUND:                -0.972
REMARK  Name = 
REMARK  7 active torsions:
REMARK  status: ('A' for Active; 'I' for Inactive)
REMARK    1  A    between atoms: C_1  and  C_2
REMARK    2  A    between atoms: C_2  and  O_3
REMARK    3  A    between atoms: C_2  and  C_10
REMARK    4  A    between atoms: O_3  and  C_4
REMARK    5  A    between atoms: C_13  and  C_14
REMARK    6  A    between atoms: C_14  and  N_15
REMARK    7  A    between atoms: C_16  and  C_18
REMARK                            x       y       z     vdW  Elec       q    Type
REMARK                         _______ _______ _______ _____ _____    ______ ____
ROOT
ATOM      1  C   UNL     1      45.935   8.052  13.160  0.00  0.00    +0.000 C 
ENDROOT
BRANCH   1   5
ATOM      2  C   UNL     1      45.098   4.369  11.171  0.00  0.00    +0.000 A 
ATOM      3  C   UNL     1      45.229   4.360  12.560  0.00  0.00    +0.000 A 
ATOM      4  C   UNL     1      45.484   5.559  13.228  0.00  0.00    +0.000 A 
ATOM      5  C   UNL     1      45.600   6.747  12.505  0.00  0.00    +0.000 A 
ATOM      6  C   UNL     1      45.452   6.663  11.126  0.00  0.00    +0.000 A 
ATOM      7  N   UNL     1      45.206   5.517  10.451  0.00  0.00    +0.000 NA
BRANCH   2   9
ATOM      8  C   UNL     1      43.696   2.373  10.843  0.00  0.00    +0.000 C 
ATOM      9  C   UNL     1      44.974   3.074  10.367  0.00  0.00    +0.000 C 
BRANCH   9  10
ATOM     10  O   UNL     1      44.916   3.372   8.963  0.00  0.00    +0.000 OA
BRANCH  10  11
ATOM     11  C   UNL     1      45.759   2.716   8.109  0.00  0.00    +0.000 A 
ATOM     12  C   UNL     1      46.253   1.421   8.271  0.00  0.00    +0.000 A 
ATOM     13  C   UNL     1      47.055   0.840   7.283  0.00  0.00    +0.000 A 
ATOM     14  C   UNL     1      47.387   1.557   6.136  0.00  0.00    +0.000 A 
ATOM     15  C   UNL     1      46.913   2.855   5.974  0.00  0.00    +0.000 A 
ATOM     16  C   UNL     1      46.095   3.426   6.951  0.00  0.00    +0.000 A 
ENDBRANCH  10  11
ENDBRANCH   9  10
ENDBRANCH   2   9
ENDBRANCH   1   5
BRANCH   1  17
ATOM     17  N   UNL     1      47.161   8.602  12.634  0.00  0.00    +0.000 N 
ATOM     18  C   UNL     1      48.087   9.194  13.454  0.00  0.00    +0.000 C 
ATOM     19  O   UNL     1      47.935   9.242  14.672  0.00  0.00    +0.000 OA
ATOM     20  H   UNL     1      47.209   8.766  11.631  0.00  0.00    +0.000 HD
BRANCH  18  21
ATOM     21  C   UNL     1      49.298   9.724  12.813  0.00  0.00    +0.000 A 
ATOM     22  C   UNL     1      49.610  11.071  12.945  0.00  0.00    +0.000 A 
ATOM     23  S   UNL     1      51.069  11.518  12.184  0.00  0.00    +0.000 S 
ATOM     24  C   UNL     1      51.311   9.937  11.603  0.00  0.00    +0.000 A 
ATOM     25  N   UNL     1      52.392   9.635  10.836  0.00  0.00    +0.000 NA
ATOM     26  C   UNL     1      52.436   8.407  10.436  0.00  0.00    +0.000 A 
ATOM     27  N   UNL     1      51.500   7.454  10.741  0.00  0.00    +0.000 N 
ATOM     28  C   UNL     1      50.408   7.706  11.536  0.00  0.00    +0.000 A 
ATOM     29  O   UNL     1      49.612   6.822  11.830  0.00  0.00    +0.000 OA
ATOM     30  C   UNL     1      50.304   9.076  12.003  0.00  0.00    +0.000 A 
ATOM     31  H   UNL     1      51.596   6.508  10.402  0.00  0.00    +0.000 HD
ENDBRANCH  18  21
ENDBRANCH   1  17
TORSDOF 6
ENDMDL
MODEL 9
REMARK VINA RESULT:    -6.542      3.326      7.897
REMARK INTER + INTRA:          -9.809
REMARK INTER:                  -8.699
REMARK INTRA:                  -1.109
REMARK UNBOUND:                -0.972
REMARK  Name = 
REMARK  7 active torsions:
REMARK  status: ('A' for Active; 'I' for Inactive)
REMARK    1  A    between atoms: C_1  and  C_2
REMARK    2  A    between atoms: C_2  and  O_3
REMARK    3  A    between atoms: C_2  and  C_10
REMARK    4  A    between atoms: O_3  and  C_4
REMARK    5  A    between atoms: C_13  and  C_14
REMARK    6  A    between atoms: C_14  and  N_15
REMARK    7  A    between atoms: C_16  and  C_18
REMARK                            x       y       z     vdW  Elec       q    Type
REMARK                         _______ _______ _______ _____ _____    ______ ____
ROOT
ATOM      1  C   UNL     1      49.120   8.659  13.927  0.00  0.00    +0.000 C 
ENDROOT
BRANCH   1   5
ATOM      2  C   UNL     1      49.942   7.148  17.835  0.00  0.00    +0.000 A 
ATOM      3  C   UNL     1      50.808   6.809  16.794  0.00  0.00    +0.000 A 
ATOM      4  C   UNL     1      50.565   7.310  15.514  0.00  0.00    +0.000 A 
ATOM      5  C   UNL     1      49.467   8.143  15.291  0.00  0.00    +0.000 A 
ATOM      6  C   UNL     1      48.660   8.430  16.384  0.00  0.00    +0.000 A 
ATOM      7  N   UNL     1      48.870   7.959  17.635  0.00  0.00    +0.000 NA
BRANCH   2   9
ATOM      8  C   UNL     1      49.937   7.644  20.245  0.00  0.00    +0.000 C 
ATOM      9  C   UNL     1      50.062   6.511  19.220  0.00  0.00    +0.000 C 
BRANCH   9  10
ATOM     10  O   UNL     1      49.029   5.529  19.399  0.00  0.00    +0.000 OA
BRANCH  10  11
ATOM     11  C   UNL     1      48.906   4.520  18.482  0.00  0.00    +0.000 A 
ATOM     12  C   UNL     1      49.889   3.590  18.145  0.00  0.00    +0.000 A 
ATOM     13  C   UNL     1      49.609   2.560  17.239  0.00  0.00    +0.000 A 
ATOM     14  C   UNL     1      48.352   2.467  16.648  0.00  0.00    +0.000 A 
ATOM     15  C   UNL     1      47.370   3.402  16.966  0.00  0.00    +0.000 A 
ATOM     16  C   UNL     1      47.645   4.415  17.887  0.00  0.00    +0.000 A 
ENDBRANCH  10  11
ENDBRANCH   9  10
ENDBRANCH   2   9
ENDBRANCH   1   5
BRANCH   1  17
ATOM     17  N   UNL     1      47.854   8.133  13.476  0.00  0.00    +0.000 N 
ATOM     18  C   UNL     1      47.768   6.908  12.865  0.00  0.00    +0.000 C 
ATOM     19  O   UNL     1      48.753   6.189  12.717  0.00  0.00    +0.000 OA
ATOM     20  H   UNL     1      47.079   8.785  13.392  0.00  0.00    +0.000 HD
BRANCH  18  21
ATOM     21  C   UNL     1      46.431   6.470  12.442  0.00  0.00    +0.000 A 
ATOM     22  C   UNL     1      45.542   7.398  11.916  0.00  0.00    +0.000 A 
ATOM     23  S   UNL     1      44.052   6.725  11.428  0.00  0.00    +0.000 S 
ATOM     24  C   UNL     1      44.521   5.176  11.954  0.00  0.00    +0.000 A 
ATOM     25  N   UNL     1      43.674   4.118  11.847  0.00  0.00    +0.000 NA
ATOM     26  C   UNL     1      44.145   3.009  12.313  0.00  0.00    +0.000 A 
ATOM     27  N   UNL     1      45.388   2.862  12.869  0.00  0.00    +0.000 N 
ATOM     28  C   UNL     1      46.289   3.895  12.971  0.00  0.00    +0.000 A 
ATOM     29  O   UNL     1      47.411   3.723  13.431  0.00  0.00    +0.000 OA
ATOM     30  C   UNL     1      45.805   5.169  12.472  0.00  0.00    +0.000 A 
ATOM     31  H   UNL     1      45.700   1.964  13.209  0.00  0.00    +0.000 HD
ENDBRANCH  18  21
ENDBRANCH   1  17
TORSDOF 6
ENDMDL
