MODEL 1
REMARK VINA RESULT:    -8.087      0.000      0.000
REMARK INTER + INTRA:         -10.391
REMARK INTER:                  -9.978
REMARK INTRA:                  -0.413
REMARK UNBOUND:                -0.413
REMARK  Name = 
REMARK  5 active torsions:
REMARK  status: ('A' for Active; 'I' for Inactive)
REMARK    1  A    between atoms: C_1  and  C_2
REMARK    2  A    between atoms: C_5  and  N_6
REMARK    3  A    between atoms: N_6  and  C_7
REMARK    4  A    between atoms: C_7  and  C_8
REMARK    5  A    between atoms: C_12  and  C_13
REMARK                            x       y       z     vdW  Elec       q    Type
REMARK                         _______ _______ _______ _____ _____    ______ ____
ROOT
ATOM      1  C   UNL     1      44.082   4.888  11.233  0.00  0.00    +0.000 C 
ATOM      2  C   UNL     1      43.259   3.958  12.124  0.00  0.00    +0.000 C 
ATOM      3  C   UNL     1      42.937   5.409  12.098  0.00  0.00    +0.000 C 
ENDROOT
BRANCH   1   4
ATOM      4  C   UNL     1      45.466   5.337  11.707  0.00  0.00    +0.000 A 
ATOM      5  C   UNL     1      46.129   6.418  11.100  0.00  0.00    +0.000 A 
ATOM      6  C   UNL     1      47.250   6.999  11.688  0.00  0.00    +0.000 A 
ATOM      7  C   UNL     1      47.726   6.516  12.906  0.00  0.00    +0.000 A 
ATOM      8  C   UNL     1      47.125   5.413  13.529  0.00  0.00    +0.000 A 
ATOM      9  C   UNL     1      46.039   4.805  12.875  0.00  0.00    +0.000 A 
BRANCH   8  10
ATOM     10  C   UNL     1      47.509   4.979  14.890  0.00  0.00    +0.000 A 
ATOM     11  C   UNL     1      47.270   3.656  15.311  0.00  0.00    +0.000 A 
ATOM     12  C   UNL     1      47.720   3.195  16.549  0.00  0.00    +0.000 A 
ATOM     13  C   UNL     1      48.429   4.044  17.392  0.00  0.00    +0.000 A 
ATOM     14  C   UNL     1      48.678   5.357  17.001  0.00  0.00    +0.000 A 
ATOM     15  C   UNL     1      48.216   5.821  15.765  0.00  0.00    +0.000 A 
ENDBRANCH   8  10
ENDBRANCH   1   4
BRANCH   1  16
ATOM     16  N   UNL     1      43.954   4.636   9.788  0.00  0.00    +0.000 N 
ATOM     17  H   UNL     1      43.016   4.475   9.425  0.00  0.00    +0.000 HD
BRANCH  16  22
ATOM     18  C   UNL     1      47.363   1.287   6.852  0.00  0.00    +0.000 C 
ATOM     19  C   UNL     1      46.488   2.182   7.662  0.00  0.00    +0.000 A 
ATOM     20  C   UNL     1      46.349   3.534   7.384  0.00  0.00    +0.000 A 
ATOM     21  N   UNL     1      45.525   4.364   8.081  0.00  0.00    +0.000 NA
ATOM     22  C   UNL     1      44.818   3.793   9.081  0.00  0.00    +0.000 A 
ATOM     23  C   UNL     1      44.992   2.443   9.370  0.00  0.00    +0.000 A 
ATOM     24  N   UNL     1      45.810   1.611   8.677  0.00  0.00    +0.000 NA
ENDBRANCH  16  22
ENDBRANCH   1  16
TORSDOF 4
ENDMDL
MODEL 2
REMARK VINA RESULT:    -8.045      1.692      3.771
REMARK INTER + INTRA:         -10.339
REMARK INTER:                  -9.415
REMARK INTRA:                  -0.924
REMARK UNBOUND:                -0.413
REMARK  Name = 
REMARK  5 active torsions:
REMARK  status: ('A' for Active; 'I' for Inactive)
REMARK    1  A    between atoms: C_1  and  C_2
REMARK    2  A    between atoms: C_5  and  N_6
REMARK    3  A    between atoms: N_6  and  C_7
REMARK    4  A    between atoms: C_7  and  C_8
REMARK    5  A    between atoms: C_12  and  C_13
REMARK                            x       y       z     vdW  Elec       q    Type
REMARK                         _______ _______ _______ _____ _____    ______ ____
ROOT
ATOM      1  C   UNL     1      43.829   4.971  11.551  0.00  0.00    +0.000 C 
ATOM      2  C   UNL     1      42.462   5.365  12.109  0.00  0.00    +0.000 C 
ATOM      3  C   UNL     1      43.084   6.206  11.052  0.00  0.00    +0.000 C 
ENDROOT
BRANCH   1   4
ATOM      4  C   UNL     1      45.085   5.296  12.365  0.00  0.00    +0.000 A 
ATOM      5  C   UNL     1      45.661   4.347  13.226  0.00  0.00    +0.000 A 
ATOM      6  C   UNL     1      46.936   4.532  13.756  0.00  0.00    +0.000 A 
ATOM      7  C   UNL     1      47.667   5.672  13.425  0.00  0.00    +0.000 A 
ATOM      8  C   UNL     1      47.120   6.668  12.604  0.00  0.00    +0.000 A 
ATOM      9  C   UNL     1      45.805   6.483  12.142  0.00  0.00    +0.000 A 
BRANCH   8  10
ATOM     10  C   UNL     1      47.925   7.806  12.112  0.00  0.00    +0.000 A 
ATOM     11  C   UNL     1      47.393   9.110  12.111  0.00  0.00    +0.000 A 
ATOM     12  C   UNL     1      48.171  10.213  11.754  0.00  0.00    +0.000 A 
ATOM     13  C   UNL     1      49.503  10.038  11.397  0.00  0.00    +0.000 A 
ATOM     14  C   UNL     1      50.055   8.759  11.387  0.00  0.00    +0.000 A 
ATOM     15  C   UNL     1      49.271   7.654  11.734  0.00  0.00    +0.000 A 
ENDBRANCH   8  10
ENDBRANCH   1   4
BRANCH   1  16
ATOM     16  N   UNL     1      43.857   3.693  10.822  0.00  0.00    +0.000 N 
ATOM     17  H   UNL     1      43.871   2.840  11.378  0.00  0.00    +0.000 HD
BRANCH  16  22
ATOM     18  C   UNL     1      47.198   2.740   6.418  0.00  0.00    +0.000 C 
ATOM     19  C   UNL     1      46.276   2.992   7.562  0.00  0.00    +0.000 A 
ATOM     20  C   UNL     1      45.826   1.975   8.392  0.00  0.00    +0.000 A 
ATOM     21  N   UNL     1      45.018   2.185   9.467  0.00  0.00    +0.000 NA
ATOM     22  C   UNL     1      44.671   3.468   9.706  0.00  0.00    +0.000 A 
ATOM     23  C   UNL     1      45.101   4.474   8.846  0.00  0.00    +0.000 A 
ATOM     24  N   UNL     1      45.908   4.271   7.774  0.00  0.00    +0.000 NA
ENDBRANCH  16  22
ENDBRANCH   1  16
TORSDOF 4
ENDMDL
MODEL 3
REMARK VINA RESULT:    -7.893      2.520      6.964
REMARK INTER + INTRA:         -10.151
REMARK INTER:                  -9.483
REMARK INTRA:                  -0.669
REMARK UNBOUND:                -0.413
REMARK  Name = 
REMARK  5 active torsions:
REMARK  status: ('A' for Active; 'I' for Inactive)
REMARK    1  A    between atoms: C_1  and  C_2
REMARK    2  A    between atoms: C_5  and  N_6
REMARK    3  A    between atoms: N_6  and  C_7
REMARK    4  A    between atoms: C_7  and  C_8
REMARK    5  A    between atoms: C_12  and  C_13
REMARK                            x       y       z     vdW  Elec       q    Type
REMARK                         _______ _______ _______ _____ _____    ______ ____
ROOT
ATOM      1  C   UNL     1      46.444   7.110  12.504  0.00  0.00    +0.000 C 
ATOM      2  C   UNL     1      46.679   8.480  11.869  0.00  0.00    +0.000 C 
ATOM      3  C   UNL     1      45.813   8.378  13.073  0.00  0.00    +0.000 C 
ENDROOT
BRANCH   1   4
ATOM      4  C   UNL     1      45.436   6.156  11.858  0.00  0.00    +0.000 A 
ATOM      5  C   UNL     1      44.052   6.364  11.983  0.00  0.00    +0.000 A 
ATOM      6  C   UNL     1      43.142   5.670  11.188  0.00  0.00    +0.000 A 
ATOM      7  C   UNL     1      43.602   4.758  10.239  0.00  0.00    +0.000 A 
ATOM      8  C   UNL     1      44.971   4.484  10.106  0.00  0.00    +0.000 A 
ATOM      9  C   UNL     1      45.857   5.149  10.972  0.00  0.00    +0.000 A 
BRANCH   8  10
ATOM     10  C   UNL     1      45.497   3.643   9.010  0.00  0.00    +0.000 A 
ATOM     11  C   UNL     1      46.138   4.232   7.902  0.00  0.00    +0.000 A 
ATOM     12  C   UNL     1      46.737   3.454   6.910  0.00  0.00    +0.000 A 
ATOM     13  C   UNL     1      46.717   2.067   7.007  0.00  0.00    +0.000 A 
ATOM     14  C   UNL     1      46.089   1.458   8.091  0.00  0.00    +0.000 A 
ATOM     15  C   UNL     1      45.479   2.239   9.078  0.00  0.00    +0.000 A 
ENDBRANCH   8  10
ENDBRANCH   1   4
BRANCH   1  16
ATOM     16  N   UNL     1      47.643   6.476  13.076  0.00  0.00    +0.000 N 
ATOM     17  H   UNL     1      48.283   6.022  12.427  0.00  0.00    +0.000 HD
BRANCH  16  22
ATOM     18  C   UNL     1      47.647   3.339  17.725  0.00  0.00    +0.000 C 
ATOM     19  C   UNL     1      47.611   4.194  16.504  0.00  0.00    +0.000 A 
ATOM     20  C   UNL     1      48.389   5.335  16.373  0.00  0.00    +0.000 A 
ATOM     21  N   UNL     1      48.406   6.108  15.253  0.00  0.00    +0.000 NA
ATOM     22  C   UNL     1      47.615   5.697  14.238  0.00  0.00    +0.000 A 
ATOM     23  C   UNL     1      46.815   4.570  14.395  0.00  0.00    +0.000 A 
ATOM     24  N   UNL     1      46.795   3.795  15.508  0.00  0.00    +0.000 NA
ENDBRANCH  16  22
ENDBRANCH   1  16
TORSDOF 4
ENDMDL
MODEL 4
REMARK VINA RESULT:    -7.636      2.332      4.422
REMARK INTER + INTRA:          -9.834
REMARK INTER:                  -9.645
REMARK INTRA:                  -0.189
REMARK UNBOUND:                -0.413
REMARK  Name = 
REMARK  5 active torsions:
REMARK  status: ('A' for Active; 'I' for Inactive)
REMARK    1  A    between atoms: C_1  and  C_2
REMARK    2  A    between atoms: C_5  and  N_6
REMARK    3  A    between atoms: N_6  and  C_7
REMARK    4  A    between atoms: C_7  and  C_8
REMARK    5  A    between atoms: C_12  and  C_13
REMARK                            x       y       z     vdW  Elec       q    Type
REMARK                         _______ _______ _______ _____ _____    ______ ____
ROOT
ATOM      1  C   UNL     1      43.754   5.120  11.085  0.00  0.00    +0.000 C 
ATOM      2  C   UNL     1      43.124   3.924  11.797  0.00  0.00    +0.000 C 
ATOM      3  C   UNL     1      42.403   5.225  11.789  0.00  0.00    +0.000 C 
ENDROOT
BRANCH   1   4
ATOM      4  C   UNL     1      44.875   5.894  11.783  0.00  0.00    +0.000 A 
ATOM      5  C   UNL     1      46.062   5.257  12.183  0.00  0.00    +0.000 A 
ATOM      6  C   UNL     1      47.181   5.990  12.567  0.00  0.00    +0.000 A 
ATOM      7  C   UNL     1      47.139   7.383  12.549  0.00  0.00    +0.000 A 
ATOM      8  C   UNL     1      45.965   8.066  12.198  0.00  0.00    +0.000 A 
ATOM      9  C   UNL     1      44.833   7.296  11.883  0.00  0.00    +0.000 A 
BRANCH   8  10
ATOM     10  C   UNL     1      45.938   9.533  12.020  0.00  0.00    +0.000 A 
ATOM     11  C   UNL     1      47.138  10.268  11.955  0.00  0.00    +0.000 A 
ATOM     12  C   UNL     1      47.139  11.636  11.678  0.00  0.00    +0.000 A 
ATOM     13  C   UNL     1      45.939  12.301  11.452  0.00  0.00    +0.000 A 
ATOM     14  C   UNL     1      44.737  11.600  11.512  0.00  0.00    +0.000 A 
ATOM     15  C   UNL     1      44.737  10.231  11.800  0.00  0.00    +0.000 A 
ENDBRANCH   8  10
ENDBRANCH   1   4
BRANCH   1  16
ATOM     16  N   UNL     1      43.897   4.969   9.627  0.00  0.00    +0.000 N 
ATOM     17  H   UNL     1      43.042   4.961   9.075  0.00  0.00    +0.000 HD
BRANCH  16  22
ATOM     18  C   UNL     1      47.380   1.332   7.156  0.00  0.00    +0.000 C 
ATOM     19  C   UNL     1      46.482   2.302   7.846  0.00  0.00    +0.000 A 
ATOM     20  C   UNL     1      46.480   3.656   7.545  0.00  0.00    +0.000 A 
ATOM     21  N   UNL     1      45.641   4.555   8.130  0.00  0.00    +0.000 NA
ATOM     22  C   UNL     1      44.775   4.054   9.037  0.00  0.00    +0.000 A 
ATOM     23  C   UNL     1      44.811   2.699   9.354  0.00  0.00    +0.000 A 
ATOM     24  N   UNL     1      45.643   1.799   8.773  0.00  0.00    +0.000 NA
ENDBRANCH  16  22
ENDBRANCH   1  16
TORSDOF 4
ENDMDL
MODEL 5
REMARK VINA RESULT:    -7.208      2.259      3.160
REMARK INTER + INTRA:          -9.306
REMARK INTER:                  -8.917
REMARK INTRA:                  -0.389
REMARK UNBOUND:                -0.413
REMARK  Name = 
REMARK  5 active torsions:
REMARK  status: ('A' for Active; 'I' for Inactive)
REMARK    1  A    between atoms: C_1  and  C_2
REMARK    2  A    between atoms: C_5  and  N_6
REMARK    3  A    between atoms: N_6  and  C_7
REMARK    4  A    between atoms: C_7  and  C_8
REMARK    5  A    between atoms: C_12  and  C_13
REMARK                            x       y       z     vdW  Elec       q    Type
REMARK                         _______ _______ _______ _____ _____    ______ ____
ROOT
ATOM      1  C   UNL     1      44.426   4.137  11.463  0.00  0.00    +0.000 C 
ATOM      2  C   UNL     1      45.105   3.174  12.437  0.00  0.00    +0.000 C 
ATOM      3  C   UNL     1      43.776   3.742  12.787  0.00  0.00    +0.000 C 
ENDROOT
BRANCH   1   4
ATOM      4  C   UNL     1      44.890   5.594  11.415  0.00  0.00    +0.000 A 
ATOM      5  C   UNL     1      43.967   6.652  11.356  0.00  0.00    +0.000 A 
ATOM      6  C   UNL     1      44.361   7.969  11.582  0.00  0.00    +0.000 A 
ATOM      7  C   UNL     1      45.692   8.254  11.885  0.00  0.00    +0.000 A 
ATOM      8  C   UNL     1      46.659   7.239  11.914  0.00  0.00    +0.000 A 
ATOM      9  C   UNL     1      46.241   5.931  11.613  0.00  0.00    +0.000 A 
BRANCH   8  10
ATOM     10  C   UNL     1      48.039   7.487  12.383  0.00  0.00    +0.000 A 
ATOM     11  C   UNL     1      49.075   7.723  11.459  0.00  0.00    +0.000 A 
ATOM     12  C   UNL     1      50.361   8.066  11.880  0.00  0.00    +0.000 A 
ATOM     13  C   UNL     1      50.639   8.190  13.237  0.00  0.00    +0.000 A 
ATOM     14  C   UNL     1      49.633   7.961  14.173  0.00  0.00    +0.000 A 
ATOM     15  C   UNL     1      48.348   7.606  13.750  0.00  0.00    +0.000 A 
ENDBRANCH   8  10
ENDBRANCH   1   4
BRANCH   1  16
ATOM     16  N   UNL     1      44.049   3.546  10.169  0.00  0.00    +0.000 N 
ATOM     17  H   UNL     1      43.378   2.781  10.185  0.00  0.00    +0.000 HD
BRANCH  16  22
ATOM     18  C   UNL     1      47.840   2.340   6.215  0.00  0.00    +0.000 C 
ATOM     19  C   UNL     1      46.801   2.657   7.236  0.00  0.00    +0.000 A 
ATOM     20  C   UNL     1      46.278   1.695   8.086  0.00  0.00    +0.000 A 
ATOM     21  N   UNL     1      45.360   1.966   9.055  0.00  0.00    +0.000 NA
ATOM     22  C   UNL     1      44.977   3.256   9.162  0.00  0.00    +0.000 A 
ATOM     23  C   UNL     1      45.484   4.206   8.280  0.00  0.00    +0.000 A 
ATOM     24  N   UNL     1      46.400   3.942   7.315  0.00  0.00    +0.000 NA
ENDBRANCH  16  22
ENDBRANCH   1  16
TORSDOF 4
ENDMDL
MODEL 6
REMARK VINA RESULT:    -6.905      3.364      7.622
REMARK INTER + INTRA:          -8.932
REMARK INTER:                  -8.025
REMARK INTRA:                  -0.908
REMARK UNBOUND:                -0.413
REMARK  Name = 
REMARK  5 active torsions:
REMARK  status: ('A' for Active; 'I' for Inactive)
REMARK    1  A    between atoms: C_1  and  C_2
REMARK    2  A    between atoms: C_5  and  N_6
REMARK    3  A    between atoms: N_6  and  C_7
REMARK    4  A    between atoms: C_7  and  C_8
REMARK    5  A    between atoms: C_12  and  C_13
REMARK                            x       y       z     vdW  Elec       q    Type
REMARK                         _______ _______ _______ _____ _____    ______ ____
ROOT
ATOM      1  C   UNL     1      48.861   7.800  12.619  0.00  0.00    +0.000 C 
ATOM      2  C   UNL     1      49.716   8.145  11.400  0.00  0.00    +0.000 C 
ATOM      3  C   UNL     1      49.288   9.234  12.319  0.00  0.00    +0.000 C 
ENDROOT
BRANCH   1   4
ATOM      4  C   UNL     1      47.363   7.549  12.428  0.00  0.00    +0.000 A 
ATOM      5  C   UNL     1      46.418   8.557  12.683  0.00  0.00    +0.000 A 
ATOM      6  C   UNL     1      45.096   8.431  12.261  0.00  0.00    +0.000 A 
ATOM      7  C   UNL     1      44.695   7.293  11.563  0.00  0.00    +0.000 A 
ATOM      8  C   UNL     1      45.590   6.241  11.321  0.00  0.00    +0.000 A 
ATOM      9  C   UNL     1      46.898   6.370  11.821  0.00  0.00    +0.000 A 
BRANCH   8  10
ATOM     10  C   UNL     1      45.238   5.098  10.453  0.00  0.00    +0.000 A 
ATOM     11  C   UNL     1      45.656   5.066   9.109  0.00  0.00    +0.000 A 
ATOM     12  C   UNL     1      45.429   3.949   8.302  0.00  0.00    +0.000 A 
ATOM     13  C   UNL     1      44.783   2.834   8.825  0.00  0.00    +0.000 A 
ATOM     14  C   UNL     1      44.356   2.839  10.151  0.00  0.00    +0.000 A 
ATOM     15  C   UNL     1      44.575   3.963  10.954  0.00  0.00    +0.000 A 
ENDBRANCH   8  10
ENDBRANCH   1   4
BRANCH   1  16
ATOM     16  N   UNL     1      49.526   6.951  13.622  0.00  0.00    +0.000 N 
ATOM     17  H   UNL     1      49.712   5.984  13.363  0.00  0.00    +0.000 HD
BRANCH  16  22
ATOM     18  C   UNL     1      48.018   6.911  19.024  0.00  0.00    +0.000 C 
ATOM     19  C   UNL     1      48.461   6.919  17.601  0.00  0.00    +0.000 A 
ATOM     20  C   UNL     1      48.485   5.770  16.824  0.00  0.00    +0.000 A 
ATOM     21  N   UNL     1      48.843   5.758  15.511  0.00  0.00    +0.000 NA
ATOM     22  C   UNL     1      49.175   6.953  14.976  0.00  0.00    +0.000 A 
ATOM     23  C   UNL     1      49.180   8.093  15.776  0.00  0.00    +0.000 A 
ATOM     24  N   UNL     1      48.821   8.110  17.084  0.00  0.00    +0.000 NA
ENDBRANCH  16  22
ENDBRANCH   1  16
TORSDOF 4
ENDMDL
MODEL 7
REMARK VINA RESULT:    -6.572      2.885      4.546
REMARK INTER + INTRA:          -8.522
REMARK INTER:                  -7.658
REMARK INTRA:                  -0.864
REMARK UNBOUND:                -0.413
REMARK  Name = 
REMARK  5 active torsions:
REMARK  status: ('A' for Active; 'I' for Inactive)
REMARK    1  A    between atoms: C_1  and  C_2
REMARK    2  A    between atoms: C_5  and  N_6
REMARK    3  A    between atoms: N_6  and  C_7
REMARK    4  A    between atoms: C_7  and  C_8
REMARK    5  A    between atoms: C_12  and  C_13
REMARK                            x       y       z     vdW  Elec       q    Type
REMARK                         _______ _______ _______ _____ _____    ______ ____
ROOT
ATOM      1  C   UNL     1      47.348   8.003  13.081  0.00  0.00    +0.000 C 
ATOM      2  C   UNL     1      47.809   9.004  12.022  0.00  0.00    +0.000 C 
ATOM      3  C   UNL     1      48.221   7.581  11.902  0.00  0.00    +0.000 C 
ENDROOT
BRANCH   1   4
ATOM      4  C   UNL     1      48.072   7.962  14.429  0.00  0.00    +0.000 A 
ATOM      5  C   UNL     1      48.087   9.078  15.283  0.00  0.00    +0.000 A 
ATOM      6  C   UNL     1      48.503   8.969  16.607  0.00  0.00    +0.000 A 
ATOM      7  C   UNL     1      48.904   7.732  17.110  0.00  0.00    +0.000 A 
ATOM      8  C   UNL     1      48.947   6.598  16.287  0.00  0.00    +0.000 A 
ATOM      9  C   UNL     1      48.588   6.757  14.937  0.00  0.00    +0.000 A 
BRANCH   8  10
ATOM     10  C   UNL     1      49.217   5.249  16.828  0.00  0.00    +0.000 A 
ATOM     11  C   UNL     1      48.232   4.244  16.766  0.00  0.00    +0.000 A 
ATOM     12  C   UNL     1      48.501   2.935  17.170  0.00  0.00    +0.000 A 
ATOM     13  C   UNL     1      49.766   2.599  17.641  0.00  0.00    +0.000 A 
ATOM     14  C   UNL     1      50.758   3.573  17.715  0.00  0.00    +0.000 A 
ATOM     15  C   UNL     1      50.484   4.886  17.320  0.00  0.00    +0.000 A 
ENDBRANCH   8  10
ENDBRANCH   1   4
BRANCH   1  16
ATOM     16  N   UNL     1      45.894   7.780  13.132  0.00  0.00    +0.000 N 
ATOM     17  H   UNL     1      45.400   8.123  13.953  0.00  0.00    +0.000 HD
BRANCH  16  22
ATOM     18  C   UNL     1      43.385   2.977  11.683  0.00  0.00    +0.000 C 
ATOM     19  C   UNL     1      44.087   4.241  12.046  0.00  0.00    +0.000 A 
ATOM     20  C   UNL     1      43.895   5.424  11.347  0.00  0.00    +0.000 A 
ATOM     21  N   UNL     1      44.490   6.601  11.684  0.00  0.00    +0.000 NA
ATOM     22  C   UNL     1      45.294   6.569  12.769  0.00  0.00    +0.000 A 
ATOM     23  C   UNL     1      45.505   5.368  13.440  0.00  0.00    +0.000 A 
ATOM     24  N   UNL     1      44.912   4.193  13.110  0.00  0.00    +0.000 NA
ENDBRANCH  16  22
ENDBRANCH   1  16
TORSDOF 4
ENDMDL
MODEL 8
REMARK VINA RESULT:    -5.922      2.890      4.667
REMARK INTER + INTRA:          -7.720
REMARK INTER:                  -7.135
REMARK INTRA:                  -0.585
REMARK UNBOUND:                -0.413
REMARK  Name = 
REMARK  5 active torsions:
REMARK  status: ('A' for Active; 'I' for Inactive)
REMARK    1  A    between atoms: C_1  and  C_2
REMARK    2  A    between atoms: C_5  and  N_6
REMARK    3  A    between atoms: N_6  and  C_7
REMARK    4  A    between atoms: C_7  and  C_8
REMARK    5  A    between atoms: C_12  and  C_13
REMARK                            x       y       z     vdW  Elec       q    Type
REMARK                         _______ _______ _______ _____ _____    ______ ____
ROOT
ATOM      1  C   UNL     1      47.771   7.541  13.103  0.00  0.00    +0.000 C 
ATOM      2  C   UNL     1      47.909   8.808  12.262  0.00  0.00    +0.000 C 
ATOM      3  C   UNL     1      48.261   7.496  11.659  0.00  0.00    +0.000 C 
ENDROOT
BRANCH   1   4
ATOM      4  C   UNL     1      48.854   7.211  14.133  0.00  0.00    +0.000 A 
ATOM      5  C   UNL     1      50.167   7.694  13.990  0.00  0.00    +0.000 A 
ATOM      6  C   UNL     1      51.079   7.628  15.041  0.00  0.00    +0.000 A 
ATOM      7  C   UNL     1      50.691   7.086  16.265  0.00  0.00    +0.000 A 
ATOM      8  C   UNL     1      49.406   6.553  16.444  0.00  0.00    +0.000 A 
ATOM      9  C   UNL     1      48.533   6.571  15.342  0.00  0.00    +0.000 A 
BRANCH   8  10
ATOM     10  C   UNL     1      48.918   6.115  17.770  0.00  0.00    +0.000 A 
ATOM     11  C   UNL     1      49.379   4.913  18.339  0.00  0.00    +0.000 A 
ATOM     12  C   UNL     1      49.017   4.535  19.633  0.00  0.00    +0.000 A 
ATOM     13  C   UNL     1      48.191   5.356  20.392  0.00  0.00    +0.000 A 
ATOM     14  C   UNL     1      47.718   6.551  19.853  0.00  0.00    +0.000 A 
ATOM     15  C   UNL     1      48.073   6.923  18.552  0.00  0.00    +0.000 A 
ENDBRANCH   8  10
ENDBRANCH   1   4
BRANCH   1  16
ATOM     16  N   UNL     1      46.393   7.208  13.501  0.00  0.00    +0.000 N 
ATOM     17  H   UNL     1      46.166   7.275  14.491  0.00  0.00    +0.000 HD
BRANCH  16  22
ATOM     18  C   UNL     1      43.505   2.839  11.491  0.00  0.00    +0.000 C 
ATOM     19  C   UNL     1      44.305   3.989  12.000  0.00  0.00    +0.000 A 
ATOM     20  C   UNL     1      44.159   5.275  11.499  0.00  0.00    +0.000 A 
ATOM     21  N   UNL     1      44.847   6.349  11.974  0.00  0.00    +0.000 NA
ATOM     22  C   UNL     1      45.698   6.104  12.994  0.00  0.00    +0.000 A 
ATOM     23  C   UNL     1      45.860   4.804  13.464  0.00  0.00    +0.000 A 
ATOM     24  N   UNL     1      45.175   3.730  12.996  0.00  0.00    +0.000 NA
ENDBRANCH  16  22
ENDBRANCH   1  16
TORSDOF 4
ENDMDL
MODEL 9
REMARK VINA RESULT:    -5.816      5.117      7.372
REMARK INTER + INTRA:          -7.589
REMARK INTER:                  -6.534
REMARK INTRA:                  -1.055
REMARK UNBOUND:                -0.413
REMARK  Name = 
REMARK  5 active torsions:
REMARK  status: ('A' for Active; 'I' for Inactive)
REMARK    1  A    between atoms: C_1  and  C_2
REMARK    2  A    between atoms: C_5  and  N_6
REMARK    3  A    between atoms: N_6  and  C_7
REMARK    4  A    between atoms: C_7  and  C_8
REMARK    5  A    between atoms: C_12  and  C_13
REMARK                            x       y       z     vdW  Elec       q    Type
REMARK                         _______ _______ _______ _____ _____    ______ ____
ROOT
ATOM      1  C   UNL     1      48.743   7.142  17.722  0.00  0.00    +0.000 C 
ATOM      2  C   UNL     1      48.574   7.944  19.011  0.00  0.00    +0.000 C 
ATOM      3  C   UNL     1      49.936   7.765  18.442  0.00  0.00    +0.000 C 
ENDROOT
BRANCH   1   4
ATOM      4  C   UNL     1      48.713   5.613  17.789  0.00  0.00    +0.000 A 
ATOM      5  C   UNL     1      47.542   4.894  17.495  0.00  0.00    +0.000 A 
ATOM      6  C   UNL     1      47.573   3.516  17.292  0.00  0.00    +0.000 A 
ATOM      7  C   UNL     1      48.784   2.829  17.367  0.00  0.00    +0.000 A 
ATOM      8  C   UNL     1      49.972   3.495  17.699  0.00  0.00    +0.000 A 
ATOM      9  C   UNL     1      49.895   4.873  17.967  0.00  0.00    +0.000 A 
BRANCH   8  10
ATOM     10  C   UNL     1      51.289   2.825  17.634  0.00  0.00    +0.000 A 
ATOM     11  C   UNL     1      52.470   3.544  17.899  0.00  0.00    +0.000 A 
ATOM     12  C   UNL     1      53.712   2.909  17.950  0.00  0.00    +0.000 A 
ATOM     13  C   UNL     1      53.801   1.537  17.745  0.00  0.00    +0.000 A 
ATOM     14  C   UNL     1      52.649   0.801  17.479  0.00  0.00    +0.000 A 
ATOM     15  C   UNL     1      51.406   1.440  17.417  0.00  0.00    +0.000 A 
ENDBRANCH   8  10
ENDBRANCH   1   4
BRANCH   1  16
ATOM     16  N   UNL     1      48.114   7.740  16.532  0.00  0.00    +0.000 N 
ATOM     17  H   UNL     1      47.115   7.590  16.411  0.00  0.00    +0.000 HD
BRANCH  16  22
ATOM     18  C   UNL     1      50.397   7.677  11.409  0.00  0.00    +0.000 C 
ATOM     19  C   UNL     1      49.821   7.666  12.784  0.00  0.00    +0.000 A 
ATOM     20  C   UNL     1      50.106   8.653  13.716  0.00  0.00    +0.000 A 
ATOM     21  N   UNL     1      49.561   8.689  14.963  0.00  0.00    +0.000 NA
ATOM     22  C   UNL     1      48.694   7.697  15.259  0.00  0.00    +0.000 A 
ATOM     23  C   UNL     1      48.443   6.695  14.327  0.00  0.00    +0.000 A 
ATOM     24  N   UNL     1      48.982   6.655  13.083  0.00  0.00    +0.000 NA
ENDBRANCH  16  22
ENDBRANCH   1  16
TORSDOF 4
ENDMDL
