MODEL 1
REMARK VINA RESULT:    -7.557      0.000      0.000
REMARK INTER + INTRA:         -11.297
REMARK INTER:                 -10.208
REMARK INTRA:                  -1.089
REMARK UNBOUND:                -1.089
REMARK  Name = 
REMARK  7 active torsions:
REMARK  status: ('A' for Active; 'I' for Inactive)
REMARK    1  A    between atoms: C_1  and  C_2
REMARK    2  A    between atoms: C_2  and  N_3
REMARK    3  A    between atoms: C_2  and  C_10
REMARK    4  A    between atoms: N_3  and  C_4
REMARK    5  A    between atoms: C_13  and  C_14
REMARK    6  A    between atoms: C_14  and  N_15
REMARK    7  A    between atoms: C_16  and  C_18
REMARK                            x       y       z     vdW  Elec       q    Type
REMARK                         _______ _______ _______ _____ _____    ______ ____
ROOT
ATOM      1  C   UNL     1      51.503   3.320  17.747  0.00  0.00    +0.000 A 
ATOM      2  C   UNL     1      50.830   2.158  17.325  0.00  0.00    +0.000 A 
ATOM      3  C   UNL     1      49.475   2.172  17.006  0.00  0.00    +0.000 A 
ATOM      4  C   UNL     1      48.756   3.367  17.062  0.00  0.00    +0.000 A 
ATOM      5  C   UNL     1      49.419   4.543  17.430  0.00  0.00    +0.000 A 
ATOM      6  C   UNL     1      50.772   4.517  17.778  0.00  0.00    +0.000 A 
ENDROOT
BRANCH   1   8
ATOM      7  C   UNL     1      53.284   4.469  19.182  0.00  0.00    +0.000 C 
ATOM      8  C   UNL     1      52.921   3.247  18.316  0.00  0.00    +0.000 C 
BRANCH   8   9
ATOM      9  N   UNL     1      53.326   1.937  18.874  0.00  0.00    +0.000 NA
ATOM     10  H   UNL     1      52.593   1.250  18.711  0.00  0.00    +0.000 HD
BRANCH   9  11
ATOM     11  C   UNL     1      54.654   1.399  18.530  0.00  0.00    +0.000 C 
ATOM     12  C   UNL     1      54.906   1.154  17.045  0.00  0.00    +0.000 C 
ATOM     13  C   UNL     1      54.037   0.028  16.503  0.00  0.00    +0.000 C 
ATOM     14  N   UNL     1      54.423  -1.230  17.141  0.00  0.00    +0.000 NA
ATOM     15  C   UNL     1      54.229  -1.157  18.591  0.00  0.00    +0.000 C 
ATOM     16  C   UNL     1      54.917   0.048  19.246  0.00  0.00    +0.000 C 
ATOM     17  H   UNL     1      55.413  -1.399  16.946  0.00  0.00    +0.000 HD
ENDBRANCH   9  11
ENDBRANCH   8   9
ENDBRANCH   1   8
BRANCH   4  18
ATOM     18  C   UNL     1      47.269   3.359  16.866  0.00  0.00    +0.000 C 
BRANCH  18  19
ATOM     19  N   UNL     1      46.901   4.373  15.914  0.00  0.00    +0.000 N 
ATOM     20  C   UNL     1      46.950   4.142  14.572  0.00  0.00    +0.000 C 
ATOM     21  O   UNL     1      47.287   3.061  14.101  0.00  0.00    +0.000 OA
ATOM     22  H   UNL     1      46.842   5.325  16.261  0.00  0.00    +0.000 HD
BRANCH  20  23
ATOM     23  C   UNL     1      46.501   5.247  13.711  0.00  0.00    +0.000 A 
ATOM     24  C   UNL     1      47.313   6.359  13.539  0.00  0.00    +0.000 A 
ATOM     25  S   UNL     1      46.672   7.508  12.455  0.00  0.00    +0.000 S 
ATOM     26  C   UNL     1      45.262   6.587  12.225  0.00  0.00    +0.000 A 
ATOM     27  N   UNL     1      44.262   7.025  11.412  0.00  0.00    +0.000 NA
ATOM     28  C   UNL     1      43.243   6.238  11.356  0.00  0.00    +0.000 A 
ATOM     29  N   UNL     1      43.119   5.050  12.029  0.00  0.00    +0.000 N 
ATOM     30  C   UNL     1      44.110   4.553  12.839  0.00  0.00    +0.000 A 
ATOM     31  O   UNL     1      44.002   3.464  13.393  0.00  0.00    +0.000 OA
ATOM     32  C   UNL     1      45.286   5.405  12.951  0.00  0.00    +0.000 A 
ATOM     33  H   UNL     1      42.303   4.481  11.931  0.00  0.00    +0.000 HD
ENDBRANCH  20  23
ENDBRANCH  18  19
ENDBRANCH   4  18
TORSDOF 6
ENDMDL
MODEL 2
REMARK VINA RESULT:    -7.402      4.114      9.069
REMARK INTER + INTRA:         -11.087
REMARK INTER:                  -9.321
REMARK INTRA:                  -1.767
REMARK UNBOUND:                -1.089
REMARK  Name = 
REMARK  7 active torsions:
REMARK  status: ('A' for Active; 'I' for Inactive)
REMARK    1  A    between atoms: C_1  and  C_2
REMARK    2  A    between atoms: C_2  and  N_3
REMARK    3  A    between atoms: C_2  and  C_10
REMARK    4  A    between atoms: N_3  and  C_4
REMARK    5  A    between atoms: C_13  and  C_14
REMARK    6  A    between atoms: C_14  and  N_15
REMARK    7  A    between atoms: C_16  and  C_18
REMARK                            x       y       z     vdW  Elec       q    Type
REMARK                         _______ _______ _______ _____ _____    ______ ____
ROOT
ATOM      1  C   UNL     1      46.198   7.867  12.000  0.00  0.00    +0.000 A 
ATOM      2  C   UNL     1      46.578   8.934  12.835  0.00  0.00    +0.000 A 
ATOM      3  C   UNL     1      47.845   8.996  13.410  0.00  0.00    +0.000 A 
ATOM      4  C   UNL     1      48.789   8.007  13.132  0.00  0.00    +0.000 A 
ATOM      5  C   UNL     1      48.446   6.965  12.263  0.00  0.00    +0.000 A 
ATOM      6  C   UNL     1      47.164   6.891  11.713  0.00  0.00    +0.000 A 
ENDROOT
BRANCH   1   8
ATOM      7  C   UNL     1      44.108   8.981  11.028  0.00  0.00    +0.000 C 
ATOM      8  C   UNL     1      44.741   7.685  11.567  0.00  0.00    +0.000 C 
BRANCH   8   9
ATOM      9  N   UNL     1      44.451   6.466  10.778  0.00  0.00    +0.000 NA
ATOM     10  H   UNL     1      45.321   6.007  10.517  0.00  0.00    +0.000 HD
BRANCH   9  11
ATOM     11  C   UNL     1      43.469   5.500  11.301  0.00  0.00    +0.000 C 
ATOM     12  C   UNL     1      43.579   5.183  12.790  0.00  0.00    +0.000 C 
ATOM     13  C   UNL     1      44.860   4.429  13.113  0.00  0.00    +0.000 C 
ATOM     14  N   UNL     1      44.824   3.115  12.472  0.00  0.00    +0.000 NA
ATOM     15  C   UNL     1      44.726   3.251  11.016  0.00  0.00    +0.000 C 
ATOM     16  C   UNL     1      43.564   4.142  10.557  0.00  0.00    +0.000 C 
ATOM     17  H   UNL     1      44.002   2.612  12.816  0.00  0.00    +0.000 HD
ENDBRANCH   9  11
ENDBRANCH   8   9
ENDBRANCH   1   8
BRANCH   4  18
ATOM     18  C   UNL     1      50.098   7.990  13.864  0.00  0.00    +0.000 C 
BRANCH  18  19
ATOM     19  N   UNL     1      50.048   7.016  14.920  0.00  0.00    +0.000 N 
ATOM     20  C   UNL     1      49.726   7.365  16.198  0.00  0.00    +0.000 C 
ATOM     21  O   UNL     1      49.442   8.515  16.516  0.00  0.00    +0.000 OA
ATOM     22  H   UNL     1      50.492   6.121  14.738  0.00  0.00    +0.000 HD
BRANCH  20  23
ATOM     23  C   UNL     1      49.664   6.264  17.171  0.00  0.00    +0.000 A 
ATOM     24  C   UNL     1      50.468   6.298  18.302  0.00  0.00    +0.000 A 
ATOM     25  S   UNL     1      50.216   4.982  19.356  0.00  0.00    +0.000 S 
ATOM     26  C   UNL     1      49.069   4.292  18.309  0.00  0.00    +0.000 A 
ATOM     27  N   UNL     1      48.465   3.109  18.610  0.00  0.00    +0.000 NA
ATOM     28  C   UNL     1      47.640   2.693  17.712  0.00  0.00    +0.000 A 
ATOM     29  N   UNL     1      47.349   3.340  16.538  0.00  0.00    +0.000 N 
ATOM     30  C   UNL     1      47.911   4.547  16.202  0.00  0.00    +0.000 A 
ATOM     31  O   UNL     1      47.601   5.135  15.172  0.00  0.00    +0.000 OA
ATOM     32  C   UNL     1      48.863   5.065  17.176  0.00  0.00    +0.000 A 
ATOM     33  H   UNL     1      46.689   2.965  15.889  0.00  0.00    +0.000 HD
ENDBRANCH  20  23
ENDBRANCH  18  19
ENDBRANCH   4  18
TORSDOF 6
ENDMDL
MODEL 3
REMARK VINA RESULT:    -7.372      4.499      9.394
REMARK INTER + INTRA:         -11.047
REMARK INTER:                  -9.865
REMARK INTRA:                  -1.182
REMARK UNBOUND:                -1.089
REMARK  Name = 
REMARK  7 active torsions:
REMARK  status: ('A' for Active; 'I' for Inactive)
REMARK    1  A    between atoms: C_1  and  C_2
REMARK    2  A    between atoms: C_2  and  N_3
REMARK    3  A    between atoms: C_2  and  C_10
REMARK    4  A    between atoms: N_3  and  C_4
REMARK    5  A    between atoms: C_13  and  C_14
REMARK    6  A    between atoms: C_14  and  N_15
REMARK    7  A    between atoms: C_16  and  C_18
REMARK                            x       y       z     vdW  Elec       q    Type
REMARK                         _______ _______ _______ _____ _____    ______ ____
ROOT
ATOM      1  C   UNL     1      45.300   4.107   9.721  0.00  0.00    +0.000 A 
ATOM      2  C   UNL     1      44.727   3.992  11.001  0.00  0.00    +0.000 A 
ATOM      3  C   UNL     1      44.756   5.044  11.912  0.00  0.00    +0.000 A 
ATOM      4  C   UNL     1      45.328   6.265  11.553  0.00  0.00    +0.000 A 
ATOM      5  C   UNL     1      45.858   6.415  10.267  0.00  0.00    +0.000 A 
ATOM      6  C   UNL     1      45.853   5.347   9.367  0.00  0.00    +0.000 A 
ENDROOT
BRANCH   1   8
ATOM      7  C   UNL     1      44.430   1.781   9.099  0.00  0.00    +0.000 C 
ATOM      8  C   UNL     1      45.471   2.882   8.821  0.00  0.00    +0.000 C 
BRANCH   8   9
ATOM      9  N   UNL     1      45.722   3.164   7.389  0.00  0.00    +0.000 NA
ATOM     10  H   UNL     1      45.314   4.061   7.136  0.00  0.00    +0.000 HD
BRANCH   9  11
ATOM     11  C   UNL     1      47.096   3.033   6.871  0.00  0.00    +0.000 C 
ATOM     12  C   UNL     1      47.252   3.181   5.360  0.00  0.00    +0.000 C 
ATOM     13  C   UNL     1      46.597   2.030   4.610  0.00  0.00    +0.000 C 
ATOM     14  N   UNL     1      47.302   0.787   4.920  0.00  0.00    +0.000 NA
ATOM     15  C   UNL     1      47.236   0.497   6.355  0.00  0.00    +0.000 C 
ATOM     16  C   UNL     1      47.709   1.657   7.241  0.00  0.00    +0.000 C 
ATOM     17  H   UNL     1      48.282   0.896   4.647  0.00  0.00    +0.000 HD
ENDBRANCH   9  11
ENDBRANCH   8   9
ENDBRANCH   1   8
BRANCH   4  18
ATOM     18  C   UNL     1      45.496   7.348  12.578  0.00  0.00    +0.000 C 
BRANCH  18  19
ATOM     19  N   UNL     1      46.301   6.863  13.666  0.00  0.00    +0.000 N 
ATOM     20  C   UNL     1      47.663   6.930  13.630  0.00  0.00    +0.000 C 
ATOM     21  O   UNL     1      48.274   7.422  12.688  0.00  0.00    +0.000 OA
ATOM     22  H   UNL     1      45.843   6.257  14.339  0.00  0.00    +0.000 HD
BRANCH  20  23
ATOM     23  C   UNL     1      48.363   6.444  14.829  0.00  0.00    +0.000 A 
ATOM     24  C   UNL     1      49.460   7.142  15.316  0.00  0.00    +0.000 A 
ATOM     25  S   UNL     1      50.104   6.482  16.749  0.00  0.00    +0.000 S 
ATOM     26  C   UNL     1      48.978   5.209  16.735  0.00  0.00    +0.000 A 
ATOM     27  N   UNL     1      48.995   4.246  17.698  0.00  0.00    +0.000 NA
ATOM     28  C   UNL     1      48.102   3.329  17.543  0.00  0.00    +0.000 A 
ATOM     29  N   UNL     1      47.187   3.274  16.524  0.00  0.00    +0.000 N 
ATOM     30  C   UNL     1      47.113   4.234  15.545  0.00  0.00    +0.000 A 
ATOM     31  O   UNL     1      46.255   4.195  14.670  0.00  0.00    +0.000 OA
ATOM     32  C   UNL     1      48.106   5.294  15.660  0.00  0.00    +0.000 A 
ATOM     33  H   UNL     1      46.514   2.538  16.471  0.00  0.00    +0.000 HD
ENDBRANCH  20  23
ENDBRANCH  18  19
ENDBRANCH   4  18
TORSDOF 6
ENDMDL
MODEL 4
REMARK VINA RESULT:    -7.118      4.180      5.846
REMARK INTER + INTRA:         -10.703
REMARK INTER:                  -9.253
REMARK INTRA:                  -1.450
REMARK UNBOUND:                -1.089
REMARK  Name = 
REMARK  7 active torsions:
REMARK  status: ('A' for Active; 'I' for Inactive)
REMARK    1  A    between atoms: C_1  and  C_2
REMARK    2  A    between atoms: C_2  and  N_3
REMARK    3  A    between atoms: C_2  and  C_10
REMARK    4  A    between atoms: N_3  and  C_4
REMARK    5  A    between atoms: C_13  and  C_14
REMARK    6  A    between atoms: C_14  and  N_15
REMARK    7  A    between atoms: C_16  and  C_18
REMARK                            x       y       z     vdW  Elec       q    Type
REMARK                         _______ _______ _______ _____ _____    ______ ____
ROOT
ATOM      1  C   UNL     1      49.320   8.037  15.777  0.00  0.00    +0.000 A 
ATOM      2  C   UNL     1      49.951   7.305  14.753  0.00  0.00    +0.000 A 
ATOM      3  C   UNL     1      49.454   7.291  13.452  0.00  0.00    +0.000 A 
ATOM      4  C   UNL     1      48.327   8.046  13.125  0.00  0.00    +0.000 A 
ATOM      5  C   UNL     1      47.716   8.820  14.118  0.00  0.00    +0.000 A 
ATOM      6  C   UNL     1      48.200   8.807  15.428  0.00  0.00    +0.000 A 
ENDROOT
BRANCH   1   8
ATOM      7  C   UNL     1      49.161   8.956  18.160  0.00  0.00    +0.000 C 
ATOM      8  C   UNL     1      49.731   7.860  17.240  0.00  0.00    +0.000 C 
BRANCH   8   9
ATOM      9  N   UNL     1      49.643   6.481  17.772  0.00  0.00    +0.000 NA
ATOM     10  H   UNL     1      50.173   6.410  18.638  0.00  0.00    +0.000 HD
BRANCH   9  11
ATOM     11  C   UNL     1      48.316   5.854  17.902  0.00  0.00    +0.000 C 
ATOM     12  C   UNL     1      47.810   5.661  19.328  0.00  0.00    +0.000 C 
ATOM     13  C   UNL     1      48.640   4.635  20.087  0.00  0.00    +0.000 C 
ATOM     14  N   UNL     1      48.469   3.321  19.468  0.00  0.00    +0.000 NA
ATOM     15  C   UNL     1      48.924   3.341  18.075  0.00  0.00    +0.000 C 
ATOM     16  C   UNL     1      48.286   4.455  17.234  0.00  0.00    +0.000 C 
ATOM     17  H   UNL     1      47.475   3.082  19.490  0.00  0.00    +0.000 HD
ENDBRANCH   9  11
ENDBRANCH   8   9
ENDBRANCH   1   8
BRANCH   4  18
ATOM     18  C   UNL     1      47.702   7.916  11.768  0.00  0.00    +0.000 C 
BRANCH  18  19
ATOM     19  N   UNL     1      46.980   6.675  11.685  0.00  0.00    +0.000 N 
ATOM     20  C   UNL     1      45.618   6.640  11.717  0.00  0.00    +0.000 C 
ATOM     21  O   UNL     1      44.933   7.654  11.797  0.00  0.00    +0.000 OA
ATOM     22  H   UNL     1      47.511   5.825  11.847  0.00  0.00    +0.000 HD
BRANCH  20  23
ATOM     23  C   UNL     1      45.004   5.310  11.574  0.00  0.00    +0.000 A 
ATOM     24  C   UNL     1      44.333   4.743  12.648  0.00  0.00    +0.000 A 
ATOM     25  S   UNL     1      43.623   3.236  12.288  0.00  0.00    +0.000 S 
ATOM     26  C   UNL     1      44.238   3.263  10.703  0.00  0.00    +0.000 A 
ATOM     27  N   UNL     1      44.011   2.231   9.845  0.00  0.00    +0.000 NA
ATOM     28  C   UNL     1      44.562   2.375   8.688  0.00  0.00    +0.000 A 
ATOM     29  N   UNL     1      45.316   3.450   8.295  0.00  0.00    +0.000 N 
ATOM     30  C   UNL     1      45.550   4.527   9.115  0.00  0.00    +0.000 A 
ATOM     31  O   UNL     1      46.185   5.502   8.729  0.00  0.00    +0.000 OA
ATOM     32  C   UNL     1      44.961   4.417  10.443  0.00  0.00    +0.000 A 
ATOM     33  H   UNL     1      45.706   3.503   7.377  0.00  0.00    +0.000 HD
ENDBRANCH  20  23
ENDBRANCH  18  19
ENDBRANCH   4  18
TORSDOF 6
ENDMDL
MODEL 5
REMARK VINA RESULT:    -6.900      4.620      9.376
REMARK INTER + INTRA:         -10.409
REMARK INTER:                  -9.376
REMARK INTRA:                  -1.033
REMARK UNBOUND:                -1.089
REMARK  Name = 
REMARK  7 active torsions:
REMARK  status: ('A' for Active; 'I' for Inactive)
REMARK    1  A    between atoms: C_1  and  C_2
REMARK    2  A    between atoms: C_2  and  N_3
REMARK    3  A    between atoms: C_2  and  C_10
REMARK    4  A    between atoms: N_3  and  C_4
REMARK    5  A    between atoms: C_13  and  C_14
REMARK    6  A    between atoms: C_14  and  N_15
REMARK    7  A    between atoms: C_16  and  C_18
REMARK                            x       y       z     vdW  Elec       q    Type
REMARK                         _______ _______ _______ _____ _____    ______ ____
ROOT
ATOM      1  C   UNL     1      45.622   4.764  12.124  0.00  0.00    +0.000 A 
ATOM      2  C   UNL     1      45.783   6.020  11.509  0.00  0.00    +0.000 A 
ATOM      3  C   UNL     1      46.579   7.013  12.071  0.00  0.00    +0.000 A 
ATOM      4  C   UNL     1      47.276   6.765  13.254  0.00  0.00    +0.000 A 
ATOM      5  C   UNL     1      47.170   5.506  13.855  0.00  0.00    +0.000 A 
ATOM      6  C   UNL     1      46.345   4.522  13.302  0.00  0.00    +0.000 A 
ENDROOT
BRANCH   1   8
ATOM      7  C   UNL     1      43.243   4.449  11.234  0.00  0.00    +0.000 C 
ATOM      8  C   UNL     1      44.569   3.772  11.628  0.00  0.00    +0.000 C 
BRANCH   8   9
ATOM      9  N   UNL     1      45.052   2.736  10.687  0.00  0.00    +0.000 NA
ATOM     10  H   UNL     1      45.059   1.827  11.145  0.00  0.00    +0.000 HD
BRANCH   9  11
ATOM     11  C   UNL     1      44.444   2.657   9.347  0.00  0.00    +0.000 C 
ATOM     12  C   UNL     1      44.810   1.425   8.523  0.00  0.00    +0.000 C 
ATOM     13  C   UNL     1      46.279   1.428   8.126  0.00  0.00    +0.000 C 
ATOM     14  N   UNL     1      46.533   2.548   7.221  0.00  0.00    +0.000 NA
ATOM     15  C   UNL     1      46.232   3.824   7.877  0.00  0.00    +0.000 C 
ATOM     16  C   UNL     1      44.824   3.888   8.483  0.00  0.00    +0.000 C 
ATOM     17  H   UNL     1      45.928   2.444   6.402  0.00  0.00    +0.000 HD
ENDBRANCH   9  11
ENDBRANCH   8   9
ENDBRANCH   1   8
BRANCH   4  18
ATOM     18  C   UNL     1      48.013   7.877  13.941  0.00  0.00    +0.000 C 
BRANCH  18  19
ATOM     19  N   UNL     1      48.047   7.632  15.357  0.00  0.00    +0.000 N 
ATOM     20  C   UNL     1      48.902   8.306  16.178  0.00  0.00    +0.000 C 
ATOM     21  O   UNL     1      49.671   9.168  15.764  0.00  0.00    +0.000 OA
ATOM     22  H   UNL     1      47.597   6.783  15.685  0.00  0.00    +0.000 HD
BRANCH  20  23
ATOM     23  C   UNL     1      48.799   7.995  17.611  0.00  0.00    +0.000 A 
ATOM     24  C   UNL     1      48.558   9.014  18.522  0.00  0.00    +0.000 A 
ATOM     25  S   UNL     1      48.396   8.468  20.128  0.00  0.00    +0.000 S 
ATOM     26  C   UNL     1      48.702   6.860  19.671  0.00  0.00    +0.000 A 
ATOM     27  N   UNL     1      48.735   5.861  20.595  0.00  0.00    +0.000 NA
ATOM     28  C   UNL     1      49.007   4.699  20.108  0.00  0.00    +0.000 A 
ATOM     29  N   UNL     1      49.247   4.427  18.786  0.00  0.00    +0.000 N 
ATOM     30  C   UNL     1      49.199   5.395  17.813  0.00  0.00    +0.000 A 
ATOM     31  O   UNL     1      49.367   5.125  16.629  0.00  0.00    +0.000 OA
ATOM     32  C   UNL     1      48.906   6.735  18.304  0.00  0.00    +0.000 A 
ATOM     33  H   UNL     1      49.441   3.498  18.474  0.00  0.00    +0.000 HD
ENDBRANCH  20  23
ENDBRANCH  18  19
ENDBRANCH   4  18
TORSDOF 6
ENDMDL
MODEL 6
REMARK VINA RESULT:    -6.900      3.081      4.879
REMARK INTER + INTRA:         -10.409
REMARK INTER:                  -9.164
REMARK INTRA:                  -1.245
REMARK UNBOUND:                -1.089
REMARK  Name = 
REMARK  7 active torsions:
REMARK  status: ('A' for Active; 'I' for Inactive)
REMARK    1  A    between atoms: C_1  and  C_2
REMARK    2  A    between atoms: C_2  and  N_3
REMARK    3  A    between atoms: C_2  and  C_10
REMARK    4  A    between atoms: N_3  and  C_4
REMARK    5  A    between atoms: C_13  and  C_14
REMARK    6  A    between atoms: C_14  and  N_15
REMARK    7  A    between atoms: C_16  and  C_18
REMARK                            x       y       z     vdW  Elec       q    Type
REMARK                         _______ _______ _______ _____ _____    ______ ____
ROOT
ATOM      1  C   UNL     1      50.248   7.222  15.440  0.00  0.00    +0.000 A 
ATOM      2  C   UNL     1      50.654   8.001  14.340  0.00  0.00    +0.000 A 
ATOM      3  C   UNL     1      49.827   8.197  13.238  0.00  0.00    +0.000 A 
ATOM      4  C   UNL     1      48.543   7.650  13.220  0.00  0.00    +0.000 A 
ATOM      5  C   UNL     1      48.102   6.915  14.326  0.00  0.00    +0.000 A 
ATOM      6  C   UNL     1      48.947   6.695  15.417  0.00  0.00    +0.000 A 
ENDROOT
BRANCH   1   8
ATOM      7  C   UNL     1      51.087   7.649  17.820  0.00  0.00    +0.000 C 
ATOM      8  C   UNL     1      51.242   6.820  16.531  0.00  0.00    +0.000 C 
BRANCH   8   9
ATOM      9  N   UNL     1      51.420   5.364  16.736  0.00  0.00    +0.000 NA
ATOM     10  H   UNL     1      52.368   5.092  16.486  0.00  0.00    +0.000 HD
BRANCH   9  11
ATOM     11  C   UNL     1      51.014   4.774  18.024  0.00  0.00    +0.000 C 
ATOM     12  C   UNL     1      52.041   3.861  18.688  0.00  0.00    +0.000 C 
ATOM     13  C   UNL     1      52.258   2.583  17.892  0.00  0.00    +0.000 C 
ATOM     14  N   UNL     1      51.026   1.795  17.897  0.00  0.00    +0.000 NA
ATOM     15  C   UNL     1      49.930   2.542  17.276  0.00  0.00    +0.000 C 
ATOM     16  C   UNL     1      49.716   3.938  17.877  0.00  0.00    +0.000 C 
ATOM     17  H   UNL     1      50.780   1.588  18.868  0.00  0.00    +0.000 HD
ENDBRANCH   9  11
ENDBRANCH   8   9
ENDBRANCH   1   8
BRANCH   4  18
ATOM     18  C   UNL     1      47.708   7.732  11.977  0.00  0.00    +0.000 C 
BRANCH  18  19
ATOM     19  N   UNL     1      46.981   6.504  11.801  0.00  0.00    +0.000 N 
ATOM     20  C   UNL     1      45.618   6.472  11.826  0.00  0.00    +0.000 C 
ATOM     21  O   UNL     1      44.938   7.480  11.978  0.00  0.00    +0.000 OA
ATOM     22  H   UNL     1      47.508   5.642  11.902  0.00  0.00    +0.000 HD
BRANCH  20  23
ATOM     23  C   UNL     1      45.001   5.159  11.584  0.00  0.00    +0.000 A 
ATOM     24  C   UNL     1      44.312   4.523  12.608  0.00  0.00    +0.000 A 
ATOM     25  S   UNL     1      43.600   3.048  12.135  0.00  0.00    +0.000 S 
ATOM     26  C   UNL     1      44.236   3.180  10.564  0.00  0.00    +0.000 A 
ATOM     27  N   UNL     1      44.017   2.211   9.634  0.00  0.00    +0.000 NA
ATOM     28  C   UNL     1      44.584   2.431   8.498  0.00  0.00    +0.000 A 
ATOM     29  N   UNL     1      45.348   3.526   8.189  0.00  0.00    +0.000 N 
ATOM     30  C   UNL     1      45.576   4.543   9.084  0.00  0.00    +0.000 A 
ATOM     31  O   UNL     1      46.221   5.539   8.775  0.00  0.00    +0.000 OA
ATOM     32  C   UNL     1      44.969   4.346  10.393  0.00  0.00    +0.000 A 
ATOM     33  H   UNL     1      45.750   3.640   7.282  0.00  0.00    +0.000 HD
ENDBRANCH  20  23
ENDBRANCH  18  19
ENDBRANCH   4  18
TORSDOF 6
ENDMDL
MODEL 7
REMARK VINA RESULT:    -6.889      4.755      9.698
REMARK INTER + INTRA:         -10.394
REMARK INTER:                  -9.390
REMARK INTRA:                  -1.003
REMARK UNBOUND:                -1.089
REMARK  Name = 
REMARK  7 active torsions:
REMARK  status: ('A' for Active; 'I' for Inactive)
REMARK    1  A    between atoms: C_1  and  C_2
REMARK    2  A    between atoms: C_2  and  N_3
REMARK    3  A    between atoms: C_2  and  C_10
REMARK    4  A    between atoms: N_3  and  C_4
REMARK    5  A    between atoms: C_13  and  C_14
REMARK    6  A    between atoms: C_14  and  N_15
REMARK    7  A    between atoms: C_16  and  C_18
REMARK                            x       y       z     vdW  Elec       q    Type
REMARK                         _______ _______ _______ _____ _____    ______ ____
ROOT
ATOM      1  C   UNL     1      45.316   3.748   9.709  0.00  0.00    +0.000 A 
ATOM      2  C   UNL     1      44.943   3.502  11.043  0.00  0.00    +0.000 A 
ATOM      3  C   UNL     1      45.069   4.476  12.029  0.00  0.00    +0.000 A 
ATOM      4  C   UNL     1      45.537   5.749  11.699  0.00  0.00    +0.000 A 
ATOM      5  C   UNL     1      45.865   6.028  10.368  0.00  0.00    +0.000 A 
ATOM      6  C   UNL     1      45.766   5.038   9.388  0.00  0.00    +0.000 A 
ENDROOT
BRANCH   1   8
ATOM      7  C   UNL     1      44.278   1.564   8.867  0.00  0.00    +0.000 C 
ATOM      8  C   UNL     1      45.396   2.609   8.689  0.00  0.00    +0.000 C 
BRANCH   8   9
ATOM      9  N   UNL     1      45.663   3.014   7.290  0.00  0.00    +0.000 NA
ATOM     10  H   UNL     1      45.257   3.930   7.111  0.00  0.00    +0.000 HD
BRANCH   9  11
ATOM     11  C   UNL     1      47.043   2.929   6.779  0.00  0.00    +0.000 C 
ATOM     12  C   UNL     1      47.199   3.054   5.266  0.00  0.00    +0.000 C 
ATOM     13  C   UNL     1      46.593   1.864   4.536  0.00  0.00    +0.000 C 
ATOM     14  N   UNL     1      47.347   0.657   4.872  0.00  0.00    +0.000 NA
ATOM     15  C   UNL     1      47.286   0.391   6.312  0.00  0.00    +0.000 C 
ATOM     16  C   UNL     1      47.709   1.586   7.177  0.00  0.00    +0.000 C 
ATOM     17  H   UNL     1      48.322   0.800   4.601  0.00  0.00    +0.000 HD
ENDBRANCH   9  11
ENDBRANCH   8   9
ENDBRANCH   1   8
BRANCH   4  18
ATOM     18  C   UNL     1      45.816   6.751  12.780  0.00  0.00    +0.000 C 
BRANCH  18  19
ATOM     19  N   UNL     1      46.239   6.070  13.973  0.00  0.00    +0.000 N 
ATOM     20  C   UNL     1      47.537   5.696  14.160  0.00  0.00    +0.000 C 
ATOM     21  O   UNL     1      48.416   5.935  13.338  0.00  0.00    +0.000 OA
ATOM     22  H   UNL     1      45.509   5.665  14.552  0.00  0.00    +0.000 HD
BRANCH  20  23
ATOM     23  C   UNL     1      47.843   5.052  15.446  0.00  0.00    +0.000 A 
ATOM     24  C   UNL     1      47.443   3.742  15.672  0.00  0.00    +0.000 A 
ATOM     25  S   UNL     1      47.942   3.129  17.182  0.00  0.00    +0.000 S 
ATOM     26  C   UNL     1      48.658   4.610  17.609  0.00  0.00    +0.000 A 
ATOM     27  N   UNL     1      49.259   4.776  18.819  0.00  0.00    +0.000 NA
ATOM     28  C   UNL     1      49.732   5.959  19.016  0.00  0.00    +0.000 A 
ATOM     29  N   UNL     1      49.671   6.999  18.125  0.00  0.00    +0.000 N 
ATOM     30  C   UNL     1      49.100   6.873  16.882  0.00  0.00    +0.000 A 
ATOM     31  O   UNL     1      49.099   7.799  16.078  0.00  0.00    +0.000 OA
ATOM     32  C   UNL     1      48.536   5.559  16.604  0.00  0.00    +0.000 A 
ATOM     33  H   UNL     1      50.069   7.890  18.338  0.00  0.00    +0.000 HD
ENDBRANCH  20  23
ENDBRANCH  18  19
ENDBRANCH   4  18
TORSDOF 6
ENDMDL
MODEL 8
REMARK VINA RESULT:    -6.816      4.324      5.653
REMARK INTER + INTRA:         -10.296
REMARK INTER:                  -9.600
REMARK INTRA:                  -0.696
REMARK UNBOUND:                -1.089
REMARK  Name = 
REMARK  7 active torsions:
REMARK  status: ('A' for Active; 'I' for Inactive)
REMARK    1  A    between atoms: C_1  and  C_2
REMARK    2  A    between atoms: C_2  and  N_3
REMARK    3  A    between atoms: C_2  and  C_10
REMARK    4  A    between atoms: N_3  and  C_4
REMARK    5  A    between atoms: C_13  and  C_14
REMARK    6  A    between atoms: C_14  and  N_15
REMARK    7  A    between atoms: C_16  and  C_18
REMARK                            x       y       z     vdW  Elec       q    Type
REMARK                         _______ _______ _______ _____ _____    ______ ____
ROOT
ATOM      1  C   UNL     1      49.024   8.467  17.312  0.00  0.00    +0.000 A 
ATOM      2  C   UNL     1      49.982   7.525  16.894  0.00  0.00    +0.000 A 
ATOM      3  C   UNL     1      50.166   7.216  15.550  0.00  0.00    +0.000 A 
ATOM      4  C   UNL     1      49.420   7.875  14.572  0.00  0.00    +0.000 A 
ATOM      5  C   UNL     1      48.498   8.851  14.964  0.00  0.00    +0.000 A 
ATOM      6  C   UNL     1      48.295   9.136  16.317  0.00  0.00    +0.000 A 
ENDROOT
BRANCH   1   8
ATOM      7  C   UNL     1      47.367   9.424  19.013  0.00  0.00    +0.000 C 
ATOM      8  C   UNL     1      48.666   8.626  18.791  0.00  0.00    +0.000 C 
BRANCH   8   9
ATOM      9  N   UNL     1      48.808   7.410  19.623  0.00  0.00    +0.000 NA
ATOM     10  H   UNL     1      49.262   7.643  20.504  0.00  0.00    +0.000 HD
BRANCH   9  11
ATOM     11  C   UNL     1      47.627   6.556  19.838  0.00  0.00    +0.000 C 
ATOM     12  C   UNL     1      47.519   5.906  21.215  0.00  0.00    +0.000 C 
ATOM     13  C   UNL     1      48.613   4.871  21.438  0.00  0.00    +0.000 C 
ATOM     14  N   UNL     1      48.425   3.761  20.506  0.00  0.00    +0.000 NA
ATOM     15  C   UNL     1      48.510   4.227  19.119  0.00  0.00    +0.000 C 
ATOM     16  C   UNL     1      47.572   5.400  18.805  0.00  0.00    +0.000 C 
ATOM     17  H   UNL     1      47.498   3.359  20.666  0.00  0.00    +0.000 HD
ENDBRANCH   9  11
ENDBRANCH   8   9
ENDBRANCH   1   8
BRANCH   4  18
ATOM     18  C   UNL     1      49.508   7.441  13.139  0.00  0.00    +0.000 C 
BRANCH  18  19
ATOM     19  N   UNL     1      48.189   7.164  12.636  0.00  0.00    +0.000 N 
ATOM     20  C   UNL     1      47.524   6.021  12.969  0.00  0.00    +0.000 C 
ATOM     21  O   UNL     1      47.998   5.179  13.725  0.00  0.00    +0.000 OA
ATOM     22  H   UNL     1      47.876   7.719  11.846  0.00  0.00    +0.000 HD
BRANCH  20  23
ATOM     23  C   UNL     1      46.164   5.886  12.425  0.00  0.00    +0.000 A 
ATOM     24  C   UNL     1      45.508   7.003  11.928  0.00  0.00    +0.000 A 
ATOM     25  S   UNL     1      43.973   6.654  11.273  0.00  0.00    +0.000 S 
ATOM     26  C   UNL     1      44.109   5.011  11.685  0.00  0.00    +0.000 A 
ATOM     27  N   UNL     1      43.102   4.135  11.418  0.00  0.00    +0.000 NA
ATOM     28  C   UNL     1      43.332   2.929  11.812  0.00  0.00    +0.000 A 
ATOM     29  N   UNL     1      44.471   2.503  12.444  0.00  0.00    +0.000 N 
ATOM     30  C   UNL     1      45.526   3.343  12.711  0.00  0.00    +0.000 A 
ATOM     31  O   UNL     1      46.557   2.933  13.232  0.00  0.00    +0.000 OA
ATOM     32  C   UNL     1      45.320   4.724  12.298  0.00  0.00    +0.000 A 
ATOM     33  H   UNL     1      44.589   1.549  12.713  0.00  0.00    +0.000 HD
ENDBRANCH  20  23
ENDBRANCH  18  19
ENDBRANCH   4  18
TORSDOF 6
ENDMDL
MODEL 9
REMARK VINA RESULT:    -6.762      1.780      3.435
REMARK INTER + INTRA:         -10.222
REMARK INTER:                  -9.105
REMARK INTRA:                  -1.117
REMARK UNBOUND:                -1.089
REMARK  Name = 
REMARK  7 active torsions:
REMARK  status: ('A' for Active; 'I' for Inactive)
REMARK    1  A    between atoms: C_1  and  C_2
REMARK    2  A    between atoms: C_2  and  N_3
REMARK    3  A    between atoms: C_2  and  C_10
REMARK    4  A    between atoms: N_3  and  C_4
REMARK    5  A    between atoms: C_13  and  C_14
REMARK    6  A    between atoms: C_14  and  N_15
REMARK    7  A    between atoms: C_16  and  C_18
REMARK                            x       y       z     vdW  Elec       q    Type
REMARK                         _______ _______ _______ _____ _____    ______ ____
ROOT
ATOM      1  C   UNL     1      51.509   3.606  17.793  0.00  0.00    +0.000 A 
ATOM      2  C   UNL     1      50.905   2.401  17.388  0.00  0.00    +0.000 A 
ATOM      3  C   UNL     1      49.560   2.340  17.036  0.00  0.00    +0.000 A 
ATOM      4  C   UNL     1      48.783   3.499  17.038  0.00  0.00    +0.000 A 
ATOM      5  C   UNL     1      49.378   4.716  17.388  0.00  0.00    +0.000 A 
ATOM      6  C   UNL     1      50.721   4.767  17.770  0.00  0.00    +0.000 A 
ENDROOT
BRANCH   1   8
ATOM      7  C   UNL     1      53.860   2.593  17.748  0.00  0.00    +0.000 C 
ATOM      8  C   UNL     1      52.914   3.620  18.400  0.00  0.00    +0.000 C 
BRANCH   8   9
ATOM      9  N   UNL     1      53.502   4.958  18.634  0.00  0.00    +0.000 NA
ATOM     10  H   UNL     1      52.858   5.680  18.317  0.00  0.00    +0.000 HD
BRANCH   9  11
ATOM     11  C   UNL     1      54.044   5.270  19.969  0.00  0.00    +0.000 C 
ATOM     12  C   UNL     1      53.218   4.774  21.153  0.00  0.00    +0.000 C 
ATOM     13  C   UNL     1      51.884   5.499  21.254  0.00  0.00    +0.000 C 
ATOM     14  N   UNL     1      52.122   6.910  21.554  0.00  0.00    +0.000 NA
ATOM     15  C   UNL     1      52.908   7.541  20.490  0.00  0.00    +0.000 C 
ATOM     16  C   UNL     1      54.211   6.800  20.164  0.00  0.00    +0.000 C 
ATOM     17  H   UNL     1      52.643   6.969  22.432  0.00  0.00    +0.000 HD
ENDBRANCH   9  11
ENDBRANCH   8   9
ENDBRANCH   1   8
BRANCH   4  18
ATOM     18  C   UNL     1      47.303   3.413  16.805  0.00  0.00    +0.000 C 
BRANCH  18  19
ATOM     19  N   UNL     1      46.905   4.414  15.853  0.00  0.00    +0.000 N 
ATOM     20  C   UNL     1      46.896   4.162  14.513  0.00  0.00    +0.000 C 
ATOM     21  O   UNL     1      47.205   3.071  14.046  0.00  0.00    +0.000 OA
ATOM     22  H   UNL     1      46.867   5.373  16.186  0.00  0.00    +0.000 HD
BRANCH  20  23
ATOM     23  C   UNL     1      46.420   5.257  13.654  0.00  0.00    +0.000 A 
ATOM     24  C   UNL     1      47.226   6.368  13.445  0.00  0.00    +0.000 A 
ATOM     25  S   UNL     1      46.552   7.504  12.369  0.00  0.00    +0.000 S 
ATOM     26  C   UNL     1      45.136   6.580  12.192  0.00  0.00    +0.000 A 
ATOM     27  N   UNL     1      44.112   7.008  11.404  0.00  0.00    +0.000 NA
ATOM     28  C   UNL     1      43.093   6.220  11.388  0.00  0.00    +0.000 A 
ATOM     29  N   UNL     1      42.989   5.039  12.077  0.00  0.00    +0.000 N 
ATOM     30  C   UNL     1      44.005   4.552  12.863  0.00  0.00    +0.000 A 
ATOM     31  O   UNL     1      43.915   3.470  13.431  0.00  0.00    +0.000 OA
ATOM     32  C   UNL     1      45.183   5.406  12.930  0.00  0.00    +0.000 A 
ATOM     33  H   UNL     1      42.172   4.469  12.010  0.00  0.00    +0.000 HD
ENDBRANCH  20  23
ENDBRANCH  18  19
ENDBRANCH   4  18
TORSDOF 6
ENDMDL
