MODEL 1
REMARK VINA RESULT:    -7.978      0.000      0.000
REMARK INTER + INTRA:         -12.344
REMARK INTER:                 -11.243
REMARK INTRA:                  -1.100
REMARK UNBOUND:                -1.100
REMARK  Name = 
REMARK  7 active torsions:
REMARK  status: ('A' for Active; 'I' for Inactive)
REMARK    1  A    between atoms: C_2  and  C_21
REMARK    2  A    between atoms: N_3  and  C_4
REMARK    3  A    between atoms: C_4  and  C_5
REMARK    4  A    between atoms: C_8  and  C_9
REMARK    5  A    between atoms: C_9  and  N_10
REMARK    6  A    between atoms: N_10  and  C_11
REMARK    7  A    between atoms: C_11  and  C_12
REMARK                            x       y       z     vdW  Elec       q    Type
REMARK                         _______ _______ _______ _____ _____    ______ ____
ROOT
ATOM      1  C   UNL     1      46.162   6.336  12.496  0.00  0.00    +0.000 A 
ATOM      2  C   UNL     1      45.584   5.342  13.295  0.00  0.00    +0.000 A 
ATOM      3  C   UNL     1      44.817   4.328  12.720  0.00  0.00    +0.000 A 
ATOM      4  C   UNL     1      44.614   4.277  11.334  0.00  0.00    +0.000 A 
ATOM      5  C   UNL     1      45.230   5.247  10.531  0.00  0.00    +0.000 A 
ATOM      6  C   UNL     1      46.003   6.264  11.106  0.00  0.00    +0.000 A 
ENDROOT
BRANCH   1   7
ATOM      7  C   UNL     1      46.944   7.452  13.141  0.00  0.00    +0.000 C 
BRANCH   7  10
ATOM      8  O   UNL     1      49.660   6.996  13.825  0.00  0.00    +0.000 OA
ATOM      9  C   UNL     1      48.795   6.904  14.690  0.00  0.00    +0.000 C 
ATOM     10  N   UNL     1      47.460   7.066  14.426  0.00  0.00    +0.000 N 
ATOM     11  H   UNL     1      46.813   7.158  15.199  0.00  0.00    +0.000 HD
BRANCH   9  12
ATOM     12  C   UNL     1      49.127   6.541  16.076  0.00  0.00    +0.000 A 
ATOM     13  C   UNL     1      49.859   7.414  16.868  0.00  0.00    +0.000 A 
ATOM     14  S   UNL     1      50.169   6.814  18.435  0.00  0.00    +0.000 S 
ATOM     15  C   UNL     1      49.297   5.388  18.125  0.00  0.00    +0.000 A 
ATOM     16  N   UNL     1      49.149   4.433  19.081  0.00  0.00    +0.000 NA
ATOM     17  C   UNL     1      48.435   3.418  18.721  0.00  0.00    +0.000 A 
ATOM     18  N   UNL     1      47.866   3.267  17.482  0.00  0.00    +0.000 N 
ATOM     19  C   UNL     1      48.053   4.167  16.465  0.00  0.00    +0.000 A 
ATOM     20  O   UNL     1      47.643   3.926  15.331  0.00  0.00    +0.000 OA
ATOM     21  C   UNL     1      48.803   5.353  16.832  0.00  0.00    +0.000 A 
ATOM     22  H   UNL     1      47.348   2.433  17.248  0.00  0.00    +0.000 HD
ENDBRANCH   9  12
ENDBRANCH   7  10
ENDBRANCH   1   7
BRANCH   4  23
ATOM     23  C   UNL     1      43.760   3.187  10.726  0.00  0.00    +0.000 C 
BRANCH  23  24
ATOM     24  N   UNL     1      44.093   2.984   9.314  0.00  0.00    +0.000 NA
ATOM     25  H   UNL     1      44.404   3.874   8.925  0.00  0.00    +0.000 HD
BRANCH  24  26
ATOM     26  C   UNL     1      45.150   1.990   9.153  0.00  0.00    +0.000 C 
BRANCH  26  27
ATOM     27  C   UNL     1      45.953   2.247   7.906  0.00  0.00    +0.000 A 
ATOM     28  C   UNL     1      46.001   3.534   7.378  0.00  0.00    +0.000 A 
ATOM     29  N   UNL     1      46.672   3.879   6.254  0.00  0.00    +0.000 NA
ATOM     30  C   UNL     1      47.356   2.903   5.627  0.00  0.00    +0.000 A 
ATOM     31  C   UNL     1      47.402   1.598   6.074  0.00  0.00    +0.000 A 
ATOM     32  C   UNL     1      46.693   1.274   7.231  0.00  0.00    +0.000 A 
ATOM     33 CL   UNL     1      46.777  -0.358   7.790  0.00  0.00    +0.000 Cl
ENDBRANCH  26  27
ENDBRANCH  24  26
ENDBRANCH  23  24
ENDBRANCH   4  23
TORSDOF 7
ENDMDL
MODEL 2
REMARK VINA RESULT:    -7.539      1.847      2.332
REMARK INTER + INTRA:         -11.724
REMARK INTER:                 -10.668
REMARK INTRA:                  -1.056
REMARK UNBOUND:                -1.100
REMARK  Name = 
REMARK  7 active torsions:
REMARK  status: ('A' for Active; 'I' for Inactive)
REMARK    1  A    between atoms: C_2  and  C_21
REMARK    2  A    between atoms: N_3  and  C_4
REMARK    3  A    between atoms: C_4  and  C_5
REMARK    4  A    between atoms: C_8  and  C_9
REMARK    5  A    between atoms: C_9  and  N_10
REMARK    6  A    between atoms: N_10  and  C_11
REMARK    7  A    between atoms: C_11  and  C_12
REMARK                            x       y       z     vdW  Elec       q    Type
REMARK                         _______ _______ _______ _____ _____    ______ ____
ROOT
ATOM      1  C   UNL     1      46.642   5.652  12.839  0.00  0.00    +0.000 A 
ATOM      2  C   UNL     1      46.479   4.327  13.262  0.00  0.00    +0.000 A 
ATOM      3  C   UNL     1      45.531   3.501  12.658  0.00  0.00    +0.000 A 
ATOM      4  C   UNL     1      44.727   3.975  11.612  0.00  0.00    +0.000 A 
ATOM      5  C   UNL     1      44.922   5.287  11.159  0.00  0.00    +0.000 A 
ATOM      6  C   UNL     1      45.875   6.116  11.763  0.00  0.00    +0.000 A 
ENDROOT
BRANCH   1   7
ATOM      7  C   UNL     1      47.636   6.542  13.539  0.00  0.00    +0.000 C 
BRANCH   7  10
ATOM      8  O   UNL     1      49.923   6.721  15.210  0.00  0.00    +0.000 OA
ATOM      9  C   UNL     1      48.841   6.411  15.698  0.00  0.00    +0.000 C 
ATOM     10  N   UNL     1      47.703   6.262  14.948  0.00  0.00    +0.000 N 
ATOM     11  H   UNL     1      46.810   6.184  15.417  0.00  0.00    +0.000 HD
BRANCH   9  12
ATOM     12  C   UNL     1      48.699   6.108  17.130  0.00  0.00    +0.000 A 
ATOM     13  C   UNL     1      48.923   4.820  17.594  0.00  0.00    +0.000 A 
ATOM     14  S   UNL     1      48.686   4.652  19.276  0.00  0.00    +0.000 S 
ATOM     15  C   UNL     1      48.321   6.304  19.448  0.00  0.00    +0.000 A 
ATOM     16  N   UNL     1      48.040   6.837  20.667  0.00  0.00    +0.000 NA
ATOM     17  C   UNL     1      47.815   8.110  20.656  0.00  0.00    +0.000 A 
ATOM     18  N   UNL     1      47.832   8.894  19.531  0.00  0.00    +0.000 N 
ATOM     19  C   UNL     1      48.035   8.386  18.275  0.00  0.00    +0.000 A 
ATOM     20  O   UNL     1      47.904   9.098  17.282  0.00  0.00    +0.000 OA
ATOM     21  C   UNL     1      48.346   6.970  18.235  0.00  0.00    +0.000 A 
ATOM     22  H   UNL     1      47.612   9.878  19.583  0.00  0.00    +0.000 HD
ENDBRANCH   9  12
ENDBRANCH   7  10
ENDBRANCH   1   7
BRANCH   4  23
ATOM     23  C   UNL     1      43.686   3.078  10.981  0.00  0.00    +0.000 C 
BRANCH  23  24
ATOM     24  N   UNL     1      43.868   2.998   9.529  0.00  0.00    +0.000 NA
ATOM     25  H   UNL     1      44.293   3.869   9.210  0.00  0.00    +0.000 HD
BRANCH  24  26
ATOM     26  C   UNL     1      44.727   1.876   9.161  0.00  0.00    +0.000 C 
BRANCH  26  27
ATOM     27  C   UNL     1      45.815   2.312   8.217  0.00  0.00    +0.000 A 
ATOM     28  C   UNL     1      45.991   3.668   7.956  0.00  0.00    +0.000 A 
ATOM     29  N   UNL     1      46.920   4.174   7.113  0.00  0.00    +0.000 NA
ATOM     30  C   UNL     1      47.741   3.294   6.508  0.00  0.00    +0.000 A 
ATOM     31  C   UNL     1      47.676   1.930   6.711  0.00  0.00    +0.000 A 
ATOM     32  C   UNL     1      46.702   1.441   7.581  0.00  0.00    +0.000 A 
ATOM     33 CL   UNL     1      46.647  -0.266   7.841  0.00  0.00    +0.000 Cl
ENDBRANCH  26  27
ENDBRANCH  24  26
ENDBRANCH  23  24
ENDBRANCH   4  23
TORSDOF 7
ENDMDL
MODEL 3
REMARK VINA RESULT:    -7.524      1.716      1.920
REMARK INTER + INTRA:         -11.703
REMARK INTER:                 -10.782
REMARK INTRA:                  -0.921
REMARK UNBOUND:                -1.100
REMARK  Name = 
REMARK  7 active torsions:
REMARK  status: ('A' for Active; 'I' for Inactive)
REMARK    1  A    between atoms: C_2  and  C_21
REMARK    2  A    between atoms: N_3  and  C_4
REMARK    3  A    between atoms: C_4  and  C_5
REMARK    4  A    between atoms: C_8  and  C_9
REMARK    5  A    between atoms: C_9  and  N_10
REMARK    6  A    between atoms: N_10  and  C_11
REMARK    7  A    between atoms: C_11  and  C_12
REMARK                            x       y       z     vdW  Elec       q    Type
REMARK                         _______ _______ _______ _____ _____    ______ ____
ROOT
ATOM      1  C   UNL     1      46.866   5.729  12.895  0.00  0.00    +0.000 A 
ATOM      2  C   UNL     1      46.782   4.377  13.246  0.00  0.00    +0.000 A 
ATOM      3  C   UNL     1      45.731   3.586  12.779  0.00  0.00    +0.000 A 
ATOM      4  C   UNL     1      44.743   4.125  11.943  0.00  0.00    +0.000 A 
ATOM      5  C   UNL     1      44.852   5.468  11.556  0.00  0.00    +0.000 A 
ATOM      6  C   UNL     1      45.908   6.261  12.022  0.00  0.00    +0.000 A 
ENDROOT
BRANCH   1   7
ATOM      7  C   UNL     1      47.979   6.578  13.452  0.00  0.00    +0.000 C 
BRANCH   7  10
ATOM      8  O   UNL     1      50.223   6.801  15.175  0.00  0.00    +0.000 OA
ATOM      9  C   UNL     1      49.095   6.747  15.655  0.00  0.00    +0.000 C 
ATOM     10  N   UNL     1      47.968   6.595  14.889  0.00  0.00    +0.000 N 
ATOM     11  H   UNL     1      47.061   6.736  15.315  0.00  0.00    +0.000 HD
BRANCH   9  12
ATOM     12  C   UNL     1      48.873   6.774  17.109  0.00  0.00    +0.000 A 
ATOM     13  C   UNL     1      48.597   7.973  17.749  0.00  0.00    +0.000 A 
ATOM     14  S   UNL     1      48.395   7.814  19.436  0.00  0.00    +0.000 S 
ATOM     15  C   UNL     1      48.624   6.131  19.363  0.00  0.00    +0.000 A 
ATOM     16  N   UNL     1      48.552   5.363  20.482  0.00  0.00    +0.000 NA
ATOM     17  C   UNL     1      48.711   4.097  20.277  0.00  0.00    +0.000 A 
ATOM     18  N   UNL     1      48.951   3.532  19.050  0.00  0.00    +0.000 N 
ATOM     19  C   UNL     1      49.107   4.274  17.908  0.00  0.00    +0.000 A 
ATOM     20  O   UNL     1      49.458   3.742  16.858  0.00  0.00    +0.000 OA
ATOM     21  C   UNL     1      48.884   5.698  18.073  0.00  0.00    +0.000 A 
ATOM     22  H   UNL     1      49.103   2.538  18.958  0.00  0.00    +0.000 HD
ENDBRANCH   9  12
ENDBRANCH   7  10
ENDBRANCH   1   7
BRANCH   4  23
ATOM     23  C   UNL     1      43.596   3.264  11.462  0.00  0.00    +0.000 C 
BRANCH  23  24
ATOM     24  N   UNL     1      44.033   2.341  10.412  0.00  0.00    +0.000 NA
ATOM     25  H   UNL     1      43.269   1.695  10.214  0.00  0.00    +0.000 HD
BRANCH  24  26
ATOM     26  C   UNL     1      44.391   3.055   9.190  0.00  0.00    +0.000 C 
BRANCH  26  27
ATOM     27  C   UNL     1      45.508   2.359   8.461  0.00  0.00    +0.000 A 
ATOM     28  C   UNL     1      45.555   0.968   8.450  0.00  0.00    +0.000 A 
ATOM     29  N   UNL     1      46.519   0.236   7.846  0.00  0.00    +0.000 NA
ATOM     30  C   UNL     1      47.482   0.914   7.192  0.00  0.00    +0.000 A 
ATOM     31  C   UNL     1      47.523   2.292   7.114  0.00  0.00    +0.000 A 
ATOM     32  C   UNL     1      46.517   3.016   7.754  0.00  0.00    +0.000 A 
ATOM     33 CL   UNL     1      46.569   4.739   7.628  0.00  0.00    +0.000 Cl
ENDBRANCH  26  27
ENDBRANCH  24  26
ENDBRANCH  23  24
ENDBRANCH   4  23
TORSDOF 7
ENDMDL
MODEL 4
REMARK VINA RESULT:    -7.250      4.111      8.453
REMARK INTER + INTRA:         -11.318
REMARK INTER:                  -9.787
REMARK INTRA:                  -1.531
REMARK UNBOUND:                -1.100
REMARK  Name = 
REMARK  7 active torsions:
REMARK  status: ('A' for Active; 'I' for Inactive)
REMARK    1  A    between atoms: C_2  and  C_21
REMARK    2  A    between atoms: N_3  and  C_4
REMARK    3  A    between atoms: C_4  and  C_5
REMARK    4  A    between atoms: C_8  and  C_9
REMARK    5  A    between atoms: C_9  and  N_10
REMARK    6  A    between atoms: N_10  and  C_11
REMARK    7  A    between atoms: C_11  and  C_12
REMARK                            x       y       z     vdW  Elec       q    Type
REMARK                         _______ _______ _______ _____ _____    ______ ____
ROOT
ATOM      1  C   UNL     1      48.365   8.123  13.596  0.00  0.00    +0.000 A 
ATOM      2  C   UNL     1      48.275   9.263  14.404  0.00  0.00    +0.000 A 
ATOM      3  C   UNL     1      48.430   9.166  15.787  0.00  0.00    +0.000 A 
ATOM      4  C   UNL     1      48.686   7.930  16.397  0.00  0.00    +0.000 A 
ATOM      5  C   UNL     1      48.820   6.797  15.583  0.00  0.00    +0.000 A 
ATOM      6  C   UNL     1      48.668   6.893  14.195  0.00  0.00    +0.000 A 
ENDROOT
BRANCH   1   7
ATOM      7  C   UNL     1      48.144   8.241  12.110  0.00  0.00    +0.000 C 
BRANCH   7  10
ATOM      8  O   UNL     1      45.357   8.014  11.620  0.00  0.00    +0.000 OA
ATOM      9  C   UNL     1      46.099   7.079  11.336  0.00  0.00    +0.000 C 
ATOM     10  N   UNL     1      47.448   7.098  11.583  0.00  0.00    +0.000 N 
ATOM     11  H   UNL     1      48.034   6.385  11.170  0.00  0.00    +0.000 HD
BRANCH   9  12
ATOM     12  C   UNL     1      45.579   5.828  10.763  0.00  0.00    +0.000 A 
ATOM     13  C   UNL     1      45.851   5.501   9.442  0.00  0.00    +0.000 A 
ATOM     14  S   UNL     1      45.145   4.029   8.947  0.00  0.00    +0.000 S 
ATOM     15  C   UNL     1      44.491   3.755  10.492  0.00  0.00    +0.000 A 
ATOM     16  N   UNL     1      43.774   2.632  10.762  0.00  0.00    +0.000 NA
ATOM     17  C   UNL     1      43.366   2.537  11.985  0.00  0.00    +0.000 A 
ATOM     18  N   UNL     1      43.600   3.474  12.959  0.00  0.00    +0.000 N 
ATOM     19  C   UNL     1      44.251   4.654  12.712  0.00  0.00    +0.000 A 
ATOM     20  O   UNL     1      44.318   5.526  13.576  0.00  0.00    +0.000 OA
ATOM     21  C   UNL     1      44.778   4.789  11.367  0.00  0.00    +0.000 A 
ATOM     22  H   UNL     1      43.224   3.359  13.889  0.00  0.00    +0.000 HD
ENDBRANCH   9  12
ENDBRANCH   7  10
ENDBRANCH   1   7
BRANCH   4  23
ATOM     23  C   UNL     1      48.828   7.834  17.900  0.00  0.00    +0.000 C 
BRANCH  23  24
ATOM     24  N   UNL     1      47.602   7.316  18.513  0.00  0.00    +0.000 NA
ATOM     25  H   UNL     1      46.955   7.055  17.768  0.00  0.00    +0.000 HD
BRANCH  24  26
ATOM     26  C   UNL     1      47.875   6.148  19.346  0.00  0.00    +0.000 C 
BRANCH  26  27
ATOM     27  C   UNL     1      48.038   4.909  18.509  0.00  0.00    +0.000 A 
ATOM     28  C   UNL     1      46.957   4.434  17.772  0.00  0.00    +0.000 A 
ATOM     29  N   UNL     1      46.980   3.322  17.002  0.00  0.00    +0.000 NA
ATOM     30  C   UNL     1      48.146   2.650  16.934  0.00  0.00    +0.000 A 
ATOM     31  C   UNL     1      49.290   3.042  17.600  0.00  0.00    +0.000 A 
ATOM     32  C   UNL     1      49.229   4.189  18.391  0.00  0.00    +0.000 A 
ATOM     33 CL   UNL     1      50.674   4.679  19.201  0.00  0.00    +0.000 Cl
ENDBRANCH  26  27
ENDBRANCH  24  26
ENDBRANCH  23  24
ENDBRANCH   4  23
TORSDOF 7
ENDMDL
MODEL 5
REMARK VINA RESULT:    -7.237      3.617      8.725
REMARK INTER + INTRA:         -11.300
REMARK INTER:                  -9.766
REMARK INTRA:                  -1.534
REMARK UNBOUND:                -1.100
REMARK  Name = 
REMARK  7 active torsions:
REMARK  status: ('A' for Active; 'I' for Inactive)
REMARK    1  A    between atoms: C_2  and  C_21
REMARK    2  A    between atoms: N_3  and  C_4
REMARK    3  A    between atoms: C_4  and  C_5
REMARK    4  A    between atoms: C_8  and  C_9
REMARK    5  A    between atoms: C_9  and  N_10
REMARK    6  A    between atoms: N_10  and  C_11
REMARK    7  A    between atoms: C_11  and  C_12
REMARK                            x       y       z     vdW  Elec       q    Type
REMARK                         _______ _______ _______ _____ _____    ______ ____
ROOT
ATOM      1  C   UNL     1      48.031   7.873  13.515  0.00  0.00    +0.000 A 
ATOM      2  C   UNL     1      47.730   8.958  14.347  0.00  0.00    +0.000 A 
ATOM      3  C   UNL     1      48.214   9.006  15.654  0.00  0.00    +0.000 A 
ATOM      4  C   UNL     1      49.017   7.976  16.161  0.00  0.00    +0.000 A 
ATOM      5  C   UNL     1      49.356   6.912  15.314  0.00  0.00    +0.000 A 
ATOM      6  C   UNL     1      48.873   6.864  14.000  0.00  0.00    +0.000 A 
ENDROOT
BRANCH   1   7
ATOM      7  C   UNL     1      47.456   7.816  12.124  0.00  0.00    +0.000 C 
BRANCH   7  10
ATOM      8  O   UNL     1      44.643   7.520  11.893  0.00  0.00    +0.000 OA
ATOM      9  C   UNL     1      45.367   6.539  11.757  0.00  0.00    +0.000 C 
ATOM     10  N   UNL     1      46.730   6.596  11.897  0.00  0.00    +0.000 N 
ATOM     11  H   UNL     1      47.289   5.807  11.600  0.00  0.00    +0.000 HD
BRANCH   9  12
ATOM     12  C   UNL     1      44.813   5.202  11.496  0.00  0.00    +0.000 A 
ATOM     13  C   UNL     1      44.068   4.554  12.471  0.00  0.00    +0.000 A 
ATOM     14  S   UNL     1      43.531   3.005  11.999  0.00  0.00    +0.000 S 
ATOM     15  C   UNL     1      44.236   3.165  10.460  0.00  0.00    +0.000 A 
ATOM     16  N   UNL     1      44.124   2.178   9.531  0.00  0.00    +0.000 NA
ATOM     17  C   UNL     1      44.678   2.447   8.395  0.00  0.00    +0.000 A 
ATOM     18  N   UNL     1      45.347   3.610   8.110  0.00  0.00    +0.000 N 
ATOM     19  C   UNL     1      45.549   4.596   9.039  0.00  0.00    +0.000 A 
ATOM     20  O   UNL     1      46.271   5.558   8.786  0.00  0.00    +0.000 OA
ATOM     21  C   UNL     1      44.902   4.370  10.317  0.00  0.00    +0.000 A 
ATOM     22  H   UNL     1      45.790   3.746   7.213  0.00  0.00    +0.000 HD
ENDBRANCH   9  12
ENDBRANCH   7  10
ENDBRANCH   1   7
BRANCH   4  23
ATOM     23  C   UNL     1      49.516   8.027  17.588  0.00  0.00    +0.000 C 
BRANCH  23  24
ATOM     24  N   UNL     1      48.544   7.432  18.508  0.00  0.00    +0.000 NA
ATOM     25  H   UNL     1      47.692   7.225  17.986  0.00  0.00    +0.000 HD
BRANCH  24  26
ATOM     26  C   UNL     1      49.056   6.202  19.104  0.00  0.00    +0.000 C 
BRANCH  26  27
ATOM     27  C   UNL     1      48.646   4.997  18.302  0.00  0.00    +0.000 A 
ATOM     28  C   UNL     1      47.296   4.772  18.047  0.00  0.00    +0.000 A 
ATOM     29  N   UNL     1      46.810   3.716  17.356  0.00  0.00    +0.000 NA
ATOM     30  C   UNL     1      47.708   2.840  16.865  0.00  0.00    +0.000 A 
ATOM     31  C   UNL     1      49.072   2.975  17.032  0.00  0.00    +0.000 A 
ATOM     32  C   UNL     1      49.539   4.072  17.756  0.00  0.00    +0.000 A 
ATOM     33 CL   UNL     1      51.249   4.240  17.939  0.00  0.00    +0.000 Cl
ENDBRANCH  26  27
ENDBRANCH  24  26
ENDBRANCH  23  24
ENDBRANCH   4  23
TORSDOF 7
ENDMDL
MODEL 6
REMARK VINA RESULT:    -6.989      4.292      8.543
REMARK INTER + INTRA:         -10.949
REMARK INTER:                  -9.011
REMARK INTRA:                  -1.938
REMARK UNBOUND:                -1.100
REMARK  Name = 
REMARK  7 active torsions:
REMARK  status: ('A' for Active; 'I' for Inactive)
REMARK    1  A    between atoms: C_2  and  C_21
REMARK    2  A    between atoms: N_3  and  C_4
REMARK    3  A    between atoms: C_4  and  C_5
REMARK    4  A    between atoms: C_8  and  C_9
REMARK    5  A    between atoms: C_9  and  N_10
REMARK    6  A    between atoms: N_10  and  C_11
REMARK    7  A    between atoms: C_11  and  C_12
REMARK                            x       y       z     vdW  Elec       q    Type
REMARK                         _______ _______ _______ _____ _____    ______ ____
ROOT
ATOM      1  C   UNL     1      49.133   8.119  15.660  0.00  0.00    +0.000 A 
ATOM      2  C   UNL     1      48.788   8.524  16.955  0.00  0.00    +0.000 A 
ATOM      3  C   UNL     1      49.489   8.039  18.060  0.00  0.00    +0.000 A 
ATOM      4  C   UNL     1      50.556   7.145  17.898  0.00  0.00    +0.000 A 
ATOM      5  C   UNL     1      50.929   6.774  16.599  0.00  0.00    +0.000 A 
ATOM      6  C   UNL     1      50.229   7.263  15.489  0.00  0.00    +0.000 A 
ENDROOT
BRANCH   1   7
ATOM      7  C   UNL     1      48.331   8.613  14.484  0.00  0.00    +0.000 C 
BRANCH   7  10
ATOM      8  O   UNL     1      48.698   6.659  12.459  0.00  0.00    +0.000 OA
ATOM      9  C   UNL     1      47.641   6.693  13.081  0.00  0.00    +0.000 C 
ATOM     10  N   UNL     1      47.375   7.635  14.042  0.00  0.00    +0.000 N 
ATOM     11  H   UNL     1      46.572   7.510  14.644  0.00  0.00    +0.000 HD
BRANCH   9  12
ATOM     12  C   UNL     1      46.545   5.757  12.792  0.00  0.00    +0.000 A 
ATOM     13  C   UNL     1      46.679   4.411  13.097  0.00  0.00    +0.000 A 
ATOM     14  S   UNL     1      45.319   3.476  12.667  0.00  0.00    +0.000 S 
ATOM     15  C   UNL     1      44.484   4.845  12.101  0.00  0.00    +0.000 A 
ATOM     16  N   UNL     1      43.221   4.743  11.608  0.00  0.00    +0.000 NA
ATOM     17  C   UNL     1      42.694   5.866  11.245  0.00  0.00    +0.000 A 
ATOM     18  N   UNL     1      43.326   7.081  11.319  0.00  0.00    +0.000 N 
ATOM     19  C   UNL     1      44.624   7.220  11.736  0.00  0.00    +0.000 A 
ATOM     20  O   UNL     1      45.196   8.304  11.655  0.00  0.00    +0.000 OA
ATOM     21  C   UNL     1      45.245   5.997  12.207  0.00  0.00    +0.000 A 
ATOM     22  H   UNL     1      42.874   7.921  10.985  0.00  0.00    +0.000 HD
ENDBRANCH   9  12
ENDBRANCH   7  10
ENDBRANCH   1   7
BRANCH   4  23
ATOM     23  C   UNL     1      51.292   6.607  19.105  0.00  0.00    +0.000 C 
BRANCH  23  24
ATOM     24  N   UNL     1      51.200   5.146  19.172  0.00  0.00    +0.000 NA
ATOM     25  H   UNL     1      51.872   4.813  19.864  0.00  0.00    +0.000 HD
BRANCH  24  26
ATOM     26  C   UNL     1      49.859   4.713  19.552  0.00  0.00    +0.000 C 
BRANCH  26  27
ATOM     27  C   UNL     1      49.138   4.089  18.388  0.00  0.00    +0.000 A 
ATOM     28  C   UNL     1      49.756   3.070  17.669  0.00  0.00    +0.000 A 
ATOM     29  N   UNL     1      49.214   2.450  16.595  0.00  0.00    +0.000 NA
ATOM     30  C   UNL     1      47.980   2.840  16.221  0.00  0.00    +0.000 A 
ATOM     31  C   UNL     1      47.262   3.822  16.875  0.00  0.00    +0.000 A 
ATOM     32  C   UNL     1      47.853   4.446  17.974  0.00  0.00    +0.000 A 
ATOM     33 CL   UNL     1      46.934   5.657  18.795  0.00  0.00    +0.000 Cl
ENDBRANCH  26  27
ENDBRANCH  24  26
ENDBRANCH  23  24
ENDBRANCH   4  23
TORSDOF 7
ENDMDL
MODEL 7
REMARK VINA RESULT:    -6.797      3.281      4.957
REMARK INTER + INTRA:         -10.679
REMARK INTER:                  -9.864
REMARK INTRA:                  -0.815
REMARK UNBOUND:                -1.100
REMARK  Name = 
REMARK  7 active torsions:
REMARK  status: ('A' for Active; 'I' for Inactive)
REMARK    1  A    between atoms: C_2  and  C_21
REMARK    2  A    between atoms: N_3  and  C_4
REMARK    3  A    between atoms: C_4  and  C_5
REMARK    4  A    between atoms: C_8  and  C_9
REMARK    5  A    between atoms: C_9  and  N_10
REMARK    6  A    between atoms: N_10  and  C_11
REMARK    7  A    between atoms: C_11  and  C_12
REMARK                            x       y       z     vdW  Elec       q    Type
REMARK                         _______ _______ _______ _____ _____    ______ ____
ROOT
ATOM      1  C   UNL     1      45.510   3.943   8.871  0.00  0.00    +0.000 A 
ATOM      2  C   UNL     1      45.458   2.576   9.168  0.00  0.00    +0.000 A 
ATOM      3  C   UNL     1      45.987   1.636   8.283  0.00  0.00    +0.000 A 
ATOM      4  C   UNL     1      46.589   2.039   7.083  0.00  0.00    +0.000 A 
ATOM      5  C   UNL     1      46.681   3.410   6.806  0.00  0.00    +0.000 A 
ATOM      6  C   UNL     1      46.153   4.354   7.695  0.00  0.00    +0.000 A 
ENDROOT
BRANCH   1   7
ATOM      7  C   UNL     1      44.887   4.938   9.815  0.00  0.00    +0.000 C 
BRANCH   7  10
ATOM      8  O   UNL     1      44.896   7.350  11.311  0.00  0.00    +0.000 OA
ATOM      9  C   UNL     1      45.698   6.464  11.588  0.00  0.00    +0.000 C 
ATOM     10  N   UNL     1      45.782   5.291  10.883  0.00  0.00    +0.000 N 
ATOM     11  H   UNL     1      46.330   4.528  11.260  0.00  0.00    +0.000 HD
BRANCH   9  12
ATOM     12  C   UNL     1      46.683   6.625  12.668  0.00  0.00    +0.000 A 
ATOM     13  C   UNL     1      47.480   7.760  12.719  0.00  0.00    +0.000 A 
ATOM     14  S   UNL     1      48.580   7.761  14.024  0.00  0.00    +0.000 S 
ATOM     15  C   UNL     1      47.997   6.268  14.592  0.00  0.00    +0.000 A 
ATOM     16  N   UNL     1      48.505   5.698  15.717  0.00  0.00    +0.000 NA
ATOM     17  C   UNL     1      47.946   4.582  16.053  0.00  0.00    +0.000 A 
ATOM     18  N   UNL     1      46.933   3.978  15.353  0.00  0.00    +0.000 N 
ATOM     19  C   UNL     1      46.444   4.477  14.174  0.00  0.00    +0.000 A 
ATOM     20  O   UNL     1      45.636   3.834  13.508  0.00  0.00    +0.000 OA
ATOM     21  C   UNL     1      46.999   5.757  13.779  0.00  0.00    +0.000 A 
ATOM     22  H   UNL     1      46.562   3.086  15.646  0.00  0.00    +0.000 HD
ENDBRANCH   9  12
ENDBRANCH   7  10
ENDBRANCH   1   7
BRANCH   4  23
ATOM     23  C   UNL     1      47.137   1.010   6.119  0.00  0.00    +0.000 C 
BRANCH  23  24
ATOM     24  N   UNL     1      46.886   1.401   4.730  0.00  0.00    +0.000 NA
ATOM     25  H   UNL     1      47.122   2.389   4.627  0.00  0.00    +0.000 HD
BRANCH  24  26
ATOM     26  C   UNL     1      47.690   0.613   3.800  0.00  0.00    +0.000 C 
BRANCH  26  27
ATOM     27  C   UNL     1      46.915  -0.566   3.276  0.00  0.00    +0.000 A 
ATOM     28  C   UNL     1      47.329  -1.854   3.601  0.00  0.00    +0.000 A 
ATOM     29  N   UNL     1      46.724  -2.987   3.173  0.00  0.00    +0.000 NA
ATOM     30  C   UNL     1      45.632  -2.841   2.399  0.00  0.00    +0.000 A 
ATOM     31  C   UNL     1      45.115  -1.614   2.035  0.00  0.00    +0.000 A 
ATOM     32  C   UNL     1      45.767  -0.467   2.487  0.00  0.00    +0.000 A 
ATOM     33 CL   UNL     1      45.096   1.062   2.042  0.00  0.00    +0.000 Cl
ENDBRANCH  26  27
ENDBRANCH  24  26
ENDBRANCH  23  24
ENDBRANCH   4  23
TORSDOF 7
ENDMDL
MODEL 8
REMARK VINA RESULT:    -6.619      2.151      2.659
REMARK INTER + INTRA:         -10.428
REMARK INTER:                  -9.336
REMARK INTRA:                  -1.093
REMARK UNBOUND:                -1.100
REMARK  Name = 
REMARK  7 active torsions:
REMARK  status: ('A' for Active; 'I' for Inactive)
REMARK    1  A    between atoms: C_2  and  C_21
REMARK    2  A    between atoms: N_3  and  C_4
REMARK    3  A    between atoms: C_4  and  C_5
REMARK    4  A    between atoms: C_8  and  C_9
REMARK    5  A    between atoms: C_9  and  N_10
REMARK    6  A    between atoms: N_10  and  C_11
REMARK    7  A    between atoms: C_11  and  C_12
REMARK                            x       y       z     vdW  Elec       q    Type
REMARK                         _______ _______ _______ _____ _____    ______ ____
ROOT
ATOM      1  C   UNL     1      46.896   5.867  13.624  0.00  0.00    +0.000 A 
ATOM      2  C   UNL     1      45.802   6.410  12.940  0.00  0.00    +0.000 A 
ATOM      3  C   UNL     1      44.839   5.578  12.369  0.00  0.00    +0.000 A 
ATOM      4  C   UNL     1      44.939   4.184  12.474  0.00  0.00    +0.000 A 
ATOM      5  C   UNL     1      46.011   3.642  13.198  0.00  0.00    +0.000 A 
ATOM      6  C   UNL     1      46.977   4.476  13.774  0.00  0.00    +0.000 A 
ENDROOT
BRANCH   1   7
ATOM      7  C   UNL     1      47.953   6.781  14.189  0.00  0.00    +0.000 C 
BRANCH   7  10
ATOM      8  O   UNL     1      50.561   7.208  15.224  0.00  0.00    +0.000 OA
ATOM      9  C   UNL     1      49.748   6.563  15.879  0.00  0.00    +0.000 C 
ATOM     10  N   UNL     1      48.486   6.279  15.426  0.00  0.00    +0.000 N 
ATOM     11  H   UNL     1      47.804   5.904  16.072  0.00  0.00    +0.000 HD
BRANCH   9  12
ATOM     12  C   UNL     1      50.097   5.984  17.185  0.00  0.00    +0.000 A 
ATOM     13  C   UNL     1      51.095   5.025  17.278  0.00  0.00    +0.000 A 
ATOM     14  S   UNL     1      51.342   4.451  18.866  0.00  0.00    +0.000 S 
ATOM     15  C   UNL     1      50.156   5.497  19.491  0.00  0.00    +0.000 A 
ATOM     16  N   UNL     1      49.879   5.528  20.821  0.00  0.00    +0.000 NA
ATOM     17  C   UNL     1      48.981   6.393  21.162  0.00  0.00    +0.000 A 
ATOM     18  N   UNL     1      48.325   7.220  20.286  0.00  0.00    +0.000 N 
ATOM     19  C   UNL     1      48.517   7.168  18.930  0.00  0.00    +0.000 A 
ATOM     20  O   UNL     1      47.810   7.826  18.171  0.00  0.00    +0.000 OA
ATOM     21  C   UNL     1      49.555   6.251  18.498  0.00  0.00    +0.000 A 
ATOM     22  H   UNL     1      47.606   7.850  20.609  0.00  0.00    +0.000 HD
ENDBRANCH   9  12
ENDBRANCH   7  10
ENDBRANCH   1   7
BRANCH   4  23
ATOM     23  C   UNL     1      43.902   3.291  11.831  0.00  0.00    +0.000 C 
BRANCH  23  24
ATOM     24  N   UNL     1      44.516   2.388  10.854  0.00  0.00    +0.000 NA
ATOM     25  H   UNL     1      44.047   1.483  10.914  0.00  0.00    +0.000 HD
BRANCH  24  26
ATOM     26  C   UNL     1      44.392   2.907   9.495  0.00  0.00    +0.000 C 
BRANCH  26  27
ATOM     27  C   UNL     1      45.515   2.418   8.622  0.00  0.00    +0.000 A 
ATOM     28  C   UNL     1      45.711   1.049   8.464  0.00  0.00    +0.000 A 
ATOM     29  N   UNL     1      46.697   0.494   7.721  0.00  0.00    +0.000 NA
ATOM     30  C   UNL     1      47.525   1.338   7.076  0.00  0.00    +0.000 A 
ATOM     31  C   UNL     1      47.410   2.713   7.138  0.00  0.00    +0.000 A 
ATOM     32  C   UNL     1      46.387   3.252   7.918  0.00  0.00    +0.000 A 
ATOM     33 CL   UNL     1      46.242   4.972   7.969  0.00  0.00    +0.000 Cl
ENDBRANCH  26  27
ENDBRANCH  24  26
ENDBRANCH  23  24
ENDBRANCH   4  23
TORSDOF 7
ENDMDL
MODEL 9
REMARK VINA RESULT:    -6.534      1.678      2.237
REMARK INTER + INTRA:         -10.308
REMARK INTER:                  -9.134
REMARK INTRA:                  -1.173
REMARK UNBOUND:                -1.100
REMARK  Name = 
REMARK  7 active torsions:
REMARK  status: ('A' for Active; 'I' for Inactive)
REMARK    1  A    between atoms: C_2  and  C_21
REMARK    2  A    between atoms: N_3  and  C_4
REMARK    3  A    between atoms: C_4  and  C_5
REMARK    4  A    between atoms: C_8  and  C_9
REMARK    5  A    between atoms: C_9  and  N_10
REMARK    6  A    between atoms: N_10  and  C_11
REMARK    7  A    between atoms: C_11  and  C_12
REMARK                            x       y       z     vdW  Elec       q    Type
REMARK                         _______ _______ _______ _____ _____    ______ ____
ROOT
ATOM      1  C   UNL     1      48.267   6.751  13.401  0.00  0.00    +0.000 A 
ATOM      2  C   UNL     1      47.566   5.715  14.031  0.00  0.00    +0.000 A 
ATOM      3  C   UNL     1      46.342   5.276  13.526  0.00  0.00    +0.000 A 
ATOM      4  C   UNL     1      45.791   5.855  12.374  0.00  0.00    +0.000 A 
ATOM      5  C   UNL     1      46.514   6.861  11.719  0.00  0.00    +0.000 A 
ATOM      6  C   UNL     1      47.744   7.300  12.223  0.00  0.00    +0.000 A 
ENDROOT
BRANCH   1   7
ATOM      7  C   UNL     1      49.562   7.245  13.992  0.00  0.00    +0.000 C 
BRANCH   7  10
ATOM      8  O   UNL     1      51.864   6.990  15.633  0.00  0.00    +0.000 OA
ATOM      9  C   UNL     1      50.751   7.003  16.150  0.00  0.00    +0.000 C 
ATOM     10  N   UNL     1      49.593   7.079  15.420  0.00  0.00    +0.000 N 
ATOM     11  H   UNL     1      48.721   7.266  15.898  0.00  0.00    +0.000 HD
BRANCH   9  12
ATOM     12  C   UNL     1      50.575   6.869  17.604  0.00  0.00    +0.000 A 
ATOM     13  C   UNL     1      51.029   7.866  18.455  0.00  0.00    +0.000 A 
ATOM     14  S   UNL     1      50.761   7.526  20.105  0.00  0.00    +0.000 S 
ATOM     15  C   UNL     1      49.988   6.057  19.737  0.00  0.00    +0.000 A 
ATOM     16  N   UNL     1      49.484   5.263  20.719  0.00  0.00    +0.000 NA
ATOM     17  C   UNL     1      48.894   4.195  20.296  0.00  0.00    +0.000 A 
ATOM     18  N   UNL     1      48.776   3.842  18.976  0.00  0.00    +0.000 N 
ATOM     19  C   UNL     1      49.335   4.572  17.959  0.00  0.00    +0.000 A 
ATOM     20  O   UNL     1      49.327   4.149  16.805  0.00  0.00    +0.000 OA
ATOM     21  C   UNL     1      49.964   5.811  18.375  0.00  0.00    +0.000 A 
ATOM     22  H   UNL     1      48.334   2.974  18.709  0.00  0.00    +0.000 HD
ENDBRANCH   9  12
ENDBRANCH   7  10
ENDBRANCH   1   7
BRANCH   4  23
ATOM     23  C   UNL     1      44.452   5.388  11.850  0.00  0.00    +0.000 C 
BRANCH  23  24
ATOM     24  N   UNL     1      44.339   5.623  10.408  0.00  0.00    +0.000 NA
ATOM     25  H   UNL     1      45.247   5.931  10.061  0.00  0.00    +0.000 HD
BRANCH  24  26
ATOM     26  C   UNL     1      43.937   4.411   9.700  0.00  0.00    +0.000 C 
BRANCH  26  27
ATOM     27  C   UNL     1      45.045   3.904   8.817  0.00  0.00    +0.000 A 
ATOM     28  C   UNL     1      45.931   4.811   8.245  0.00  0.00    +0.000 A 
ATOM     29  N   UNL     1      46.951   4.474   7.421  0.00  0.00    +0.000 NA
ATOM     30  C   UNL     1      47.122   3.162   7.166  0.00  0.00    +0.000 A 
ATOM     31  C   UNL     1      46.321   2.172   7.698  0.00  0.00    +0.000 A 
ATOM     32  C   UNL     1      45.275   2.555   8.538  0.00  0.00    +0.000 A 
ATOM     33 CL   UNL     1      44.294   1.304   9.214  0.00  0.00    +0.000 Cl
ENDBRANCH  26  27
ENDBRANCH  24  26
ENDBRANCH  23  24
ENDBRANCH   4  23
TORSDOF 7
ENDMDL
