MODEL 1
REMARK VINA RESULT:    -8.329      0.000      0.000
REMARK INTER + INTRA:         -12.686
REMARK INTER:                 -11.737
REMARK INTRA:                  -0.950
REMARK UNBOUND:                -0.950
REMARK  Name = 
REMARK  7 active torsions:
REMARK  status: ('A' for Active; 'I' for Inactive)
REMARK    1  A    between atoms: C_2  and  C_20
REMARK    2  A    between atoms: N_3  and  C_4
REMARK    3  A    between atoms: C_4  and  C_5
REMARK    4  A    between atoms: C_8  and  C_9
REMARK    5  A    between atoms: C_9  and  N_10
REMARK    6  A    between atoms: N_10  and  C_11
REMARK    7  A    between atoms: C_11  and  C_12
REMARK                            x       y       z     vdW  Elec       q    Type
REMARK                         _______ _______ _______ _____ _____    ______ ____
ROOT
ATOM      1  C   UNL     1      46.831   5.929  13.155  0.00  0.00    +0.000 A 
ATOM      2  C   UNL     1      45.878   4.991  13.570  0.00  0.00    +0.000 A 
ATOM      3  C   UNL     1      44.779   4.693  12.761  0.00  0.00    +0.000 A 
ATOM      4  C   UNL     1      44.611   5.324  11.519  0.00  0.00    +0.000 A 
ATOM      5  C   UNL     1      45.575   6.249  11.099  0.00  0.00    +0.000 A 
ATOM      6  C   UNL     1      46.677   6.546  11.907  0.00  0.00    +0.000 A 
ENDROOT
BRANCH   1   7
ATOM      7  C   UNL     1      47.999   6.268  14.035  0.00  0.00    +0.000 C 
BRANCH   7  10
ATOM      8  O   UNL     1      49.977   6.100  15.963  0.00  0.00    +0.000 OA
ATOM      9  C   UNL     1      48.816   5.876  16.300  0.00  0.00    +0.000 C 
ATOM     10  N   UNL     1      47.767   5.934  15.413  0.00  0.00    +0.000 N 
ATOM     11  H   UNL     1      46.835   5.738  15.770  0.00  0.00    +0.000 HD
BRANCH   9  12
ATOM     12  C   UNL     1      48.449   5.529  17.678  0.00  0.00    +0.000 A 
ATOM     13  N   UNL     1      48.394   4.256  18.125  0.00  0.00    +0.000 NA
ATOM     14  N   UNL     1      48.040   4.386  19.420  0.00  0.00    +0.000 N 
ATOM     15  C   UNL     1      47.855   5.678  19.829  0.00  0.00    +0.000 A 
ATOM     16  C   UNL     1      47.494   6.236  21.052  0.00  0.00    +0.000 A 
ATOM     17  C   UNL     1      47.407   7.621  21.053  0.00  0.00    +0.000 A 
ATOM     18  N   UNL     1      47.644   8.416  19.984  0.00  0.00    +0.000 NA
ATOM     19  C   UNL     1      47.999   7.845  18.806  0.00  0.00    +0.000 A 
ATOM     20  C   UNL     1      48.112   6.455  18.706  0.00  0.00    +0.000 A 
ATOM     21  H   UNL     1      47.939   3.545  19.978  0.00  0.00    +0.000 HD
ENDBRANCH   9  12
ENDBRANCH   7  10
ENDBRANCH   1   7
BRANCH   4  22
ATOM     22  C   UNL     1      43.414   5.006  10.651  0.00  0.00    +0.000 C 
BRANCH  22  23
ATOM     23  N   UNL     1      43.836   4.458   9.367  0.00  0.00    +0.000 NA
ATOM     24  H   UNL     1      44.585   5.036   8.984  0.00  0.00    +0.000 HD
BRANCH  23  25
ATOM     25  C   UNL     1      44.313   3.083   9.489  0.00  0.00    +0.000 C 
BRANCH  25  26
ATOM     26  C   UNL     1      45.427   2.814   8.504  0.00  0.00    +0.000 A 
ATOM     27  C   UNL     1      45.987   1.535   8.378  0.00  0.00    +0.000 A 
ATOM     28  C   UNL     1      47.011   1.298   7.457  0.00  0.00    +0.000 A 
ATOM     29  C   UNL     1      47.485   2.335   6.654  0.00  0.00    +0.000 A 
ATOM     30  C   UNL     1      46.938   3.611   6.772  0.00  0.00    +0.000 A 
ATOM     31  C   UNL     1      45.914   3.848   7.689  0.00  0.00    +0.000 A 
ENDBRANCH  25  26
ENDBRANCH  23  25
ENDBRANCH  22  23
ENDBRANCH   4  22
TORSDOF 7
ENDMDL
MODEL 2
REMARK VINA RESULT:    -7.974      1.557      2.387
REMARK INTER + INTRA:         -12.187
REMARK INTER:                 -11.135
REMARK INTRA:                  -1.052
REMARK UNBOUND:                -0.950
REMARK  Name = 
REMARK  7 active torsions:
REMARK  status: ('A' for Active; 'I' for Inactive)
REMARK    1  A    between atoms: C_2  and  C_20
REMARK    2  A    between atoms: N_3  and  C_4
REMARK    3  A    between atoms: C_4  and  C_5
REMARK    4  A    between atoms: C_8  and  C_9
REMARK    5  A    between atoms: C_9  and  N_10
REMARK    6  A    between atoms: N_10  and  C_11
REMARK    7  A    between atoms: C_11  and  C_12
REMARK                            x       y       z     vdW  Elec       q    Type
REMARK                         _______ _______ _______ _____ _____    ______ ____
ROOT
ATOM      1  C   UNL     1      46.415   6.376  12.673  0.00  0.00    +0.000 A 
ATOM      2  C   UNL     1      45.975   5.284  13.431  0.00  0.00    +0.000 A 
ATOM      3  C   UNL     1      45.092   4.351  12.883  0.00  0.00    +0.000 A 
ATOM      4  C   UNL     1      44.632   4.489  11.565  0.00  0.00    +0.000 A 
ATOM      5  C   UNL     1      45.087   5.573  10.804  0.00  0.00    +0.000 A 
ATOM      6  C   UNL     1      45.974   6.505  11.350  0.00  0.00    +0.000 A 
ENDROOT
BRANCH   1   7
ATOM      7  C   UNL     1      47.346   7.392  13.270  0.00  0.00    +0.000 C 
BRANCH   7  10
ATOM      8  O   UNL     1      49.927   7.043  14.206  0.00  0.00    +0.000 OA
ATOM      9  C   UNL     1      48.999   6.940  15.006  0.00  0.00    +0.000 C 
ATOM     10  N   UNL     1      47.684   7.095  14.635  0.00  0.00    +0.000 N 
ATOM     11  H   UNL     1      46.975   6.997  15.356  0.00  0.00    +0.000 HD
BRANCH   9  12
ATOM     12  C   UNL     1      49.215   6.645  16.428  0.00  0.00    +0.000 A 
ATOM     13  N   UNL     1      49.789   7.521  17.281  0.00  0.00    +0.000 NA
ATOM     14  N   UNL     1      49.779   6.870  18.462  0.00  0.00    +0.000 N 
ATOM     15  C   UNL     1      49.237   5.615  18.413  0.00  0.00    +0.000 A 
ATOM     16  C   UNL     1      49.042   4.636  19.383  0.00  0.00    +0.000 A 
ATOM     17  C   UNL     1      48.449   3.471  18.915  0.00  0.00    +0.000 A 
ATOM     18  N   UNL     1      48.070   3.250  17.636  0.00  0.00    +0.000 NA
ATOM     19  C   UNL     1      48.268   4.225  16.713  0.00  0.00    +0.000 A 
ATOM     20  C   UNL     1      48.859   5.435  17.088  0.00  0.00    +0.000 A 
ATOM     21  H   UNL     1      50.163   7.342  19.274  0.00  0.00    +0.000 HD
ENDBRANCH   9  12
ENDBRANCH   7  10
ENDBRANCH   1   7
BRANCH   4  22
ATOM     22  C   UNL     1      43.666   3.483  10.979  0.00  0.00    +0.000 C 
BRANCH  22  23
ATOM     23  N   UNL     1      43.943   3.263   9.564  0.00  0.00    +0.000 NA
ATOM     24  H   UNL     1      44.490   4.044   9.203  0.00  0.00    +0.000 HD
BRANCH  23  25
ATOM     25  C   UNL     1      44.679   2.022   9.337  0.00  0.00    +0.000 C 
BRANCH  25  26
ATOM     26  C   UNL     1      45.716   2.206   8.254  0.00  0.00    +0.000 A 
ATOM     27  C   UNL     1      45.848   3.429   7.580  0.00  0.00    +0.000 A 
ATOM     28  C   UNL     1      46.818   3.588   6.587  0.00  0.00    +0.000 A 
ATOM     29  C   UNL     1      47.664   2.531   6.257  0.00  0.00    +0.000 A 
ATOM     30  C   UNL     1      47.542   1.310   6.918  0.00  0.00    +0.000 A 
ATOM     31  C   UNL     1      46.575   1.151   7.912  0.00  0.00    +0.000 A 
ENDBRANCH  25  26
ENDBRANCH  23  25
ENDBRANCH  22  23
ENDBRANCH   4  22
TORSDOF 7
ENDMDL
MODEL 3
REMARK VINA RESULT:    -7.191      2.998      8.847
REMARK INTER + INTRA:         -11.083
REMARK INTER:                  -9.970
REMARK INTRA:                  -1.113
REMARK UNBOUND:                -0.950
REMARK  Name = 
REMARK  7 active torsions:
REMARK  status: ('A' for Active; 'I' for Inactive)
REMARK    1  A    between atoms: C_2  and  C_20
REMARK    2  A    between atoms: N_3  and  C_4
REMARK    3  A    between atoms: C_4  and  C_5
REMARK    4  A    between atoms: C_8  and  C_9
REMARK    5  A    between atoms: C_9  and  N_10
REMARK    6  A    between atoms: N_10  and  C_11
REMARK    7  A    between atoms: C_11  and  C_12
REMARK                            x       y       z     vdW  Elec       q    Type
REMARK                         _______ _______ _______ _____ _____    ______ ____
ROOT
ATOM      1  C   UNL     1      46.967   7.712  13.251  0.00  0.00    +0.000 A 
ATOM      2  C   UNL     1      47.924   6.720  13.003  0.00  0.00    +0.000 A 
ATOM      3  C   UNL     1      49.179   6.778  13.613  0.00  0.00    +0.000 A 
ATOM      4  C   UNL     1      49.503   7.828  14.485  0.00  0.00    +0.000 A 
ATOM      5  C   UNL     1      48.538   8.809  14.745  0.00  0.00    +0.000 A 
ATOM      6  C   UNL     1      47.281   8.750  14.138  0.00  0.00    +0.000 A 
ENDROOT
BRANCH   1   7
ATOM      7  C   UNL     1      45.626   7.663  12.577  0.00  0.00    +0.000 C 
BRANCH   7  10
ATOM      8  O   UNL     1      43.770   5.766  13.359  0.00  0.00    +0.000 OA
ATOM      9  C   UNL     1      44.449   5.538  12.360  0.00  0.00    +0.000 C 
ATOM     10  N   UNL     1      45.397   6.419  11.895  0.00  0.00    +0.000 N 
ATOM     11  H   UNL     1      45.916   6.159  11.061  0.00  0.00    +0.000 HD
BRANCH   9  12
ATOM     12  C   UNL     1      44.305   4.306  11.575  0.00  0.00    +0.000 A 
ATOM     13  N   UNL     1      43.729   3.187  12.064  0.00  0.00    +0.000 NA
ATOM     14  N   UNL     1      43.789   2.319  11.032  0.00  0.00    +0.000 N 
ATOM     15  C   UNL     1      44.382   2.819   9.906  0.00  0.00    +0.000 A 
ATOM     16  C   UNL     1      44.638   2.268   8.654  0.00  0.00    +0.000 A 
ATOM     17  C   UNL     1      45.280   3.122   7.767  0.00  0.00    +0.000 A 
ATOM     18  N   UNL     1      45.648   4.394   8.041  0.00  0.00    +0.000 NA
ATOM     19  C   UNL     1      45.380   4.907   9.269  0.00  0.00    +0.000 A 
ATOM     20  C   UNL     1      44.737   4.122  10.230  0.00  0.00    +0.000 A 
ATOM     21  H   UNL     1      43.403   1.390  11.162  0.00  0.00    +0.000 HD
ENDBRANCH   9  12
ENDBRANCH   7  10
ENDBRANCH   1   7
BRANCH   4  22
ATOM     22  C   UNL     1      50.868   7.892  15.135  0.00  0.00    +0.000 C 
BRANCH  22  23
ATOM     23  N   UNL     1      51.168   6.648  15.835  0.00  0.00    +0.000 NA
ATOM     24  H   UNL     1      52.164   6.613  16.046  0.00  0.00    +0.000 HD
BRANCH  23  25
ATOM     25  C   UNL     1      50.413   6.526  17.079  0.00  0.00    +0.000 C 
BRANCH  25  26
ATOM     26  C   UNL     1      49.628   5.235  17.103  0.00  0.00    +0.000 A 
ATOM     27  C   UNL     1      50.244   4.020  17.440  0.00  0.00    +0.000 A 
ATOM     28  C   UNL     1      49.504   2.836  17.467  0.00  0.00    +0.000 A 
ATOM     29  C   UNL     1      48.144   2.851  17.159  0.00  0.00    +0.000 A 
ATOM     30  C   UNL     1      47.522   4.050  16.820  0.00  0.00    +0.000 A 
ATOM     31  C   UNL     1      48.259   5.235  16.796  0.00  0.00    +0.000 A 
ENDBRANCH  25  26
ENDBRANCH  23  25
ENDBRANCH  22  23
ENDBRANCH   4  22
TORSDOF 7
ENDMDL
MODEL 4
REMARK VINA RESULT:    -7.070      2.681      3.577
REMARK INTER + INTRA:         -10.913
REMARK INTER:                 -10.064
REMARK INTRA:                  -0.849
REMARK UNBOUND:                -0.950
REMARK  Name = 
REMARK  7 active torsions:
REMARK  status: ('A' for Active; 'I' for Inactive)
REMARK    1  A    between atoms: C_2  and  C_20
REMARK    2  A    between atoms: N_3  and  C_4
REMARK    3  A    between atoms: C_4  and  C_5
REMARK    4  A    between atoms: C_8  and  C_9
REMARK    5  A    between atoms: C_9  and  N_10
REMARK    6  A    between atoms: N_10  and  C_11
REMARK    7  A    between atoms: C_11  and  C_12
REMARK                            x       y       z     vdW  Elec       q    Type
REMARK                         _______ _______ _______ _____ _____    ______ ____
ROOT
ATOM      1  C   UNL     1      46.200   6.546  12.662  0.00  0.00    +0.000 A 
ATOM      2  C   UNL     1      45.324   6.871  11.620  0.00  0.00    +0.000 A 
ATOM      3  C   UNL     1      44.477   5.902  11.079  0.00  0.00    +0.000 A 
ATOM      4  C   UNL     1      44.485   4.588  11.570  0.00  0.00    +0.000 A 
ATOM      5  C   UNL     1      45.350   4.270  12.625  0.00  0.00    +0.000 A 
ATOM      6  C   UNL     1      46.196   5.240  13.169  0.00  0.00    +0.000 A 
ENDROOT
BRANCH   1   7
ATOM      7  C   UNL     1      47.129   7.582  13.228  0.00  0.00    +0.000 C 
BRANCH   7  10
ATOM      8  O   UNL     1      48.445   8.851  15.305  0.00  0.00    +0.000 OA
ATOM      9  C   UNL     1      48.798   7.712  15.003  0.00  0.00    +0.000 C 
ATOM     10  N   UNL     1      48.205   7.002  13.985  0.00  0.00    +0.000 N 
ATOM     11  H   UNL     1      48.551   6.066  13.798  0.00  0.00    +0.000 HD
BRANCH   9  12
ATOM     12  C   UNL     1      49.880   7.010  15.703  0.00  0.00    +0.000 A 
ATOM     13  N   UNL     1      49.674   5.907  16.455  0.00  0.00    +0.000 NA
ATOM     14  N   UNL     1      50.908   5.584  16.893  0.00  0.00    +0.000 N 
ATOM     15  C   UNL     1      51.898   6.428  16.471  0.00  0.00    +0.000 A 
ATOM     16  C   UNL     1      53.272   6.451  16.691  0.00  0.00    +0.000 A 
ATOM     17  C   UNL     1      53.938   7.501  16.075  0.00  0.00    +0.000 A 
ATOM     18  N   UNL     1      53.354   8.451  15.310  0.00  0.00    +0.000 NA
ATOM     19  C   UNL     1      52.013   8.401  15.109  0.00  0.00    +0.000 A 
ATOM     20  C   UNL     1      51.255   7.380  15.689  0.00  0.00    +0.000 A 
ATOM     21  H   UNL     1      51.009   4.767  17.485  0.00  0.00    +0.000 HD
ENDBRANCH   9  12
ENDBRANCH   7  10
ENDBRANCH   1   7
BRANCH   4  22
ATOM     22  C   UNL     1      43.573   3.539  10.974  0.00  0.00    +0.000 C 
BRANCH  22  23
ATOM     23  N   UNL     1      43.900   3.305   9.572  0.00  0.00    +0.000 NA
ATOM     24  H   UNL     1      44.451   4.087   9.220  0.00  0.00    +0.000 HD
BRANCH  23  25
ATOM     25  C   UNL     1      44.656   2.069   9.386  0.00  0.00    +0.000 C 
BRANCH  25  26
ATOM     26  C   UNL     1      45.659   2.221   8.266  0.00  0.00    +0.000 A 
ATOM     27  C   UNL     1      45.778   3.427   7.560  0.00  0.00    +0.000 A 
ATOM     28  C   UNL     1      46.717   3.556   6.533  0.00  0.00    +0.000 A 
ATOM     29  C   UNL     1      47.545   2.485   6.202  0.00  0.00    +0.000 A 
ATOM     30  C   UNL     1      47.436   1.281   6.894  0.00  0.00    +0.000 A 
ATOM     31  C   UNL     1      46.500   1.152   7.922  0.00  0.00    +0.000 A 
ENDBRANCH  25  26
ENDBRANCH  23  25
ENDBRANCH  22  23
ENDBRANCH   4  22
TORSDOF 7
ENDMDL
MODEL 5
REMARK VINA RESULT:    -6.992      2.848      4.117
REMARK INTER + INTRA:         -10.803
REMARK INTER:                  -9.986
REMARK INTRA:                  -0.817
REMARK UNBOUND:                -0.950
REMARK  Name = 
REMARK  7 active torsions:
REMARK  status: ('A' for Active; 'I' for Inactive)
REMARK    1  A    between atoms: C_2  and  C_20
REMARK    2  A    between atoms: N_3  and  C_4
REMARK    3  A    between atoms: C_4  and  C_5
REMARK    4  A    between atoms: C_8  and  C_9
REMARK    5  A    between atoms: C_9  and  N_10
REMARK    6  A    between atoms: N_10  and  C_11
REMARK    7  A    between atoms: C_11  and  C_12
REMARK                            x       y       z     vdW  Elec       q    Type
REMARK                         _______ _______ _______ _____ _____    ______ ____
ROOT
ATOM      1  C   UNL     1      47.977   6.052  14.919  0.00  0.00    +0.000 A 
ATOM      2  C   UNL     1      47.687   6.555  13.645  0.00  0.00    +0.000 A 
ATOM      3  C   UNL     1      46.838   5.855  12.785  0.00  0.00    +0.000 A 
ATOM      4  C   UNL     1      46.259   4.640  13.181  0.00  0.00    +0.000 A 
ATOM      5  C   UNL     1      46.538   4.149  14.463  0.00  0.00    +0.000 A 
ATOM      6  C   UNL     1      47.385   4.850  15.326  0.00  0.00    +0.000 A 
ENDROOT
BRANCH   1   7
ATOM      7  C   UNL     1      48.910   6.791  15.836  0.00  0.00    +0.000 C 
BRANCH   7  10
ATOM      8  O   UNL     1      49.482   6.218  18.482  0.00  0.00    +0.000 OA
ATOM      9  C   UNL     1      50.215   5.749  17.614  0.00  0.00    +0.000 C 
ATOM     10  N   UNL     1      50.012   5.979  16.273  0.00  0.00    +0.000 N 
ATOM     11  H   UNL     1      50.660   5.554  15.617  0.00  0.00    +0.000 HD
BRANCH   9  12
ATOM     12  C   UNL     1      51.369   4.900  17.932  0.00  0.00    +0.000 A 
ATOM     13  N   UNL     1      52.514   5.386  18.458  0.00  0.00    +0.000 NA
ATOM     14  N   UNL     1      53.289   4.291  18.605  0.00  0.00    +0.000 N 
ATOM     15  C   UNL     1      52.705   3.126  18.191  0.00  0.00    +0.000 A 
ATOM     16  C   UNL     1      53.150   1.807  18.170  0.00  0.00    +0.000 A 
ATOM     17  C   UNL     1      52.235   0.898  17.655  0.00  0.00    +0.000 A 
ATOM     18  N   UNL     1      51.000   1.209  17.201  0.00  0.00    +0.000 NA
ATOM     19  C   UNL     1      50.592   2.503  17.239  0.00  0.00    +0.000 A 
ATOM     20  C   UNL     1      51.443   3.492  17.739  0.00  0.00    +0.000 A 
ATOM     21  H   UNL     1      54.217   4.408  18.997  0.00  0.00    +0.000 HD
ENDBRANCH   9  12
ENDBRANCH   7  10
ENDBRANCH   1   7
BRANCH   4  22
ATOM     22  C   UNL     1      45.349   3.881  12.242  0.00  0.00    +0.000 C 
BRANCH  22  23
ATOM     23  N   UNL     1      44.716   4.786  11.289  0.00  0.00    +0.000 NA
ATOM     24  H   UNL     1      45.429   5.374  10.858  0.00  0.00    +0.000 HD
BRANCH  23  25
ATOM     25  C   UNL     1      44.001   4.063  10.241  0.00  0.00    +0.000 C 
BRANCH  25  26
ATOM     26  C   UNL     1      44.969   3.490   9.231  0.00  0.00    +0.000 A 
ATOM     27  C   UNL     1      45.648   4.321   8.329  0.00  0.00    +0.000 A 
ATOM     28  C   UNL     1      46.547   3.779   7.407  0.00  0.00    +0.000 A 
ATOM     29  C   UNL     1      46.777   2.404   7.377  0.00  0.00    +0.000 A 
ATOM     30  C   UNL     1      46.106   1.568   8.267  0.00  0.00    +0.000 A 
ATOM     31  C   UNL     1      45.210   2.108   9.190  0.00  0.00    +0.000 A 
ENDBRANCH  25  26
ENDBRANCH  23  25
ENDBRANCH  22  23
ENDBRANCH   4  22
TORSDOF 7
ENDMDL
MODEL 6
REMARK VINA RESULT:    -6.956      3.300      8.411
REMARK INTER + INTRA:         -10.753
REMARK INTER:                  -8.886
REMARK INTRA:                  -1.867
REMARK UNBOUND:                -0.950
REMARK  Name = 
REMARK  7 active torsions:
REMARK  status: ('A' for Active; 'I' for Inactive)
REMARK    1  A    between atoms: C_2  and  C_20
REMARK    2  A    between atoms: N_3  and  C_4
REMARK    3  A    between atoms: C_4  and  C_5
REMARK    4  A    between atoms: C_8  and  C_9
REMARK    5  A    between atoms: C_9  and  N_10
REMARK    6  A    between atoms: N_10  and  C_11
REMARK    7  A    between atoms: C_11  and  C_12
REMARK                            x       y       z     vdW  Elec       q    Type
REMARK                         _______ _______ _______ _____ _____    ______ ____
ROOT
ATOM      1  C   UNL     1      49.384   7.839  15.913  0.00  0.00    +0.000 A 
ATOM      2  C   UNL     1      48.660   8.389  16.978  0.00  0.00    +0.000 A 
ATOM      3  C   UNL     1      48.908   7.979  18.290  0.00  0.00    +0.000 A 
ATOM      4  C   UNL     1      49.887   7.013  18.565  0.00  0.00    +0.000 A 
ATOM      5  C   UNL     1      50.622   6.477  17.500  0.00  0.00    +0.000 A 
ATOM      6  C   UNL     1      50.377   6.889  16.187  0.00  0.00    +0.000 A 
ENDROOT
BRANCH   1   7
ATOM      7  C   UNL     1      49.101   8.261  14.500  0.00  0.00    +0.000 C 
BRANCH   7  10
ATOM      8  O   UNL     1      48.435   6.074  12.940  0.00  0.00    +0.000 OA
ATOM      9  C   UNL     1      47.532   6.823  13.309  0.00  0.00    +0.000 C 
ATOM     10  N   UNL     1      47.765   7.934  14.085  0.00  0.00    +0.000 N 
ATOM     11  H   UNL     1      46.965   8.502  14.350  0.00  0.00    +0.000 HD
BRANCH   9  12
ATOM     12  C   UNL     1      46.125   6.594  12.955  0.00  0.00    +0.000 A 
ATOM     13  N   UNL     1      45.257   7.600  12.712  0.00  0.00    +0.000 NA
ATOM     14  N   UNL     1      44.105   6.963  12.416  0.00  0.00    +0.000 N 
ATOM     15  C   UNL     1      44.184   5.599  12.464  0.00  0.00    +0.000 A 
ATOM     16  C   UNL     1      43.249   4.593  12.233  0.00  0.00    +0.000 A 
ATOM     17  C   UNL     1      43.737   3.303  12.395  0.00  0.00    +0.000 A 
ATOM     18  N   UNL     1      45.005   2.989  12.744  0.00  0.00    +0.000 NA
ATOM     19  C   UNL     1      45.896   3.990  12.957  0.00  0.00    +0.000 A 
ATOM     20  C   UNL     1      45.499   5.323  12.819  0.00  0.00    +0.000 A 
ATOM     21  H   UNL     1      43.291   7.523  12.187  0.00  0.00    +0.000 HD
ENDBRANCH   9  12
ENDBRANCH   7  10
ENDBRANCH   1   7
BRANCH   4  22
ATOM     22  C   UNL     1      50.145   6.565  19.987  0.00  0.00    +0.000 C 
BRANCH  22  23
ATOM     23  N   UNL     1      50.181   5.109  20.073  0.00  0.00    +0.000 NA
ATOM     24  H   UNL     1      50.659   4.834  20.930  0.00  0.00    +0.000 HD
BRANCH  23  25
ATOM     25  C   UNL     1      48.841   4.529  20.069  0.00  0.00    +0.000 C 
BRANCH  25  26
ATOM     26  C   UNL     1      48.473   4.044  18.685  0.00  0.00    +0.000 A 
ATOM     27  C   UNL     1      47.419   4.632  17.970  0.00  0.00    +0.000 A 
ATOM     28  C   UNL     1      47.096   4.181  16.688  0.00  0.00    +0.000 A 
ATOM     29  C   UNL     1      47.819   3.140  16.108  0.00  0.00    +0.000 A 
ATOM     30  C   UNL     1      48.867   2.546  16.809  0.00  0.00    +0.000 A 
ATOM     31  C   UNL     1      49.193   2.998  18.089  0.00  0.00    +0.000 A 
ENDBRANCH  25  26
ENDBRANCH  23  25
ENDBRANCH  22  23
ENDBRANCH   4  22
TORSDOF 7
ENDMDL
MODEL 7
REMARK VINA RESULT:    -6.706      4.171      5.361
REMARK INTER + INTRA:         -10.400
REMARK INTER:                  -9.602
REMARK INTRA:                  -0.798
REMARK UNBOUND:                -0.950
REMARK  Name = 
REMARK  7 active torsions:
REMARK  status: ('A' for Active; 'I' for Inactive)
REMARK    1  A    between atoms: C_2  and  C_20
REMARK    2  A    between atoms: N_3  and  C_4
REMARK    3  A    between atoms: C_4  and  C_5
REMARK    4  A    between atoms: C_8  and  C_9
REMARK    5  A    between atoms: C_9  and  N_10
REMARK    6  A    between atoms: N_10  and  C_11
REMARK    7  A    between atoms: C_11  and  C_12
REMARK                            x       y       z     vdW  Elec       q    Type
REMARK                         _______ _______ _______ _____ _____    ______ ____
ROOT
ATOM      1  C   UNL     1      45.647   6.998  12.538  0.00  0.00    +0.000 A 
ATOM      2  C   UNL     1      44.467   7.141  11.799  0.00  0.00    +0.000 A 
ATOM      3  C   UNL     1      43.795   6.018  11.312  0.00  0.00    +0.000 A 
ATOM      4  C   UNL     1      44.288   4.727  11.556  0.00  0.00    +0.000 A 
ATOM      5  C   UNL     1      45.459   4.586  12.311  0.00  0.00    +0.000 A 
ATOM      6  C   UNL     1      46.130   5.710  12.801  0.00  0.00    +0.000 A 
ENDROOT
BRANCH   1   7
ATOM      7  C   UNL     1      46.384   8.206  13.041  0.00  0.00    +0.000 C 
BRANCH   7  10
ATOM      8  O   UNL     1      48.315  10.176  12.819  0.00  0.00    +0.000 OA
ATOM      9  C   UNL     1      48.682   9.023  13.040  0.00  0.00    +0.000 C 
ATOM     10  N   UNL     1      47.797   7.978  13.165  0.00  0.00    +0.000 N 
ATOM     11  H   UNL     1      48.179   7.055  13.351  0.00  0.00    +0.000 HD
BRANCH   9  12
ATOM     12  C   UNL     1      50.097   8.663  13.193  0.00  0.00    +0.000 A 
ATOM     13  N   UNL     1      50.572   7.990  14.263  0.00  0.00    +0.000 NA
ATOM     14  N   UNL     1      51.888   7.857  14.000  0.00  0.00    +0.000 N 
ATOM     15  C   UNL     1      52.288   8.418  12.819  0.00  0.00    +0.000 A 
ATOM     16  C   UNL     1      53.527   8.503  12.189  0.00  0.00    +0.000 A 
ATOM     17  C   UNL     1      53.512   9.176  10.975  0.00  0.00    +0.000 A 
ATOM     18  N   UNL     1      52.417   9.723  10.401  0.00  0.00    +0.000 NA
ATOM     19  C   UNL     1      51.221   9.621  11.036  0.00  0.00    +0.000 A 
ATOM     20  C   UNL     1      51.135   8.961  12.265  0.00  0.00    +0.000 A 
ATOM     21  H   UNL     1      52.466   7.367  14.674  0.00  0.00    +0.000 HD
ENDBRANCH   9  12
ENDBRANCH   7  10
ENDBRANCH   1   7
BRANCH   4  22
ATOM     22  C   UNL     1      43.562   3.514  11.018  0.00  0.00    +0.000 C 
BRANCH  22  23
ATOM     23  N   UNL     1      43.914   3.276   9.623  0.00  0.00    +0.000 NA
ATOM     24  H   UNL     1      44.443   4.073   9.269  0.00  0.00    +0.000 HD
BRANCH  23  25
ATOM     25  C   UNL     1      44.714   2.065   9.460  0.00  0.00    +0.000 C 
BRANCH  25  26
ATOM     26  C   UNL     1      45.705   2.227   8.331  0.00  0.00    +0.000 A 
ATOM     27  C   UNL     1      46.538   1.168   7.942  0.00  0.00    +0.000 A 
ATOM     28  C   UNL     1      47.444   1.330   6.890  0.00  0.00    +0.000 A 
ATOM     29  C   UNL     1      47.527   2.548   6.218  0.00  0.00    +0.000 A 
ATOM     30  C   UNL     1      46.707   3.609   6.596  0.00  0.00    +0.000 A 
ATOM     31  C   UNL     1      45.800   3.448   7.644  0.00  0.00    +0.000 A 
ENDBRANCH  25  26
ENDBRANCH  23  25
ENDBRANCH  22  23
ENDBRANCH   4  22
TORSDOF 7
ENDMDL
MODEL 8
REMARK VINA RESULT:    -6.684      3.520      9.955
REMARK INTER + INTRA:         -10.369
REMARK INTER:                  -8.768
REMARK INTRA:                  -1.601
REMARK UNBOUND:                -0.950
REMARK  Name = 
REMARK  7 active torsions:
REMARK  status: ('A' for Active; 'I' for Inactive)
REMARK    1  A    between atoms: C_2  and  C_20
REMARK    2  A    between atoms: N_3  and  C_4
REMARK    3  A    between atoms: C_4  and  C_5
REMARK    4  A    between atoms: C_8  and  C_9
REMARK    5  A    between atoms: C_9  and  N_10
REMARK    6  A    between atoms: N_10  and  C_11
REMARK    7  A    between atoms: C_11  and  C_12
REMARK                            x       y       z     vdW  Elec       q    Type
REMARK                         _______ _______ _______ _____ _____    ______ ____
ROOT
ATOM      1  C   UNL     1      48.570   4.384  17.152  0.00  0.00    +0.000 A 
ATOM      2  C   UNL     1      49.423   3.585  17.923  0.00  0.00    +0.000 A 
ATOM      3  C   UNL     1      50.610   4.108  18.439  0.00  0.00    +0.000 A 
ATOM      4  C   UNL     1      50.969   5.443  18.196  0.00  0.00    +0.000 A 
ATOM      5  C   UNL     1      50.106   6.245  17.439  0.00  0.00    +0.000 A 
ATOM      6  C   UNL     1      48.916   5.722  16.926  0.00  0.00    +0.000 A 
ENDROOT
BRANCH   1   7
ATOM      7  C   UNL     1      47.305   3.815  16.577  0.00  0.00    +0.000 C 
BRANCH   7  10
ATOM      8  O   UNL     1      47.335   3.088  13.907  0.00  0.00    +0.000 OA
ATOM      9  C   UNL     1      46.835   4.170  14.210  0.00  0.00    +0.000 C 
ATOM     10  N   UNL     1      46.775   4.617  15.509  0.00  0.00    +0.000 N 
ATOM     11  H   UNL     1      46.344   5.522  15.678  0.00  0.00    +0.000 HD
BRANCH   9  12
ATOM     12  C   UNL     1      46.256   5.077  13.211  0.00  0.00    +0.000 A 
ATOM     13  N   UNL     1      46.992   5.974  12.521  0.00  0.00    +0.000 NA
ATOM     14  N   UNL     1      46.091   6.578  11.719  0.00  0.00    +0.000 N 
ATOM     15  C   UNL     1      44.810   6.122  11.863  0.00  0.00    +0.000 A 
ATOM     16  C   UNL     1      43.613   6.468  11.244  0.00  0.00    +0.000 A 
ATOM     17  C   UNL     1      42.506   5.757  11.687  0.00  0.00    +0.000 A 
ATOM     18  N   UNL     1      42.530   4.794  12.637  0.00  0.00    +0.000 NA
ATOM     19  C   UNL     1      43.712   4.474  13.220  0.00  0.00    +0.000 A 
ATOM     20  C   UNL     1      44.883   5.137  12.840  0.00  0.00    +0.000 A 
ATOM     21  H   UNL     1      46.418   7.302  11.088  0.00  0.00    +0.000 HD
ENDBRANCH   9  12
ENDBRANCH   7  10
ENDBRANCH   1   7
BRANCH   4  22
ATOM     22  C   UNL     1      52.262   6.002  18.748  0.00  0.00    +0.000 C 
BRANCH  22  23
ATOM     23  N   UNL     1      52.264   5.961  20.206  0.00  0.00    +0.000 NA
ATOM     24  H   UNL     1      53.226   5.996  20.542  0.00  0.00    +0.000 HD
BRANCH  23  25
ATOM     25  C   UNL     1      51.517   7.075  20.785  0.00  0.00    +0.000 C 
BRANCH  25  26
ATOM     26  C   UNL     1      50.086   6.674  21.057  0.00  0.00    +0.000 A 
ATOM     27  C   UNL     1      49.784   5.463  21.698  0.00  0.00    +0.000 A 
ATOM     28  C   UNL     1      48.456   5.109  21.952  0.00  0.00    +0.000 A 
ATOM     29  C   UNL     1      47.419   5.958  21.570  0.00  0.00    +0.000 A 
ATOM     30  C   UNL     1      47.706   7.162  20.930  0.00  0.00    +0.000 A 
ATOM     31  C   UNL     1      49.031   7.519  20.679  0.00  0.00    +0.000 A 
ENDBRANCH  25  26
ENDBRANCH  23  25
ENDBRANCH  22  23
ENDBRANCH   4  22
TORSDOF 7
ENDMDL
MODEL 9
REMARK VINA RESULT:    -6.641      5.118      8.851
REMARK INTER + INTRA:         -10.308
REMARK INTER:                  -9.425
REMARK INTRA:                  -0.883
REMARK UNBOUND:                -0.950
REMARK  Name = 
REMARK  7 active torsions:
REMARK  status: ('A' for Active; 'I' for Inactive)
REMARK    1  A    between atoms: C_2  and  C_20
REMARK    2  A    between atoms: N_3  and  C_4
REMARK    3  A    between atoms: C_4  and  C_5
REMARK    4  A    between atoms: C_8  and  C_9
REMARK    5  A    between atoms: C_9  and  N_10
REMARK    6  A    between atoms: N_10  and  C_11
REMARK    7  A    between atoms: C_11  and  C_12
REMARK                            x       y       z     vdW  Elec       q    Type
REMARK                         _______ _______ _______ _____ _____    ______ ____
ROOT
ATOM      1  C   UNL     1      45.903   8.262  12.039  0.00  0.00    +0.000 A 
ATOM      2  C   UNL     1      47.181   7.703  12.156  0.00  0.00    +0.000 A 
ATOM      3  C   UNL     1      48.316   8.516  12.122  0.00  0.00    +0.000 A 
ATOM      4  C   UNL     1      48.197   9.906  11.974  0.00  0.00    +0.000 A 
ATOM      5  C   UNL     1      46.916  10.465  11.876  0.00  0.00    +0.000 A 
ATOM      6  C   UNL     1      45.780   9.651  11.913  0.00  0.00    +0.000 A 
ENDROOT
BRANCH   1   7
ATOM      7  C   UNL     1      44.684   7.386  12.051  0.00  0.00    +0.000 C 
BRANCH   7  10
ATOM      8  O   UNL     1      42.696   5.769  11.006  0.00  0.00    +0.000 OA
ATOM      9  C   UNL     1      43.860   5.379  10.934  0.00  0.00    +0.000 C 
ATOM     10  N   UNL     1      44.914   6.112  11.425  0.00  0.00    +0.000 N 
ATOM     11  H   UNL     1      45.848   5.723  11.325  0.00  0.00    +0.000 HD
BRANCH   9  12
ATOM     12  C   UNL     1      44.225   4.100  10.315  0.00  0.00    +0.000 A 
ATOM     13  N   UNL     1      43.720   2.916  10.723  0.00  0.00    +0.000 NA
ATOM     14  N   UNL     1      44.294   2.020   9.895  0.00  0.00    +0.000 N 
ATOM     15  C   UNL     1      45.153   2.564   8.979  0.00  0.00    +0.000 A 
ATOM     16  C   UNL     1      45.931   2.004   7.970  0.00  0.00    +0.000 A 
ATOM     17  C   UNL     1      46.685   2.919   7.248  0.00  0.00    +0.000 A 
ATOM     18  N   UNL     1      46.700   4.255   7.461  0.00  0.00    +0.000 NA
ATOM     19  C   UNL     1      45.927   4.773   8.448  0.00  0.00    +0.000 A 
ATOM     20  C   UNL     1      45.133   3.930   9.231  0.00  0.00    +0.000 A 
ATOM     21  H   UNL     1      44.058   1.040  10.007  0.00  0.00    +0.000 HD
ENDBRANCH   9  12
ENDBRANCH   7  10
ENDBRANCH   1   7
BRANCH   4  22
ATOM     22  C   UNL     1      49.429  10.782  11.928  0.00  0.00    +0.000 C 
BRANCH  22  23
ATOM     23  N   UNL     1      50.637   9.972  11.824  0.00  0.00    +0.000 NA
ATOM     24  H   UNL     1      50.377   8.998  11.674  0.00  0.00    +0.000 HD
BRANCH  23  25
ATOM     25  C   UNL     1      51.496  10.410  10.727  0.00  0.00    +0.000 C 
BRANCH  25  26
ATOM     26  C   UNL     1      52.140   9.223  10.047  0.00  0.00    +0.000 A 
ATOM     27  C   UNL     1      51.902   7.916  10.496  0.00  0.00    +0.000 A 
ATOM     28  C   UNL     1      52.496   6.828   9.851  0.00  0.00    +0.000 A 
ATOM     29  C   UNL     1      53.332   7.033   8.755  0.00  0.00    +0.000 A 
ATOM     30  C   UNL     1      53.578   8.327   8.301  0.00  0.00    +0.000 A 
ATOM     31  C   UNL     1      52.983   9.415   8.941  0.00  0.00    +0.000 A 
ENDBRANCH  25  26
ENDBRANCH  23  25
ENDBRANCH  22  23
ENDBRANCH   4  22
TORSDOF 7
ENDMDL
