MODEL 1
REMARK VINA RESULT:    -7.924      0.000      0.000
REMARK INTER + INTRA:         -10.913
REMARK INTER:                 -10.241
REMARK INTRA:                  -0.672
REMARK UNBOUND:                -0.672
REMARK  Name = 
REMARK  5 active torsions:
REMARK  status: ('A' for Active; 'I' for Inactive)
REMARK    1  A    between atoms: C_2  and  C_4
REMARK    2  A    between atoms: C_7  and  N_8
REMARK    3  A    between atoms: N_8  and  C_9
REMARK    4  A    between atoms: C_9  and  C_10
REMARK    5  A    between atoms: C_14  and  C_15
REMARK                            x       y       z     vdW  Elec       q    Type
REMARK                         _______ _______ _______ _____ _____    ______ ____
ROOT
ATOM      1  C   UNL     1      43.716   4.097  11.044  0.00  0.00    +0.000 C 
ENDROOT
BRANCH   1   2
ATOM      2  C   UNL     1      44.859   4.523  11.927  0.00  0.00    +0.000 A 
ATOM      3  C   UNL     1      45.484   3.605  12.765  0.00  0.00    +0.000 A 
ATOM      4  N   UNL     1      46.520   3.905  13.573  0.00  0.00    +0.000 NA
ATOM      5  C   UNL     1      46.980   5.173  13.518  0.00  0.00    +0.000 A 
ATOM      6  C   UNL     1      46.457   6.174  12.697  0.00  0.00    +0.000 A 
ATOM      7  C   UNL     1      45.341   5.841  11.929  0.00  0.00    +0.000 A 
BRANCH   6   8
ATOM      8  C   UNL     1      47.176   7.495  12.606  0.00  0.00    +0.000 C 
ATOM      9  C   UNL     1      48.430   7.465  11.721  0.00  0.00    +0.000 C 
ATOM     10  C   UNL     1      49.209   8.765  11.926  0.00  0.00    +0.000 C 
ATOM     11  N   UNL     1      48.399   9.952  11.636  0.00  0.00    +0.000 NA
ATOM     12  C   UNL     1      47.130   9.965  12.372  0.00  0.00    +0.000 C 
ATOM     13  C   UNL     1      46.313   8.683  12.166  0.00  0.00    +0.000 C 
ATOM     14  H   UNL     1      48.204   9.987  10.636  0.00  0.00    +0.000 HD
ENDBRANCH   6   8
ENDBRANCH   1   2
BRANCH   1  15
ATOM     15  N   UNL     1      43.918   4.655   9.709  0.00  0.00    +0.000 N 
ATOM     16  H   UNL     1      44.189   5.635   9.751  0.00  0.00    +0.000 HD
BRANCH  15  20
ATOM     17  C   UNL     1      46.570   2.450   7.489  0.00  0.00    +0.000 A 
ATOM     18  C   UNL     1      46.514   3.828   7.353  0.00  0.00    +0.000 A 
ATOM     19  N   UNL     1      45.643   4.593   8.059  0.00  0.00    +0.000 NA
ATOM     20  C   UNL     1      44.818   3.941   8.907  0.00  0.00    +0.000 A 
ATOM     21  C   UNL     1      44.897   2.547   9.031  0.00  0.00    +0.000 A 
ATOM     22  N   UNL     1      45.754   1.765   8.331  0.00  0.00    +0.000 NA
BRANCH  17  24
ATOM     23  N   UNL     1      48.711   2.336   6.364  0.00  0.00    +0.000 N 
ATOM     24  C   UNL     1      47.561   1.671   6.699  0.00  0.00    +0.000 C 
ATOM     25  O   UNL     1      47.364   0.510   6.365  0.00  0.00    +0.000 OA
ATOM     26  H   UNL     1      49.411   1.864   5.817  0.00  0.00    +0.000 HD
ATOM     27  H   UNL     1      48.833   3.304   6.642  0.00  0.00    +0.000 HD
ENDBRANCH  17  24
ENDBRANCH  15  20
ENDBRANCH   1  15
TORSDOF 5
ENDMDL
MODEL 2
REMARK VINA RESULT:    -7.467      1.547      2.355
REMARK INTER + INTRA:         -10.321
REMARK INTER:                  -9.681
REMARK INTRA:                  -0.641
REMARK UNBOUND:                -0.672
REMARK  Name = 
REMARK  5 active torsions:
REMARK  status: ('A' for Active; 'I' for Inactive)
REMARK    1  A    between atoms: C_2  and  C_4
REMARK    2  A    between atoms: C_7  and  N_8
REMARK    3  A    between atoms: N_8  and  C_9
REMARK    4  A    between atoms: C_9  and  C_10
REMARK    5  A    between atoms: C_14  and  C_15
REMARK                            x       y       z     vdW  Elec       q    Type
REMARK                         _______ _______ _______ _____ _____    ______ ____
ROOT
ATOM      1  C   UNL     1      44.520   4.797  11.309  0.00  0.00    +0.000 C 
ENDROOT
BRANCH   1   2
ATOM      2  C   UNL     1      45.110   6.164  11.528  0.00  0.00    +0.000 A 
ATOM      3  C   UNL     1      44.315   7.301  11.431  0.00  0.00    +0.000 A 
ATOM      4  N   UNL     1      44.765   8.556  11.627  0.00  0.00    +0.000 NA
ATOM      5  C   UNL     1      46.064   8.683  11.973  0.00  0.00    +0.000 A 
ATOM      6  C   UNL     1      46.953   7.619  12.131  0.00  0.00    +0.000 A 
ATOM      7  C   UNL     1      46.465   6.342  11.850  0.00  0.00    +0.000 A 
BRANCH   6   8
ATOM      8  C   UNL     1      48.327   7.889  12.688  0.00  0.00    +0.000 C 
ATOM      9  C   UNL     1      48.701   7.003  13.885  0.00  0.00    +0.000 C 
ATOM     10  C   UNL     1      49.979   7.550  14.523  0.00  0.00    +0.000 C 
ATOM     11  N   UNL     1      51.089   7.626  13.567  0.00  0.00    +0.000 NA
ATOM     12  C   UNL     1      50.738   8.364  12.349  0.00  0.00    +0.000 C 
ATOM     13  C   UNL     1      49.472   7.822  11.673  0.00  0.00    +0.000 C 
ATOM     14  H   UNL     1      51.376   6.681  13.313  0.00  0.00    +0.000 HD
ENDBRANCH   6   8
ENDBRANCH   1   2
BRANCH   1  15
ATOM     15  N   UNL     1      44.060   4.697   9.926  0.00  0.00    +0.000 N 
ATOM     16  H   UNL     1      43.857   5.613   9.533  0.00  0.00    +0.000 HD
BRANCH  15  20
ATOM     17  C   UNL     1      46.590   2.501   7.559  0.00  0.00    +0.000 A 
ATOM     18  C   UNL     1      46.544   3.882   7.448  0.00  0.00    +0.000 A 
ATOM     19  N   UNL     1      45.712   4.644   8.203  0.00  0.00    +0.000 NA
ATOM     20  C   UNL     1      44.916   3.987   9.075  0.00  0.00    +0.000 A 
ATOM     21  C   UNL     1      44.985   2.591   9.173  0.00  0.00    +0.000 A 
ATOM     22  N   UNL     1      45.803   1.811   8.424  0.00  0.00    +0.000 NA
BRANCH  17  24
ATOM     23  N   UNL     1      48.633   2.412   6.263  0.00  0.00    +0.000 N 
ATOM     24  C   UNL     1      47.537   1.725   6.715  0.00  0.00    +0.000 C 
ATOM     25  O   UNL     1      47.351   0.547   6.437  0.00  0.00    +0.000 OA
ATOM     26  H   UNL     1      49.300   1.942   5.676  0.00  0.00    +0.000 HD
ATOM     27  H   UNL     1      48.746   3.392   6.499  0.00  0.00    +0.000 HD
ENDBRANCH  17  24
ENDBRANCH  15  20
ENDBRANCH   1  15
TORSDOF 5
ENDMDL
MODEL 3
REMARK VINA RESULT:    -7.052      2.049      3.311
REMARK INTER + INTRA:          -9.785
REMARK INTER:                  -9.207
REMARK INTRA:                  -0.578
REMARK UNBOUND:                -0.672
REMARK  Name = 
REMARK  5 active torsions:
REMARK  status: ('A' for Active; 'I' for Inactive)
REMARK    1  A    between atoms: C_2  and  C_4
REMARK    2  A    between atoms: C_7  and  N_8
REMARK    3  A    between atoms: N_8  and  C_9
REMARK    4  A    between atoms: C_9  and  C_10
REMARK    5  A    between atoms: C_14  and  C_15
REMARK                            x       y       z     vdW  Elec       q    Type
REMARK                         _______ _______ _______ _____ _____    ______ ____
ROOT
ATOM      1  C   UNL     1      44.377   3.285  11.642  0.00  0.00    +0.000 C 
ENDROOT
BRANCH   1   2
ATOM      2  C   UNL     1      45.184   4.422  12.210  0.00  0.00    +0.000 A 
ATOM      3  C   UNL     1      44.917   5.734  11.836  0.00  0.00    +0.000 A 
ATOM      4  N   UNL     1      45.584   6.805  12.311  0.00  0.00    +0.000 NA
ATOM      5  C   UNL     1      46.540   6.560  13.231  0.00  0.00    +0.000 A 
ATOM      6  C   UNL     1      46.879   5.293  13.708  0.00  0.00    +0.000 A 
ATOM      7  C   UNL     1      46.213   4.206  13.139  0.00  0.00    +0.000 A 
BRANCH   6   8
ATOM      8  C   UNL     1      47.843   5.178  14.861  0.00  0.00    +0.000 C 
ATOM      9  C   UNL     1      48.430   6.520  15.322  0.00  0.00    +0.000 C 
ATOM     10  C   UNL     1      49.579   6.249  16.293  0.00  0.00    +0.000 C 
ATOM     11  N   UNL     1      49.157   5.445  17.444  0.00  0.00    +0.000 NA
ATOM     12  C   UNL     1      48.481   4.203  17.052  0.00  0.00    +0.000 C 
ATOM     13  C   UNL     1      47.306   4.447  16.096  0.00  0.00    +0.000 C 
ATOM     14  H   UNL     1      48.527   5.998  18.024  0.00  0.00    +0.000 HD
ENDBRANCH   6   8
ENDBRANCH   1   2
BRANCH   1  15
ATOM     15  N   UNL     1      43.971   3.629  10.281  0.00  0.00    +0.000 N 
ATOM     16  H   UNL     1      43.754   4.619  10.195  0.00  0.00    +0.000 HD
BRANCH  15  20
ATOM     17  C   UNL     1      46.563   2.634   7.262  0.00  0.00    +0.000 A 
ATOM     18  C   UNL     1      46.119   1.670   8.154  0.00  0.00    +0.000 A 
ATOM     19  N   UNL     1      45.272   1.961   9.174  0.00  0.00    +0.000 NA
ATOM     20  C   UNL     1      44.880   3.248   9.286  0.00  0.00    +0.000 A 
ATOM     21  C   UNL     1      45.337   4.204   8.368  0.00  0.00    +0.000 A 
ATOM     22  N   UNL     1      46.188   3.937   7.347  0.00  0.00    +0.000 NA
BRANCH  17  24
ATOM     23  N   UNL     1      48.789   2.608   6.312  0.00  0.00    +0.000 N 
ATOM     24  C   UNL     1      47.477   2.248   6.154  0.00  0.00    +0.000 C 
ATOM     25  O   UNL     1      47.085   1.649   5.161  0.00  0.00    +0.000 OA
ATOM     26  H   UNL     1      49.451   2.387   5.588  0.00  0.00    +0.000 HD
ATOM     27  H   UNL     1      49.076   3.120   7.140  0.00  0.00    +0.000 HD
ENDBRANCH  17  24
ENDBRANCH  15  20
ENDBRANCH   1  15
TORSDOF 5
ENDMDL
MODEL 4
REMARK VINA RESULT:    -6.997      2.649      6.588
REMARK INTER + INTRA:          -9.715
REMARK INTER:                  -9.021
REMARK INTRA:                  -0.693
REMARK UNBOUND:                -0.672
REMARK  Name = 
REMARK  5 active torsions:
REMARK  status: ('A' for Active; 'I' for Inactive)
REMARK    1  A    between atoms: C_2  and  C_4
REMARK    2  A    between atoms: C_7  and  N_8
REMARK    3  A    between atoms: N_8  and  C_9
REMARK    4  A    between atoms: C_9  and  C_10
REMARK    5  A    between atoms: C_14  and  C_15
REMARK                            x       y       z     vdW  Elec       q    Type
REMARK                         _______ _______ _______ _____ _____    ______ ____
ROOT
ATOM      1  C   UNL     1      43.797   6.234  11.261  0.00  0.00    +0.000 C 
ENDROOT
BRANCH   1   2
ATOM      2  C   UNL     1      43.988   4.814  10.799  0.00  0.00    +0.000 A 
ATOM      3  C   UNL     1      43.311   3.771  11.422  0.00  0.00    +0.000 A 
ATOM      4  N   UNL     1      43.418   2.477  11.058  0.00  0.00    +0.000 NA
ATOM      5  C   UNL     1      44.212   2.213   9.998  0.00  0.00    +0.000 A 
ATOM      6  C   UNL     1      44.919   3.175   9.275  0.00  0.00    +0.000 A 
ATOM      7  C   UNL     1      44.836   4.492   9.728  0.00  0.00    +0.000 A 
BRANCH   6   8
ATOM      8  C   UNL     1      45.628   2.764   8.010  0.00  0.00    +0.000 C 
ATOM      9  C   UNL     1      46.492   3.872   7.390  0.00  0.00    +0.000 C 
ATOM     10  C   UNL     1      46.930   3.432   5.993  0.00  0.00    +0.000 C 
ATOM     11  N   UNL     1      47.656   2.158   6.012  0.00  0.00    +0.000 NA
ATOM     12  C   UNL     1      46.917   1.096   6.703  0.00  0.00    +0.000 C 
ATOM     13  C   UNL     1      46.486   1.500   8.119  0.00  0.00    +0.000 C 
ATOM     14  H   UNL     1      48.555   2.294   6.474  0.00  0.00    +0.000 HD
ENDBRANCH   6   8
ENDBRANCH   1   2
BRANCH   1  15
ATOM     15  N   UNL     1      44.403   6.388  12.581  0.00  0.00    +0.000 N 
ATOM     16  H   UNL     1      44.236   5.572  13.166  0.00  0.00    +0.000 HD
BRANCH  15  20
ATOM     17  C   UNL     1      48.427   7.180  12.668  0.00  0.00    +0.000 A 
ATOM     18  C   UNL     1      47.528   8.150  12.253  0.00  0.00    +0.000 A 
ATOM     19  N   UNL     1      46.191   7.924  12.197  0.00  0.00    +0.000 NA
ATOM     20  C   UNL     1      45.770   6.694  12.564  0.00  0.00    +0.000 A 
ATOM     21  C   UNL     1      46.698   5.732  12.985  0.00  0.00    +0.000 A 
ATOM     22  N   UNL     1      48.037   5.934  13.042  0.00  0.00    +0.000 NA
BRANCH  17  24
ATOM     23  N   UNL     1      50.426   7.563  13.978  0.00  0.00    +0.000 N 
ATOM     24  C   UNL     1      49.879   7.496  12.724  0.00  0.00    +0.000 C 
ATOM     25  O   UNL     1      50.546   7.688  11.715  0.00  0.00    +0.000 OA
ATOM     26  H   UNL     1      51.401   7.788  14.078  0.00  0.00    +0.000 HD
ATOM     27  H   UNL     1      49.840   7.416  14.793  0.00  0.00    +0.000 HD
ENDBRANCH  17  24
ENDBRANCH  15  20
ENDBRANCH   1  15
TORSDOF 5
ENDMDL
MODEL 5
REMARK VINA RESULT:    -6.845      1.787      2.484
REMARK INTER + INTRA:          -9.518
REMARK INTER:                  -8.842
REMARK INTRA:                  -0.677
REMARK UNBOUND:                -0.672
REMARK  Name = 
REMARK  5 active torsions:
REMARK  status: ('A' for Active; 'I' for Inactive)
REMARK    1  A    between atoms: C_2  and  C_4
REMARK    2  A    between atoms: C_7  and  N_8
REMARK    3  A    between atoms: N_8  and  C_9
REMARK    4  A    between atoms: C_9  and  C_10
REMARK    5  A    between atoms: C_14  and  C_15
REMARK                            x       y       z     vdW  Elec       q    Type
REMARK                         _______ _______ _______ _____ _____    ______ ____
ROOT
ATOM      1  C   UNL     1      44.678   4.119  12.238  0.00  0.00    +0.000 C 
ENDROOT
BRANCH   1   2
ATOM      2  C   UNL     1      45.429   5.389  12.537  0.00  0.00    +0.000 A 
ATOM      3  C   UNL     1      46.744   5.343  12.987  0.00  0.00    +0.000 A 
ATOM      4  N   UNL     1      47.487   6.434  13.262  0.00  0.00    +0.000 NA
ATOM      5  C   UNL     1      46.903   7.631  13.043  0.00  0.00    +0.000 A 
ATOM      6  C   UNL     1      45.603   7.807  12.566  0.00  0.00    +0.000 A 
ATOM      7  C   UNL     1      44.845   6.653  12.361  0.00  0.00    +0.000 A 
BRANCH   6   8
ATOM      8  C   UNL     1      45.138   9.193  12.202  0.00  0.00    +0.000 C 
ATOM      9  C   UNL     1      46.277  10.170  11.879  0.00  0.00    +0.000 C 
ATOM     10  C   UNL     1      45.705  11.586  11.797  0.00  0.00    +0.000 C 
ATOM     11  N   UNL     1      44.631  11.696  10.806  0.00  0.00    +0.000 NA
ATOM     12  C   UNL     1      43.573  10.699  11.004  0.00  0.00    +0.000 C 
ATOM     13  C   UNL     1      44.114   9.266  11.064  0.00  0.00    +0.000 C 
ATOM     14  H   UNL     1      45.025  11.582   9.873  0.00  0.00    +0.000 HD
ENDBRANCH   6   8
ENDBRANCH   1   2
BRANCH   1  15
ATOM     15  N   UNL     1      44.058   4.236  10.920  0.00  0.00    +0.000 N 
ATOM     16  H   UNL     1      43.751   5.188  10.735  0.00  0.00    +0.000 HD
BRANCH  15  20
ATOM     17  C   UNL     1      46.310   3.007   7.719  0.00  0.00    +0.000 A 
ATOM     18  C   UNL     1      45.770   2.080   8.597  0.00  0.00    +0.000 A 
ATOM     19  N   UNL     1      45.031   2.446   9.675  0.00  0.00    +0.000 NA
ATOM     20  C   UNL     1      44.846   3.771   9.860  0.00  0.00    +0.000 A 
ATOM     21  C   UNL     1      45.396   4.689   8.955  0.00  0.00    +0.000 A 
ATOM     22  N   UNL     1      46.143   4.346   7.877  0.00  0.00    +0.000 NA
BRANCH  17  24
ATOM     23  N   UNL     1      48.140   1.699   6.826  0.00  0.00    +0.000 N 
ATOM     24  C   UNL     1      47.096   2.541   6.546  0.00  0.00    +0.000 C 
ATOM     25  O   UNL     1      46.833   2.888   5.402  0.00  0.00    +0.000 OA
ATOM     26  H   UNL     1      48.716   1.363   6.074  0.00  0.00    +0.000 HD
ATOM     27  H   UNL     1      48.340   1.446   7.788  0.00  0.00    +0.000 HD
ENDBRANCH  17  24
ENDBRANCH  15  20
ENDBRANCH   1  15
TORSDOF 5
ENDMDL
MODEL 6
REMARK VINA RESULT:    -6.814      1.923      2.623
REMARK INTER + INTRA:          -9.478
REMARK INTER:                  -8.875
REMARK INTRA:                  -0.603
REMARK UNBOUND:                -0.672
REMARK  Name = 
REMARK  5 active torsions:
REMARK  status: ('A' for Active; 'I' for Inactive)
REMARK    1  A    between atoms: C_2  and  C_4
REMARK    2  A    between atoms: C_7  and  N_8
REMARK    3  A    between atoms: N_8  and  C_9
REMARK    4  A    between atoms: C_9  and  C_10
REMARK    5  A    between atoms: C_14  and  C_15
REMARK                            x       y       z     vdW  Elec       q    Type
REMARK                         _______ _______ _______ _____ _____    ______ ____
ROOT
ATOM      1  C   UNL     1      44.000   3.301   9.775  0.00  0.00    +0.000 C 
ENDROOT
BRANCH   1   2
ATOM      2  C   UNL     1      44.091   4.294  10.902  0.00  0.00    +0.000 A 
ATOM      3  C   UNL     1      42.989   4.544  11.714  0.00  0.00    +0.000 A 
ATOM      4  N   UNL     1      42.995   5.406  12.750  0.00  0.00    +0.000 NA
ATOM      5  C   UNL     1      44.167   6.023  13.014  0.00  0.00    +0.000 A 
ATOM      6  C   UNL     1      45.346   5.832  12.292  0.00  0.00    +0.000 A 
ATOM      7  C   UNL     1      45.278   4.986  11.185  0.00  0.00    +0.000 A 
BRANCH   6   8
ATOM      8  C   UNL     1      46.624   6.450  12.800  0.00  0.00    +0.000 C 
ATOM      9  C   UNL     1      47.339   5.615  13.872  0.00  0.00    +0.000 C 
ATOM     10  C   UNL     1      48.451   6.460  14.494  0.00  0.00    +0.000 C 
ATOM     11  N   UNL     1      49.406   6.948  13.494  0.00  0.00    +0.000 NA
ATOM     12  C   UNL     1      48.754   7.651  12.384  0.00  0.00    +0.000 C 
ATOM     13  C   UNL     1      47.649   6.817  11.723  0.00  0.00    +0.000 C 
ATOM     14  H   UNL     1      49.933   6.158  13.124  0.00  0.00    +0.000 HD
ENDBRANCH   6   8
ENDBRANCH   1   2
BRANCH   1  15
ATOM     15  N   UNL     1      45.129   2.378   9.865  0.00  0.00    +0.000 N 
ATOM     16  H   UNL     1      44.867   1.513  10.332  0.00  0.00    +0.000 HD
BRANCH  15  20
ATOM     17  C   UNL     1      46.846   1.662   6.209  0.00  0.00    +0.000 A 
ATOM     18  C   UNL     1      46.781   0.660   7.165  0.00  0.00    +0.000 A 
ATOM     19  N   UNL     1      46.234   0.859   8.391  0.00  0.00    +0.000 NA
ATOM     20  C   UNL     1      45.752   2.096   8.643  0.00  0.00    +0.000 A 
ATOM     21  C   UNL     1      45.823   3.091   7.659  0.00  0.00    +0.000 A 
ATOM     22  N   UNL     1      46.372   2.915   6.432  0.00  0.00    +0.000 NA
BRANCH  17  24
ATOM     23  N   UNL     1      47.027   0.215   4.277  0.00  0.00    +0.000 N 
ATOM     24  C   UNL     1      47.442   1.374   4.878  0.00  0.00    +0.000 C 
ATOM     25  O   UNL     1      48.255   2.122   4.350  0.00  0.00    +0.000 OA
ATOM     26  H   UNL     1      47.408  -0.039   3.382  0.00  0.00    +0.000 HD
ATOM     27  H   UNL     1      46.365  -0.390   4.752  0.00  0.00    +0.000 HD
ENDBRANCH  17  24
ENDBRANCH  15  20
ENDBRANCH   1  15
TORSDOF 5
ENDMDL
MODEL 7
REMARK VINA RESULT:    -6.603      4.574      7.999
REMARK INTER + INTRA:          -9.205
REMARK INTER:                  -8.596
REMARK INTRA:                  -0.609
REMARK UNBOUND:                -0.672
REMARK  Name = 
REMARK  5 active torsions:
REMARK  status: ('A' for Active; 'I' for Inactive)
REMARK    1  A    between atoms: C_2  and  C_4
REMARK    2  A    between atoms: C_7  and  N_8
REMARK    3  A    between atoms: N_8  and  C_9
REMARK    4  A    between atoms: C_9  and  C_10
REMARK    5  A    between atoms: C_14  and  C_15
REMARK                            x       y       z     vdW  Elec       q    Type
REMARK                         _______ _______ _______ _____ _____    ______ ____
ROOT
ATOM      1  C   UNL     1      48.657   6.464  15.729  0.00  0.00    +0.000 C 
ENDROOT
BRANCH   1   2
ATOM      2  C   UNL     1      48.106   6.528  14.330  0.00  0.00    +0.000 A 
ATOM      3  C   UNL     1      48.723   7.316  13.364  0.00  0.00    +0.000 A 
ATOM      4  N   UNL     1      48.300   7.415  12.087  0.00  0.00    +0.000 NA
ATOM      5  C   UNL     1      47.230   6.665  11.748  0.00  0.00    +0.000 A 
ATOM      6  C   UNL     1      46.546   5.815  12.618  0.00  0.00    +0.000 A 
ATOM      7  C   UNL     1      46.973   5.795  13.946  0.00  0.00    +0.000 A 
BRANCH   6   8
ATOM      8  C   UNL     1      45.480   4.905  12.065  0.00  0.00    +0.000 C 
ATOM      9  C   UNL     1      44.484   4.396  13.117  0.00  0.00    +0.000 C 
ATOM     10  C   UNL     1      43.635   3.286  12.498  0.00  0.00    +0.000 C 
ATOM     11  N   UNL     1      42.931   3.731  11.291  0.00  0.00    +0.000 NA
ATOM     12  C   UNL     1      43.830   4.336  10.301  0.00  0.00    +0.000 C 
ATOM     13  C   UNL     1      44.678   5.471  10.889  0.00  0.00    +0.000 C 
ATOM     14  H   UNL     1      42.218   4.411  11.552  0.00  0.00    +0.000 HD
ENDBRANCH   6   8
ENDBRANCH   1   2
BRANCH   1  15
ATOM     15  N   UNL     1      48.083   5.306  16.410  0.00  0.00    +0.000 N 
ATOM     16  H   UNL     1      47.315   4.903  15.878  0.00  0.00    +0.000 HD
BRANCH  15  20
ATOM     17  C   UNL     1      50.918   2.500  17.370  0.00  0.00    +0.000 A 
ATOM     18  C   UNL     1      49.721   2.119  16.782  0.00  0.00    +0.000 A 
ATOM     19  N   UNL     1      48.752   3.014  16.461  0.00  0.00    +0.000 NA
ATOM     20  C   UNL     1      49.007   4.309  16.748  0.00  0.00    +0.000 A 
ATOM     21  C   UNL     1      50.227   4.670  17.337  0.00  0.00    +0.000 A 
ATOM     22  N   UNL     1      51.204   3.793  17.672  0.00  0.00    +0.000 NA
BRANCH  17  24
ATOM     23  N   UNL     1      51.469   0.270  18.135  0.00  0.00    +0.000 N 
ATOM     24  C   UNL     1      51.946   1.472  17.681  0.00  0.00    +0.000 C 
ATOM     25  O   UNL     1      53.144   1.683  17.544  0.00  0.00    +0.000 OA
ATOM     26  H   UNL     1      52.120  -0.458  18.375  0.00  0.00    +0.000 HD
ATOM     27  H   UNL     1      50.471   0.136  18.253  0.00  0.00    +0.000 HD
ENDBRANCH  17  24
ENDBRANCH  15  20
ENDBRANCH   1  15
TORSDOF 5
ENDMDL
MODEL 8
REMARK VINA RESULT:    -6.384      3.701      7.856
REMARK INTER + INTRA:          -8.923
REMARK INTER:                  -8.422
REMARK INTRA:                  -0.501
REMARK UNBOUND:                -0.672
REMARK  Name = 
REMARK  5 active torsions:
REMARK  status: ('A' for Active; 'I' for Inactive)
REMARK    1  A    between atoms: C_2  and  C_4
REMARK    2  A    between atoms: C_7  and  N_8
REMARK    3  A    between atoms: N_8  and  C_9
REMARK    4  A    between atoms: C_9  and  C_10
REMARK    5  A    between atoms: C_14  and  C_15
REMARK                            x       y       z     vdW  Elec       q    Type
REMARK                         _______ _______ _______ _____ _____    ______ ____
ROOT
ATOM      1  C   UNL     1      44.960   4.192  13.247  0.00  0.00    +0.000 C 
ENDROOT
BRANCH   1   2
ATOM      2  C   UNL     1      44.674   4.163  11.769  0.00  0.00    +0.000 A 
ATOM      3  C   UNL     1      43.657   4.944  11.230  0.00  0.00    +0.000 A 
ATOM      4  N   UNL     1      43.350   4.984   9.918  0.00  0.00    +0.000 NA
ATOM      5  C   UNL     1      44.118   4.237   9.097  0.00  0.00    +0.000 A 
ATOM      6  C   UNL     1      45.184   3.437   9.513  0.00  0.00    +0.000 A 
ATOM      7  C   UNL     1      45.423   3.369  10.886  0.00  0.00    +0.000 A 
BRANCH   6   8
ATOM      8  C   UNL     1      46.065   2.793   8.474  0.00  0.00    +0.000 C 
ATOM      9  C   UNL     1      45.869   1.276   8.342  0.00  0.00    +0.000 C 
ATOM     10  C   UNL     1      46.990   0.707   7.471  0.00  0.00    +0.000 C 
ATOM     11  N   UNL     1      47.045   1.340   6.150  0.00  0.00    +0.000 NA
ATOM     12  C   UNL     1      47.112   2.804   6.225  0.00  0.00    +0.000 C 
ATOM     13  C   UNL     1      45.983   3.405   7.072  0.00  0.00    +0.000 C 
ATOM     14  H   UNL     1      46.218   1.072   5.617  0.00  0.00    +0.000 HD
ENDBRANCH   6   8
ENDBRANCH   1   2
BRANCH   1  15
ATOM     15  N   UNL     1      46.301   3.662  13.480  0.00  0.00    +0.000 N 
ATOM     16  H   UNL     1      46.859   3.672  12.629  0.00  0.00    +0.000 HD
BRANCH  15  20
ATOM     17  C   UNL     1      48.468   5.538  16.414  0.00  0.00    +0.000 A 
ATOM     18  C   UNL     1      47.794   4.357  16.683  0.00  0.00    +0.000 A 
ATOM     19  N   UNL     1      47.055   3.712  15.745  0.00  0.00    +0.000 NA
ATOM     20  C   UNL     1      47.002   4.282  14.522  0.00  0.00    +0.000 A 
ATOM     21  C   UNL     1      47.697   5.474  14.271  0.00  0.00    +0.000 A 
ATOM     22  N   UNL     1      48.433   6.137  15.196  0.00  0.00    +0.000 NA
BRANCH  17  24
ATOM     23  N   UNL     1      49.618   5.385  18.538  0.00  0.00    +0.000 N 
ATOM     24  C   UNL     1      49.275   6.186  17.482  0.00  0.00    +0.000 C 
ATOM     25  O   UNL     1      49.610   7.362  17.426  0.00  0.00    +0.000 OA
ATOM     26  H   UNL     1      50.152   5.773  19.298  0.00  0.00    +0.000 HD
ATOM     27  H   UNL     1      49.308   4.419  18.561  0.00  0.00    +0.000 HD
ENDBRANCH  17  24
ENDBRANCH  15  20
ENDBRANCH   1  15
TORSDOF 5
ENDMDL
MODEL 9
REMARK VINA RESULT:    -6.198      3.971      6.271
REMARK INTER + INTRA:          -8.682
REMARK INTER:                  -8.055
REMARK INTRA:                  -0.627
REMARK UNBOUND:                -0.672
REMARK  Name = 
REMARK  5 active torsions:
REMARK  status: ('A' for Active; 'I' for Inactive)
REMARK    1  A    between atoms: C_2  and  C_4
REMARK    2  A    between atoms: C_7  and  N_8
REMARK    3  A    between atoms: N_8  and  C_9
REMARK    4  A    between atoms: C_9  and  C_10
REMARK    5  A    between atoms: C_14  and  C_15
REMARK                            x       y       z     vdW  Elec       q    Type
REMARK                         _______ _______ _______ _____ _____    ______ ____
ROOT
ATOM      1  C   UNL     1      47.735   7.568  13.213  0.00  0.00    +0.000 C 
ENDROOT
BRANCH   1   2
ATOM      2  C   UNL     1      48.294   7.659  14.608  0.00  0.00    +0.000 A 
ATOM      3  C   UNL     1      48.566   8.897  15.181  0.00  0.00    +0.000 A 
ATOM      4  N   UNL     1      49.052   9.061  16.428  0.00  0.00    +0.000 NA
ATOM      5  C   UNL     1      49.243   7.939  17.153  0.00  0.00    +0.000 A 
ATOM      6  C   UNL     1      48.979   6.645  16.700  0.00  0.00    +0.000 A 
ATOM      7  C   UNL     1      48.544   6.514  15.381  0.00  0.00    +0.000 A 
BRANCH   6   8
ATOM      8  C   UNL     1      49.072   5.496  17.672  0.00  0.00    +0.000 C 
ATOM      9  C   UNL     1      48.627   5.847  19.099  0.00  0.00    +0.000 C 
ATOM     10  C   UNL     1      49.020   4.703  20.034  0.00  0.00    +0.000 C 
ATOM     11  N   UNL     1      48.450   3.419  19.613  0.00  0.00    +0.000 NA
ATOM     12  C   UNL     1      48.750   3.097  18.214  0.00  0.00    +0.000 C 
ATOM     13  C   UNL     1      48.343   4.217  17.249  0.00  0.00    +0.000 C 
ATOM     14  H   UNL     1      47.439   3.446  19.739  0.00  0.00    +0.000 HD
ENDBRANCH   6   8
ENDBRANCH   1   2
BRANCH   1  15
ATOM     15  N   UNL     1      46.276   7.555  13.288  0.00  0.00    +0.000 N 
ATOM     16  H   UNL     1      45.875   8.403  12.893  0.00  0.00    +0.000 HD
BRANCH  15  20
ATOM     17  C   UNL     1      44.611   4.150  11.720  0.00  0.00    +0.000 A 
ATOM     18  C   UNL     1      44.704   5.304  10.957  0.00  0.00    +0.000 A 
ATOM     19  N   UNL     1      45.236   6.455  11.442  0.00  0.00    +0.000 NA
ATOM     20  C   UNL     1      45.672   6.427  12.720  0.00  0.00    +0.000 A 
ATOM     21  C   UNL     1      45.572   5.247  13.470  0.00  0.00    +0.000 A 
ATOM     22  N   UNL     1      45.038   4.090  13.008  0.00  0.00    +0.000 NA
BRANCH  17  24
ATOM     23  N   UNL     1      44.737   2.373  10.081  0.00  0.00    +0.000 N 
ATOM     24  C   UNL     1      44.033   2.916  11.124  0.00  0.00    +0.000 C 
ATOM     25  O   UNL     1      42.994   2.416  11.534  0.00  0.00    +0.000 OA
ATOM     26  H   UNL     1      44.386   1.546   9.629  0.00  0.00    +0.000 HD
ATOM     27  H   UNL     1      45.585   2.825   9.756  0.00  0.00    +0.000 HD
ENDBRANCH  17  24
ENDBRANCH  15  20
ENDBRANCH   1  15
TORSDOF 5
ENDMDL
