MODEL 1
REMARK VINA RESULT:    -7.569      0.000      0.000
REMARK INTER + INTRA:         -10.786
REMARK INTER:                  -9.781
REMARK INTRA:                  -1.005
REMARK UNBOUND:                -1.005
REMARK  Name = 
REMARK  6 active torsions:
REMARK  status: ('A' for Active; 'I' for Inactive)
REMARK    1  A    between atoms: C_1  and  S_2
REMARK    2  A    between atoms: S_2  and  C_5
REMARK    3  A    between atoms: C_8  and  O_9
REMARK    4  A    between atoms: O_9  and  C_10
REMARK    5  A    between atoms: C_10  and  C_11
REMARK    6  A    between atoms: C_15  and  C_16
REMARK                            x       y       z     vdW  Elec       q    Type
REMARK                         _______ _______ _______ _____ _____    ______ ____
ROOT
ATOM      1  C   UNL     1      43.821   4.858  11.443  0.00  0.00    +0.000 C 
ATOM      2  C   UNL     1      42.471   5.221  12.043  0.00  0.00    +0.000 C 
ATOM      3  C   UNL     1      43.049   6.068  10.958  0.00  0.00    +0.000 C 
ENDROOT
BRANCH   1   4
ATOM      4  C   UNL     1      45.113   5.078  12.217  0.00  0.00    +0.000 A 
ATOM      5  C   UNL     1      45.666   4.080  13.030  0.00  0.00    +0.000 A 
ATOM      6  C   UNL     1      46.920   4.244  13.618  0.00  0.00    +0.000 A 
ATOM      7  C   UNL     1      47.656   5.411  13.395  0.00  0.00    +0.000 A 
ATOM      8  C   UNL     1      47.155   6.441  12.588  0.00  0.00    +0.000 A 
ATOM      9  C   UNL     1      45.870   6.259  12.041  0.00  0.00    +0.000 A 
BRANCH   8  10
ATOM     10  C   UNL     1      47.975   7.622  12.243  0.00  0.00    +0.000 A 
ATOM     11  C   UNL     1      49.343   7.505  11.949  0.00  0.00    +0.000 A 
ATOM     12  C   UNL     1      50.093   8.618  11.572  0.00  0.00    +0.000 A 
ATOM     13  C   UNL     1      49.455   9.842  11.491  0.00  0.00    +0.000 A 
ATOM     14  N   UNL     1      48.147  10.016  11.767  0.00  0.00    +0.000 NA
ATOM     15  C   UNL     1      47.446   8.912  12.134  0.00  0.00    +0.000 A 
ENDBRANCH   8  10
ENDBRANCH   1   4
BRANCH   1  16
ATOM     16  O   UNL     1      43.686   3.605  10.730  0.00  0.00    +0.000 OA
BRANCH  16  20
ATOM     17  C   UNL     1      46.230   2.732   7.645  0.00  0.00    +0.000 A 
ATOM     18  C   UNL     1      45.772   1.709   8.468  0.00  0.00    +0.000 A 
ATOM     19  C   UNL     1      44.911   2.034   9.510  0.00  0.00    +0.000 A 
ATOM     20  C   UNL     1      44.543   3.362   9.675  0.00  0.00    +0.000 A 
ATOM     21  N   UNL     1      44.949   4.366   8.867  0.00  0.00    +0.000 NA
ATOM     22  C   UNL     1      45.791   4.028   7.860  0.00  0.00    +0.000 A 
BRANCH  17  24
ATOM     23  C   UNL     1      47.127   0.657   6.056  0.00  0.00    +0.000 C 
ATOM     24  S   UNL     1      47.347   2.398   6.331  0.00  0.00    +0.000 S 
ATOM     25  O   UNL     1      48.689   2.608   6.825  0.00  0.00    +0.000 OA
ATOM     26  O   UNL     1      46.863   3.099   5.155  0.00  0.00    +0.000 OA
ENDBRANCH  17  24
ENDBRANCH  16  20
ENDBRANCH   1  16
TORSDOF 5
ENDMDL
MODEL 2
REMARK VINA RESULT:    -7.514      2.316      3.384
REMARK INTER + INTRA:         -10.715
REMARK INTER:                 -11.048
REMARK INTRA:                   0.333
REMARK UNBOUND:                -1.005
REMARK  Name = 
REMARK  6 active torsions:
REMARK  status: ('A' for Active; 'I' for Inactive)
REMARK    1  A    between atoms: C_1  and  S_2
REMARK    2  A    between atoms: S_2  and  C_5
REMARK    3  A    between atoms: C_8  and  O_9
REMARK    4  A    between atoms: O_9  and  C_10
REMARK    5  A    between atoms: C_10  and  C_11
REMARK    6  A    between atoms: C_15  and  C_16
REMARK                            x       y       z     vdW  Elec       q    Type
REMARK                         _______ _______ _______ _____ _____    ______ ____
ROOT
ATOM      1  C   UNL     1      44.099   4.739  11.519  0.00  0.00    +0.000 C 
ATOM      2  C   UNL     1      43.515   3.485  12.151  0.00  0.00    +0.000 C 
ATOM      3  C   UNL     1      42.951   4.822  12.503  0.00  0.00    +0.000 C 
ENDROOT
BRANCH   1   4
ATOM      4  C   UNL     1      45.462   5.274  11.939  0.00  0.00    +0.000 A 
ATOM      5  C   UNL     1      46.146   6.230  11.177  0.00  0.00    +0.000 A 
ATOM      6  C   UNL     1      47.323   6.814  11.646  0.00  0.00    +0.000 A 
ATOM      7  C   UNL     1      47.836   6.460  12.897  0.00  0.00    +0.000 A 
ATOM      8  C   UNL     1      47.191   5.512  13.704  0.00  0.00    +0.000 A 
ATOM      9  C   UNL     1      46.027   4.914  13.184  0.00  0.00    +0.000 A 
BRANCH   8  10
ATOM     10  C   UNL     1      47.653   5.224  15.078  0.00  0.00    +0.000 A 
ATOM     11  C   UNL     1      48.532   6.086  15.753  0.00  0.00    +0.000 A 
ATOM     12  C   UNL     1      48.918   5.831  17.068  0.00  0.00    +0.000 A 
ATOM     13  C   UNL     1      48.410   4.708  17.694  0.00  0.00    +0.000 A 
ATOM     14  N   UNL     1      47.568   3.842  17.095  0.00  0.00    +0.000 NA
ATOM     15  C   UNL     1      47.215   4.118  15.813  0.00  0.00    +0.000 A 
ENDBRANCH   8  10
ENDBRANCH   1   4
BRANCH   1  16
ATOM     16  O   UNL     1      43.810   4.717  10.099  0.00  0.00    +0.000 OA
BRANCH  16  20
ATOM     17  C   UNL     1      46.264   2.453   7.733  0.00  0.00    +0.000 A 
ATOM     18  C   UNL     1      45.456   1.831   8.679  0.00  0.00    +0.000 A 
ATOM     19  C   UNL     1      44.634   2.624   9.471  0.00  0.00    +0.000 A 
ATOM     20  C   UNL     1      44.653   3.999   9.276  0.00  0.00    +0.000 A 
ATOM     21  N   UNL     1      45.404   4.620   8.341  0.00  0.00    +0.000 NA
ATOM     22  C   UNL     1      46.200   3.828   7.582  0.00  0.00    +0.000 A 
BRANCH  17  24
ATOM     23  C   UNL     1      46.848   1.956   5.078  0.00  0.00    +0.000 C 
ATOM     24  S   UNL     1      47.351   1.514   6.723  0.00  0.00    +0.000 S 
ATOM     25  O   UNL     1      47.049   0.115   6.924  0.00  0.00    +0.000 OA
ATOM     26  O   UNL     1      48.695   2.027   6.931  0.00  0.00    +0.000 OA
ENDBRANCH  17  24
ENDBRANCH  16  20
ENDBRANCH   1  16
TORSDOF 5
ENDMDL
MODEL 3
REMARK VINA RESULT:    -7.473      3.898      7.483
REMARK INTER + INTRA:         -10.663
REMARK INTER:                 -10.029
REMARK INTRA:                  -0.634
REMARK UNBOUND:                -1.005
REMARK  Name = 
REMARK  6 active torsions:
REMARK  status: ('A' for Active; 'I' for Inactive)
REMARK    1  A    between atoms: C_1  and  S_2
REMARK    2  A    between atoms: S_2  and  C_5
REMARK    3  A    between atoms: C_8  and  O_9
REMARK    4  A    between atoms: O_9  and  C_10
REMARK    5  A    between atoms: C_10  and  C_11
REMARK    6  A    between atoms: C_15  and  C_16
REMARK                            x       y       z     vdW  Elec       q    Type
REMARK                         _______ _______ _______ _____ _____    ______ ____
ROOT
ATOM      1  C   UNL     1      46.320   7.318  12.321  0.00  0.00    +0.000 C 
ATOM      2  C   UNL     1      46.513   8.725  11.776  0.00  0.00    +0.000 C 
ATOM      3  C   UNL     1      45.757   8.522  13.047  0.00  0.00    +0.000 C 
ENDROOT
BRANCH   1   4
ATOM      4  C   UNL     1      45.353   6.342  11.664  0.00  0.00    +0.000 A 
ATOM      5  C   UNL     1      43.964   6.486  11.785  0.00  0.00    +0.000 A 
ATOM      6  C   UNL     1      43.092   5.671  11.063  0.00  0.00    +0.000 A 
ATOM      7  C   UNL     1      43.592   4.700  10.192  0.00  0.00    +0.000 A 
ATOM      8  C   UNL     1      44.972   4.515  10.027  0.00  0.00    +0.000 A 
ATOM      9  C   UNL     1      45.824   5.327  10.800  0.00  0.00    +0.000 A 
BRANCH   8  10
ATOM     10  C   UNL     1      45.513   3.580   9.018  0.00  0.00    +0.000 A 
ATOM     11  C   UNL     1      46.162   4.043   7.862  0.00  0.00    +0.000 A 
ATOM     12  C   UNL     1      46.715   3.151   6.944  0.00  0.00    +0.000 A 
ATOM     13  C   UNL     1      46.611   1.797   7.202  0.00  0.00    +0.000 A 
ATOM     14  N   UNL     1      45.995   1.294   8.291  0.00  0.00    +0.000 NA
ATOM     15  C   UNL     1      45.465   2.190   9.163  0.00  0.00    +0.000 A 
ENDBRANCH   8  10
ENDBRANCH   1   4
BRANCH   1  16
ATOM     16  O   UNL     1      47.612   6.795  12.718  0.00  0.00    +0.000 OA
BRANCH  16  20
ATOM     17  C   UNL     1      47.740   4.602  16.170  0.00  0.00    +0.000 A 
ATOM     18  C   UNL     1      46.939   4.177  15.116  0.00  0.00    +0.000 A 
ATOM     19  C   UNL     1      46.913   4.942  13.956  0.00  0.00    +0.000 A 
ATOM     20  C   UNL     1      47.691   6.091  13.902  0.00  0.00    +0.000 A 
ATOM     21  N   UNL     1      48.502   6.503  14.901  0.00  0.00    +0.000 NA
ATOM     22  C   UNL     1      48.509   5.744  16.024  0.00  0.00    +0.000 A 
BRANCH  17  24
ATOM     23  C   UNL     1      49.331   2.819  17.559  0.00  0.00    +0.000 C 
ATOM     24  S   UNL     1      47.795   3.702  17.677  0.00  0.00    +0.000 S 
ATOM     25  O   UNL     1      46.719   2.736  17.658  0.00  0.00    +0.000 OA
ATOM     26  O   UNL     1      47.917   4.664  18.759  0.00  0.00    +0.000 OA
ENDBRANCH  17  24
ENDBRANCH  16  20
ENDBRANCH   1  16
TORSDOF 5
ENDMDL
MODEL 4
REMARK VINA RESULT:    -6.748      4.079      7.777
REMARK INTER + INTRA:          -9.726
REMARK INTER:                  -9.163
REMARK INTRA:                  -0.563
REMARK UNBOUND:                -1.005
REMARK  Name = 
REMARK  6 active torsions:
REMARK  status: ('A' for Active; 'I' for Inactive)
REMARK    1  A    between atoms: C_1  and  S_2
REMARK    2  A    between atoms: S_2  and  C_5
REMARK    3  A    between atoms: C_8  and  O_9
REMARK    4  A    between atoms: O_9  and  C_10
REMARK    5  A    between atoms: C_10  and  C_11
REMARK    6  A    between atoms: C_15  and  C_16
REMARK                            x       y       z     vdW  Elec       q    Type
REMARK                         _______ _______ _______ _____ _____    ______ ____
ROOT
ATOM      1  C   UNL     1      48.448   8.145  12.483  0.00  0.00    +0.000 C 
ATOM      2  C   UNL     1      49.326   8.961  11.546  0.00  0.00    +0.000 C 
ATOM      3  C   UNL     1      48.838   9.569  12.819  0.00  0.00    +0.000 C 
ENDROOT
BRANCH   1   4
ATOM      4  C   UNL     1      46.995   7.846  12.142  0.00  0.00    +0.000 A 
ATOM      5  C   UNL     1      45.987   8.807  12.299  0.00  0.00    +0.000 A 
ATOM      6  C   UNL     1      44.688   8.566  11.850  0.00  0.00    +0.000 A 
ATOM      7  C   UNL     1      44.372   7.359  11.222  0.00  0.00    +0.000 A 
ATOM      8  C   UNL     1      45.340   6.362  11.034  0.00  0.00    +0.000 A 
ATOM      9  C   UNL     1      46.631   6.622  11.534  0.00  0.00    +0.000 A 
BRANCH   8  10
ATOM     10  C   UNL     1      45.050   5.137  10.261  0.00  0.00    +0.000 A 
ATOM     11  C   UNL     1      45.675   4.880   9.030  0.00  0.00    +0.000 A 
ATOM     12  C   UNL     1      45.434   3.695   8.337  0.00  0.00    +0.000 A 
ATOM     13  C   UNL     1      44.565   2.775   8.893  0.00  0.00    +0.000 A 
ATOM     14  N   UNL     1      43.931   2.969  10.068  0.00  0.00    +0.000 NA
ATOM     15  C   UNL     1      44.187   4.135  10.715  0.00  0.00    +0.000 A 
ENDBRANCH   8  10
ENDBRANCH   1   4
BRANCH   1  16
ATOM     16  O   UNL     1      49.236   7.054  13.019  0.00  0.00    +0.000 OA
BRANCH  16  20
ATOM     17  C   UNL     1      47.873   5.173  16.388  0.00  0.00    +0.000 A 
ATOM     18  C   UNL     1      48.656   6.317  16.508  0.00  0.00    +0.000 A 
ATOM     19  C   UNL     1      49.108   6.934  15.348  0.00  0.00    +0.000 A 
ATOM     20  C   UNL     1      48.751   6.384  14.124  0.00  0.00    +0.000 A 
ATOM     21  N   UNL     1      47.964   5.295  13.984  0.00  0.00    +0.000 NA
ATOM     22  C   UNL     1      47.538   4.707  15.128  0.00  0.00    +0.000 A 
BRANCH  17  24
ATOM     23  C   UNL     1      48.803   3.805  18.602  0.00  0.00    +0.000 C 
ATOM     24  S   UNL     1      47.299   4.324  17.814  0.00  0.00    +0.000 S 
ATOM     25  O   UNL     1      46.591   3.142  17.373  0.00  0.00    +0.000 OA
ATOM     26  O   UNL     1      46.658   5.301  18.677  0.00  0.00    +0.000 OA
ENDBRANCH  17  24
ENDBRANCH  16  20
ENDBRANCH   1  16
TORSDOF 5
ENDMDL
MODEL 5
REMARK VINA RESULT:    -6.579      4.069      7.684
REMARK INTER + INTRA:          -9.507
REMARK INTER:                  -8.752
REMARK INTRA:                  -0.754
REMARK UNBOUND:                -1.005
REMARK  Name = 
REMARK  6 active torsions:
REMARK  status: ('A' for Active; 'I' for Inactive)
REMARK    1  A    between atoms: C_1  and  S_2
REMARK    2  A    between atoms: S_2  and  C_5
REMARK    3  A    between atoms: C_8  and  O_9
REMARK    4  A    between atoms: O_9  and  C_10
REMARK    5  A    between atoms: C_10  and  C_11
REMARK    6  A    between atoms: C_15  and  C_16
REMARK                            x       y       z     vdW  Elec       q    Type
REMARK                         _______ _______ _______ _____ _____    ______ ____
ROOT
ATOM      1  C   UNL     1      45.595   5.789  12.051  0.00  0.00    +0.000 C 
ATOM      2  C   UNL     1      45.102   7.149  11.577  0.00  0.00    +0.000 C 
ATOM      3  C   UNL     1      44.578   6.575  12.852  0.00  0.00    +0.000 C 
ENDROOT
BRANCH   1   4
ATOM      4  C   UNL     1      45.149   4.505  11.363  0.00  0.00    +0.000 A 
ATOM      5  C   UNL     1      43.986   3.827  11.749  0.00  0.00    +0.000 A 
ATOM      6  C   UNL     1      43.515   2.735  11.020  0.00  0.00    +0.000 A 
ATOM      7  C   UNL     1      44.196   2.304   9.878  0.00  0.00    +0.000 A 
ATOM      8  C   UNL     1      45.363   2.947   9.442  0.00  0.00    +0.000 A 
ATOM      9  C   UNL     1      45.831   4.021  10.224  0.00  0.00    +0.000 A 
BRANCH   8  10
ATOM     10  C   UNL     1      46.019   2.581   8.169  0.00  0.00    +0.000 A 
ATOM     11  C   UNL     1      46.547   1.297   7.958  0.00  0.00    +0.000 A 
ATOM     12  C   UNL     1      47.115   0.948   6.734  0.00  0.00    +0.000 A 
ATOM     13  C   UNL     1      47.143   1.897   5.730  0.00  0.00    +0.000 A 
ATOM     14  N   UNL     1      46.657   3.146   5.876  0.00  0.00    +0.000 NA
ATOM     15  C   UNL     1      46.113   3.454   7.082  0.00  0.00    +0.000 A 
ENDBRANCH   8  10
ENDBRANCH   1   4
BRANCH   1  16
ATOM     16  O   UNL     1      46.998   5.900  12.391  0.00  0.00    +0.000 OA
BRANCH  16  20
ATOM     17  C   UNL     1      48.019   5.044  16.261  0.00  0.00    +0.000 A 
ATOM     18  C   UNL     1      47.250   4.138  15.536  0.00  0.00    +0.000 A 
ATOM     19  C   UNL     1      46.916   4.455  14.225  0.00  0.00    +0.000 A 
ATOM     20  C   UNL     1      47.370   5.657  13.698  0.00  0.00    +0.000 A 
ATOM     21  N   UNL     1      48.145   6.534  14.372  0.00  0.00    +0.000 NA
ATOM     22  C   UNL     1      48.456   6.207  15.650  0.00  0.00    +0.000 A 
BRANCH  17  24
ATOM     23  C   UNL     1      47.239   5.654  18.841  0.00  0.00    +0.000 C 
ATOM     24  S   UNL     1      48.448   4.722  17.933  0.00  0.00    +0.000 S 
ATOM     25  O   UNL     1      49.746   5.309  18.180  0.00  0.00    +0.000 OA
ATOM     26  O   UNL     1      48.204   3.312  18.185  0.00  0.00    +0.000 OA
ENDBRANCH  17  24
ENDBRANCH  16  20
ENDBRANCH   1  16
TORSDOF 5
ENDMDL
MODEL 6
REMARK VINA RESULT:    -6.392      3.736      6.288
REMARK INTER + INTRA:          -9.265
REMARK INTER:                  -8.334
REMARK INTRA:                  -0.931
REMARK UNBOUND:                -1.005
REMARK  Name = 
REMARK  6 active torsions:
REMARK  status: ('A' for Active; 'I' for Inactive)
REMARK    1  A    between atoms: C_1  and  S_2
REMARK    2  A    between atoms: S_2  and  C_5
REMARK    3  A    between atoms: C_8  and  O_9
REMARK    4  A    between atoms: O_9  and  C_10
REMARK    5  A    between atoms: C_10  and  C_11
REMARK    6  A    between atoms: C_15  and  C_16
REMARK                            x       y       z     vdW  Elec       q    Type
REMARK                         _______ _______ _______ _____ _____    ______ ____
ROOT
ATOM      1  C   UNL     1      49.065   7.831  13.760  0.00  0.00    +0.000 C 
ATOM      2  C   UNL     1      50.187   7.830  14.787  0.00  0.00    +0.000 C 
ATOM      3  C   UNL     1      48.770   7.964  15.239  0.00  0.00    +0.000 C 
ENDROOT
BRANCH   1   4
ATOM      4  C   UNL     1      48.824   9.033  12.856  0.00  0.00    +0.000 A 
ATOM      5  C   UNL     1      49.804   9.499  11.971  0.00  0.00    +0.000 A 
ATOM      6  C   UNL     1      49.521  10.509  11.050  0.00  0.00    +0.000 A 
ATOM      7  C   UNL     1      48.241  11.066  10.988  0.00  0.00    +0.000 A 
ATOM      8  C   UNL     1      47.219  10.635  11.846  0.00  0.00    +0.000 A 
ATOM      9  C   UNL     1      47.550   9.643  12.789  0.00  0.00    +0.000 A 
BRANCH   8  10
ATOM     10  C   UNL     1      45.832  11.127  11.705  0.00  0.00    +0.000 A 
ATOM     11  C   UNL     1      45.556  12.465  11.383  0.00  0.00    +0.000 A 
ATOM     12  C   UNL     1      44.246  12.904  11.199  0.00  0.00    +0.000 A 
ATOM     13  C   UNL     1      43.222  11.986  11.339  0.00  0.00    +0.000 A 
ATOM     14  N   UNL     1      43.425  10.690  11.653  0.00  0.00    +0.000 NA
ATOM     15  C   UNL     1      44.713  10.297  11.827  0.00  0.00    +0.000 A 
ENDBRANCH   8  10
ENDBRANCH   1   4
BRANCH   1  16
ATOM     16  O   UNL     1      49.003   6.522  13.143  0.00  0.00    +0.000 OA
BRANCH  16  20
ATOM     17  C   UNL     1      45.304   4.852  12.620  0.00  0.00    +0.000 A 
ATOM     18  C   UNL     1      45.733   5.856  11.758  0.00  0.00    +0.000 A 
ATOM     19  C   UNL     1      46.992   6.407  11.960  0.00  0.00    +0.000 A 
ATOM     20  C   UNL     1      47.766   5.926  13.008  0.00  0.00    +0.000 A 
ATOM     21  N   UNL     1      47.382   4.929  13.836  0.00  0.00    +0.000 NA
ATOM     22  C   UNL     1      46.149   4.409  13.623  0.00  0.00    +0.000 A 
BRANCH  17  24
ATOM     23  C   UNL     1      43.500   4.061  10.682  0.00  0.00    +0.000 C 
ATOM     24  S   UNL     1      43.710   4.136  12.444  0.00  0.00    +0.000 S 
ATOM     25  O   UNL     1      42.741   5.070  12.972  0.00  0.00    +0.000 OA
ATOM     26  O   UNL     1      43.784   2.773  12.942  0.00  0.00    +0.000 OA
ENDBRANCH  17  24
ENDBRANCH  16  20
ENDBRANCH   1  16
TORSDOF 5
ENDMDL
MODEL 7
REMARK VINA RESULT:    -6.329      3.611      6.308
REMARK INTER + INTRA:          -9.184
REMARK INTER:                  -8.310
REMARK INTRA:                  -0.874
REMARK UNBOUND:                -1.005
REMARK  Name = 
REMARK  6 active torsions:
REMARK  status: ('A' for Active; 'I' for Inactive)
REMARK    1  A    between atoms: C_1  and  S_2
REMARK    2  A    between atoms: S_2  and  C_5
REMARK    3  A    between atoms: C_8  and  O_9
REMARK    4  A    between atoms: O_9  and  C_10
REMARK    5  A    between atoms: C_10  and  C_11
REMARK    6  A    between atoms: C_15  and  C_16
REMARK                            x       y       z     vdW  Elec       q    Type
REMARK                         _______ _______ _______ _____ _____    ______ ____
ROOT
ATOM      1  C   UNL     1      48.638   8.271  12.586  0.00  0.00    +0.000 C 
ATOM      2  C   UNL     1      49.612   9.140  11.804  0.00  0.00    +0.000 C 
ATOM      3  C   UNL     1      49.683   7.654  11.680  0.00  0.00    +0.000 C 
ENDROOT
BRANCH   1   4
ATOM      4  C   UNL     1      48.775   8.089  14.091  0.00  0.00    +0.000 A 
ATOM      5  C   UNL     1      48.850   9.183  14.963  0.00  0.00    +0.000 A 
ATOM      6  C   UNL     1      48.833   9.002  16.346  0.00  0.00    +0.000 A 
ATOM      7  C   UNL     1      48.727   7.718  16.888  0.00  0.00    +0.000 A 
ATOM      8  C   UNL     1      48.645   6.587  16.064  0.00  0.00    +0.000 A 
ATOM      9  C   UNL     1      48.705   6.802  14.673  0.00  0.00    +0.000 A 
BRANCH   8  10
ATOM     10  C   UNL     1      48.407   5.239  16.622  0.00  0.00    +0.000 A 
ATOM     11  C   UNL     1      49.380   4.580  17.390  0.00  0.00    +0.000 A 
ATOM     12  C   UNL     1      49.123   3.332  17.956  0.00  0.00    +0.000 A 
ATOM     13  C   UNL     1      47.884   2.759  17.744  0.00  0.00    +0.000 A 
ATOM     14  N   UNL     1      46.913   3.341  17.011  0.00  0.00    +0.000 NA
ATOM     15  C   UNL     1      47.197   4.555  16.472  0.00  0.00    +0.000 A 
ENDBRANCH   8  10
ENDBRANCH   1   4
BRANCH   1  16
ATOM     16  O   UNL     1      47.303   8.496  12.070  0.00  0.00    +0.000 OA
BRANCH  16  20
ATOM     17  C   UNL     1      44.795   5.273  11.810  0.00  0.00    +0.000 A 
ATOM     18  C   UNL     1      45.774   5.461  10.841  0.00  0.00    +0.000 A 
ATOM     19  C   UNL     1      46.611   6.565  10.952  0.00  0.00    +0.000 A 
ATOM     20  C   UNL     1      46.434   7.424  12.028  0.00  0.00    +0.000 A 
ATOM     21  N   UNL     1      45.512   7.242  12.999  0.00  0.00    +0.000 NA
ATOM     22  C   UNL     1      44.705   6.161  12.868  0.00  0.00    +0.000 A 
BRANCH  17  24
ATOM     23  C   UNL     1      44.290   3.003  10.317  0.00  0.00    +0.000 C 
ATOM     24  S   UNL     1      43.682   3.918  11.712  0.00  0.00    +0.000 S 
ATOM     25  O   UNL     1      42.376   4.438  11.373  0.00  0.00    +0.000 OA
ATOM     26  O   UNL     1      43.877   3.102  12.899  0.00  0.00    +0.000 OA
ENDBRANCH  17  24
ENDBRANCH  16  20
ENDBRANCH   1  16
TORSDOF 5
ENDMDL
MODEL 8
REMARK VINA RESULT:    -6.325      3.774      7.329
REMARK INTER + INTRA:          -9.179
REMARK INTER:                  -8.331
REMARK INTRA:                  -0.848
REMARK UNBOUND:                -1.005
REMARK  Name = 
REMARK  6 active torsions:
REMARK  status: ('A' for Active; 'I' for Inactive)
REMARK    1  A    between atoms: C_1  and  S_2
REMARK    2  A    between atoms: S_2  and  C_5
REMARK    3  A    between atoms: C_8  and  O_9
REMARK    4  A    between atoms: O_9  and  C_10
REMARK    5  A    between atoms: C_10  and  C_11
REMARK    6  A    between atoms: C_15  and  C_16
REMARK                            x       y       z     vdW  Elec       q    Type
REMARK                         _______ _______ _______ _____ _____    ______ ____
ROOT
ATOM      1  C   UNL     1      44.402   5.755  11.268  0.00  0.00    +0.000 C 
ATOM      2  C   UNL     1      43.122   6.561  11.111  0.00  0.00    +0.000 C 
ATOM      3  C   UNL     1      43.497   6.023  12.452  0.00  0.00    +0.000 C 
ENDROOT
BRANCH   1   4
ATOM      4  C   UNL     1      44.509   4.332  10.737  0.00  0.00    +0.000 A 
ATOM      5  C   UNL     1      43.684   3.304  11.212  0.00  0.00    +0.000 A 
ATOM      6  C   UNL     1      43.696   2.041  10.618  0.00  0.00    +0.000 A 
ATOM      7  C   UNL     1      44.527   1.784   9.524  0.00  0.00    +0.000 A 
ATOM      8  C   UNL     1      45.370   2.777   9.004  0.00  0.00    +0.000 A 
ATOM      9  C   UNL     1      45.362   4.027   9.652  0.00  0.00    +0.000 A 
BRANCH   8  10
ATOM     10  C   UNL     1      46.158   2.556   7.773  0.00  0.00    +0.000 A 
ATOM     11  C   UNL     1      46.210   3.519   6.752  0.00  0.00    +0.000 A 
ATOM     12  C   UNL     1      47.000   3.322   5.621  0.00  0.00    +0.000 A 
ATOM     13  C   UNL     1      47.735   2.155   5.529  0.00  0.00    +0.000 A 
ATOM     14  N   UNL     1      47.720   1.193   6.474  0.00  0.00    +0.000 NA
ATOM     15  C   UNL     1      46.938   1.415   7.562  0.00  0.00    +0.000 A 
ENDBRANCH   8  10
ENDBRANCH   1   4
BRANCH   1  16
ATOM     16  O   UNL     1      45.531   6.632  11.032  0.00  0.00    +0.000 OA
BRANCH  16  20
ATOM     17  C   UNL     1      48.098   7.441  14.114  0.00  0.00    +0.000 A 
ATOM     18  C   UNL     1      47.316   8.462  13.585  0.00  0.00    +0.000 A 
ATOM     19  C   UNL     1      46.455   8.160  12.538  0.00  0.00    +0.000 A 
ATOM     20  C   UNL     1      46.410   6.853  12.072  0.00  0.00    +0.000 A 
ATOM     21  N   UNL     1      47.136   5.839  12.593  0.00  0.00    +0.000 NA
ATOM     22  C   UNL     1      47.972   6.157  13.612  0.00  0.00    +0.000 A 
BRANCH  17  24
ATOM     23  C   UNL     1      49.115   9.519  15.624  0.00  0.00    +0.000 C 
ATOM     24  S   UNL     1      49.233   7.760  15.416  0.00  0.00    +0.000 S 
ATOM     25  O   UNL     1      50.561   7.453  14.934  0.00  0.00    +0.000 OA
ATOM     26  O   UNL     1      48.710   7.133  16.618  0.00  0.00    +0.000 OA
ENDBRANCH  17  24
ENDBRANCH  16  20
ENDBRANCH   1  16
TORSDOF 5
ENDMDL
MODEL 9
REMARK VINA RESULT:    -5.971      5.001      8.623
REMARK INTER + INTRA:          -8.722
REMARK INTER:                  -7.825
REMARK INTRA:                  -0.897
REMARK UNBOUND:                -1.005
REMARK  Name = 
REMARK  6 active torsions:
REMARK  status: ('A' for Active; 'I' for Inactive)
REMARK    1  A    between atoms: C_1  and  S_2
REMARK    2  A    between atoms: S_2  and  C_5
REMARK    3  A    between atoms: C_8  and  O_9
REMARK    4  A    between atoms: O_9  and  C_10
REMARK    5  A    between atoms: C_10  and  C_11
REMARK    6  A    between atoms: C_15  and  C_16
REMARK                            x       y       z     vdW  Elec       q    Type
REMARK                         _______ _______ _______ _____ _____    ______ ____
ROOT
ATOM      1  C   UNL     1      48.933   7.982  12.837  0.00  0.00    +0.000 C 
ATOM      2  C   UNL     1      49.832   8.561  11.755  0.00  0.00    +0.000 C 
ATOM      3  C   UNL     1      49.396   9.423  12.894  0.00  0.00    +0.000 C 
ENDROOT
BRANCH   1   4
ATOM      4  C   UNL     1      47.460   7.698  12.571  0.00  0.00    +0.000 A 
ATOM      5  C   UNL     1      46.455   8.596  12.953  0.00  0.00    +0.000 A 
ATOM      6  C   UNL     1      45.127   8.391  12.578  0.00  0.00    +0.000 A 
ATOM      7  C   UNL     1      44.778   7.285  11.798  0.00  0.00    +0.000 A 
ATOM      8  C   UNL     1      45.743   6.356  11.382  0.00  0.00    +0.000 A 
ATOM      9  C   UNL     1      47.067   6.573  11.812  0.00  0.00    +0.000 A 
BRANCH   8  10
ATOM     10  C   UNL     1      45.408   5.255  10.455  0.00  0.00    +0.000 A 
ATOM     11  C   UNL     1      44.652   4.147  10.873  0.00  0.00    +0.000 A 
ATOM     12  C   UNL     1      44.297   3.142   9.976  0.00  0.00    +0.000 A 
ATOM     13  C   UNL     1      44.705   3.263   8.660  0.00  0.00    +0.000 A 
ATOM     14  N   UNL     1      45.436   4.300   8.203  0.00  0.00    +0.000 NA
ATOM     15  C   UNL     1      45.767   5.260   9.104  0.00  0.00    +0.000 A 
ENDBRANCH   8  10
ENDBRANCH   1   4
BRANCH   1  16
ATOM     16  O   UNL     1      49.676   6.974  13.564  0.00  0.00    +0.000 OA
BRANCH  16  20
ATOM     17  C   UNL     1      48.978   6.622  17.581  0.00  0.00    +0.000 A 
ATOM     18  C   UNL     1      49.791   7.648  17.112  0.00  0.00    +0.000 A 
ATOM     19  C   UNL     1      50.013   7.743  15.744  0.00  0.00    +0.000 A 
ATOM     20  C   UNL     1      49.409   6.813  14.908  0.00  0.00    +0.000 A 
ATOM     21  N   UNL     1      48.589   5.830  15.339  0.00  0.00    +0.000 NA
ATOM     22  C   UNL     1      48.389   5.753  16.678  0.00  0.00    +0.000 A 
BRANCH  17  24
ATOM     23  C   UNL     1      47.545   7.736  19.664  0.00  0.00    +0.000 C 
ATOM     24  S   UNL     1      48.684   6.423  19.301  0.00  0.00    +0.000 S 
ATOM     25  O   UNL     1      49.921   6.695  19.998  0.00  0.00    +0.000 OA
ATOM     26  O   UNL     1      47.983   5.163  19.483  0.00  0.00    +0.000 OA
ENDBRANCH  17  24
ENDBRANCH  16  20
ENDBRANCH   1  16
TORSDOF 5
ENDMDL
