MODEL 1
REMARK VINA RESULT:    -7.853      0.000      0.000
REMARK INTER + INTRA:         -12.110
REMARK INTER:                 -11.067
REMARK INTRA:                  -1.043
REMARK UNBOUND:                -1.043
REMARK  Name = 
REMARK  8 active torsions:
REMARK  status: ('A' for Active; 'I' for Inactive)
REMARK    1  A    between atoms: C_1  and  O_2
REMARK    2  A    between atoms: O_2  and  C_3
REMARK    3  A    between atoms: C_7  and  C_8
REMARK    4  A    between atoms: N_10  and  C_11
REMARK    5  A    between atoms: C_11  and  C_12
REMARK    6  A    between atoms: C_15  and  C_16
REMARK    7  A    between atoms: C_16  and  N_17
REMARK    8  A    between atoms: C_18  and  C_20
REMARK                            x       y       z     vdW  Elec       q    Type
REMARK                         _______ _______ _______ _____ _____    ______ ____
ROOT
ATOM      1  C   UNL     1      46.841   2.101   6.613  0.00  0.00    +0.000 A 
ATOM      2  C   UNL     1      46.443   3.443   6.705  0.00  0.00    +0.000 A 
ATOM      3  C   UNL     1      45.696   3.899   7.798  0.00  0.00    +0.000 A 
ATOM      4  C   UNL     1      45.343   3.026   8.837  0.00  0.00    +0.000 A 
ATOM      5  C   UNL     1      45.739   1.684   8.743  0.00  0.00    +0.000 A 
ATOM      6  C   UNL     1      46.489   1.230   7.653  0.00  0.00    +0.000 A 
ENDROOT
BRANCH   1   7
ATOM      7  C   UNL     1      47.642   1.613   5.433  0.00  0.00    +0.000 C 
BRANCH   7  10
ATOM      8  C   UNL     1      46.799  -0.029   3.811  0.00  0.00    +0.000 C 
ATOM      9  O   UNL     1      46.582   0.827   2.955  0.00  0.00    +0.000 OA
ATOM     10  N   UNL     1      47.289   0.258   5.067  0.00  0.00    +0.000 N 
ATOM     11  H   UNL     1      47.640  -0.491   5.648  0.00  0.00    +0.000 HD
BRANCH   8  16
ATOM     12  C   UNL     1      46.658  -3.787   4.245  0.00  0.00    +0.000 A 
ATOM     13  C   UNL     1      46.114  -4.188   3.024  0.00  0.00    +0.000 A 
ATOM     14  C   UNL     1      45.827  -3.241   2.035  0.00  0.00    +0.000 A 
ATOM     15  C   UNL     1      46.064  -1.886   2.268  0.00  0.00    +0.000 A 
ATOM     16  C   UNL     1      46.589  -1.473   3.497  0.00  0.00    +0.000 A 
ATOM     17  C   UNL     1      46.914  -2.430   4.468  0.00  0.00    +0.000 A 
BRANCH  12  19
ATOM     18  C   UNL     1      46.424  -5.928   5.265  0.00  0.00    +0.000 C 
ATOM     19  O   UNL     1      46.961  -4.610   5.294  0.00  0.00    +0.000 OA
ENDBRANCH  12  19
ENDBRANCH   8  16
ENDBRANCH   7  10
ENDBRANCH   1   7
BRANCH   4  20
ATOM     20  C   UNL     1      44.547   3.498  10.032  0.00  0.00    +0.000 C 
BRANCH  20  21
ATOM     21  N   UNL     1      45.101   4.696  10.613  0.00  0.00    +0.000 N 
ATOM     22  C   UNL     1      44.298   5.649  11.192  0.00  0.00    +0.000 C 
ATOM     23  O   UNL     1      43.078   5.520  11.269  0.00  0.00    +0.000 OA
ATOM     24  H   UNL     1      46.032   4.962  10.310  0.00  0.00    +0.000 HD
BRANCH  22  25
ATOM     25  C   UNL     1      44.984   6.810  11.775  0.00  0.00    +0.000 A 
ATOM     26  C   UNL     1      44.627   8.095  11.391  0.00  0.00    +0.000 A 
ATOM     27  S   UNL     1      45.500   9.317  12.202  0.00  0.00    +0.000 S 
ATOM     28  C   UNL     1      46.422   8.169  13.055  0.00  0.00    +0.000 A 
ATOM     29  N   UNL     1      47.401   8.555  13.917  0.00  0.00    +0.000 NA
ATOM     30  C   UNL     1      48.042   7.578  14.469  0.00  0.00    +0.000 A 
ATOM     31  N   UNL     1      47.784   6.249  14.244  0.00  0.00    +0.000 N 
ATOM     32  C   UNL     1      46.775   5.815  13.420  0.00  0.00    +0.000 A 
ATOM     33  O   UNL     1      46.521   4.621  13.298  0.00  0.00    +0.000 OA
ATOM     34  C   UNL     1      46.046   6.874  12.748  0.00  0.00    +0.000 A 
ATOM     35  H   UNL     1      48.307   5.531  14.724  0.00  0.00    +0.000 HD
ENDBRANCH  22  25
ENDBRANCH  20  21
ENDBRANCH   4  20
TORSDOF 7
ENDMDL
MODEL 2
REMARK VINA RESULT:    -7.678      3.297      6.214
REMARK INTER + INTRA:         -11.863
REMARK INTER:                 -11.311
REMARK INTRA:                  -0.552
REMARK UNBOUND:                -1.043
REMARK  Name = 
REMARK  8 active torsions:
REMARK  status: ('A' for Active; 'I' for Inactive)
REMARK    1  A    between atoms: C_1  and  O_2
REMARK    2  A    between atoms: O_2  and  C_3
REMARK    3  A    between atoms: C_7  and  C_8
REMARK    4  A    between atoms: N_10  and  C_11
REMARK    5  A    between atoms: C_11  and  C_12
REMARK    6  A    between atoms: C_15  and  C_16
REMARK    7  A    between atoms: C_16  and  N_17
REMARK    8  A    between atoms: C_18  and  C_20
REMARK                            x       y       z     vdW  Elec       q    Type
REMARK                         _______ _______ _______ _____ _____    ______ ____
ROOT
ATOM      1  C   UNL     1      44.629   5.339  11.299  0.00  0.00    +0.000 A 
ATOM      2  C   UNL     1      44.416   6.723  11.376  0.00  0.00    +0.000 A 
ATOM      3  C   UNL     1      45.293   7.547  12.093  0.00  0.00    +0.000 A 
ATOM      4  C   UNL     1      46.416   7.007  12.735  0.00  0.00    +0.000 A 
ATOM      5  C   UNL     1      46.627   5.624  12.658  0.00  0.00    +0.000 A 
ATOM      6  C   UNL     1      45.753   4.800  11.939  0.00  0.00    +0.000 A 
ENDROOT
BRANCH   1   7
ATOM      7  C   UNL     1      43.680   4.454  10.530  0.00  0.00    +0.000 C 
BRANCH   7  10
ATOM      8  C   UNL     1      45.255   4.158   8.665  0.00  0.00    +0.000 C 
ATOM      9  O   UNL     1      45.456   5.365   8.555  0.00  0.00    +0.000 OA
ATOM     10  N   UNL     1      44.380   3.613   9.582  0.00  0.00    +0.000 N 
ATOM     11  H   UNL     1      44.408   2.620   9.768  0.00  0.00    +0.000 HD
BRANCH   8  16
ATOM     12  C   UNL     1      46.798   0.913   7.476  0.00  0.00    +0.000 A 
ATOM     13  C   UNL     1      47.333   1.293   6.244  0.00  0.00    +0.000 A 
ATOM     14  C   UNL     1      47.230   2.619   5.812  0.00  0.00    +0.000 A 
ATOM     15  C   UNL     1      46.575   3.568   6.598  0.00  0.00    +0.000 A 
ATOM     16  C   UNL     1      46.018   3.190   7.823  0.00  0.00    +0.000 A 
ATOM     17  C   UNL     1      46.160   1.870   8.272  0.00  0.00    +0.000 A 
BRANCH  12  19
ATOM     18  C   UNL     1      46.618  -1.433   7.095  0.00  0.00    +0.000 C 
ATOM     19  O   UNL     1      46.815  -0.351   7.999  0.00  0.00    +0.000 OA
ENDBRANCH  12  19
ENDBRANCH   8  16
ENDBRANCH   7  10
ENDBRANCH   1   7
BRANCH   4  20
ATOM     20  C   UNL     1      47.383   7.878  13.504  0.00  0.00    +0.000 C 
BRANCH  20  21
ATOM     21  N   UNL     1      47.722   7.310  14.786  0.00  0.00    +0.000 N 
ATOM     22  C   UNL     1      49.008   6.931  15.084  0.00  0.00    +0.000 C 
ATOM     23  O   UNL     1      49.937   7.080  14.293  0.00  0.00    +0.000 OA
ATOM     24  H   UNL     1      46.960   6.911  15.325  0.00  0.00    +0.000 HD
BRANCH  22  25
ATOM     25  C   UNL     1      49.231   6.393  16.433  0.00  0.00    +0.000 A 
ATOM     26  C   UNL     1      49.993   7.104  17.351  0.00  0.00    +0.000 A 
ATOM     27  S   UNL     1      50.109   6.346  18.876  0.00  0.00    +0.000 S 
ATOM     28  C   UNL     1      49.189   5.016  18.345  0.00  0.00    +0.000 A 
ATOM     29  N   UNL     1      48.937   3.963  19.169  0.00  0.00    +0.000 NA
ATOM     30  C   UNL     1      48.256   3.010  18.624  0.00  0.00    +0.000 A 
ATOM     31  N   UNL     1      47.795   3.019  17.333  0.00  0.00    +0.000 N 
ATOM     32  C   UNL     1      47.984   4.080  16.482  0.00  0.00    +0.000 A 
ATOM     33  O   UNL     1      47.495   4.090  15.356  0.00  0.00    +0.000 OA
ATOM     34  C   UNL     1      48.774   5.164  17.034  0.00  0.00    +0.000 A 
ATOM     35  H   UNL     1      47.248   2.251  16.972  0.00  0.00    +0.000 HD
ENDBRANCH  22  25
ENDBRANCH  20  21
ENDBRANCH   4  20
TORSDOF 7
ENDMDL
MODEL 3
REMARK VINA RESULT:    -7.463      3.734      6.907
REMARK INTER + INTRA:         -11.561
REMARK INTER:                 -10.527
REMARK INTRA:                  -1.034
REMARK UNBOUND:                -1.043
REMARK  Name = 
REMARK  8 active torsions:
REMARK  status: ('A' for Active; 'I' for Inactive)
REMARK    1  A    between atoms: C_1  and  O_2
REMARK    2  A    between atoms: O_2  and  C_3
REMARK    3  A    between atoms: C_7  and  C_8
REMARK    4  A    between atoms: N_10  and  C_11
REMARK    5  A    between atoms: C_11  and  C_12
REMARK    6  A    between atoms: C_15  and  C_16
REMARK    7  A    between atoms: C_16  and  N_17
REMARK    8  A    between atoms: C_18  and  C_20
REMARK                            x       y       z     vdW  Elec       q    Type
REMARK                         _______ _______ _______ _____ _____    ______ ____
ROOT
ATOM      1  C   UNL     1      45.310   5.508  11.572  0.00  0.00    +0.000 A 
ATOM      2  C   UNL     1      45.810   4.690  12.596  0.00  0.00    +0.000 A 
ATOM      3  C   UNL     1      46.837   5.136  13.437  0.00  0.00    +0.000 A 
ATOM      4  C   UNL     1      47.377   6.421  13.286  0.00  0.00    +0.000 A 
ATOM      5  C   UNL     1      46.878   7.237  12.262  0.00  0.00    +0.000 A 
ATOM      6  C   UNL     1      45.848   6.793  11.423  0.00  0.00    +0.000 A 
ENDROOT
BRANCH   1   7
ATOM      7  C   UNL     1      44.206   5.023  10.666  0.00  0.00    +0.000 C 
BRANCH   7  10
ATOM      8  C   UNL     1      45.449   4.116   8.749  0.00  0.00    +0.000 C 
ATOM      9  O   UNL     1      45.812   5.228   8.372  0.00  0.00    +0.000 OA
ATOM     10  N   UNL     1      44.636   3.912   9.844  0.00  0.00    +0.000 N 
ATOM     11  H   UNL     1      44.540   2.982  10.227  0.00  0.00    +0.000 HD
BRANCH   8  16
ATOM     12  C   UNL     1      47.021   1.908   6.107  0.00  0.00    +0.000 A 
ATOM     13  C   UNL     1      46.977   0.658   6.726  0.00  0.00    +0.000 A 
ATOM     14  C   UNL     1      46.397   0.519   7.991  0.00  0.00    +0.000 A 
ATOM     15  C   UNL     1      45.876   1.631   8.654  0.00  0.00    +0.000 A 
ATOM     16  C   UNL     1      45.936   2.891   8.050  0.00  0.00    +0.000 A 
ATOM     17  C   UNL     1      46.480   3.018   6.765  0.00  0.00    +0.000 A 
BRANCH  12  19
ATOM     18  C   UNL     1      47.169   1.365   3.792  0.00  0.00    +0.000 C 
ATOM     19  O   UNL     1      47.578   2.177   4.887  0.00  0.00    +0.000 OA
ENDBRANCH  12  19
ENDBRANCH   8  16
ENDBRANCH   7  10
ENDBRANCH   1   7
BRANCH   4  20
ATOM     20  C   UNL     1      48.478   6.928  14.189  0.00  0.00    +0.000 C 
BRANCH  20  21
ATOM     21  N   UNL     1      48.248   6.582  15.570  0.00  0.00    +0.000 N 
ATOM     22  C   UNL     1      49.275   6.175  16.387  0.00  0.00    +0.000 C 
ATOM     23  O   UNL     1      50.438   6.110  15.996  0.00  0.00    +0.000 OA
ATOM     24  H   UNL     1      47.296   6.344  15.829  0.00  0.00    +0.000 HD
BRANCH  22  25
ATOM     25  C   UNL     1      48.918   5.878  17.781  0.00  0.00    +0.000 A 
ATOM     26  C   UNL     1      49.093   4.597  18.288  0.00  0.00    +0.000 A 
ATOM     27  S   UNL     1      48.665   4.450  19.934  0.00  0.00    +0.000 S 
ATOM     28  C   UNL     1      48.182   6.080  20.011  0.00  0.00    +0.000 A 
ATOM     29  N   UNL     1      47.669   6.607  21.155  0.00  0.00    +0.000 NA
ATOM     30  C   UNL     1      47.313   7.845  21.060  0.00  0.00    +0.000 A 
ATOM     31  N   UNL     1      47.433   8.608  19.926  0.00  0.00    +0.000 N 
ATOM     32  C   UNL     1      47.988   8.131  18.764  0.00  0.00    +0.000 A 
ATOM     33  O   UNL     1      48.151   8.859  17.789  0.00  0.00    +0.000 OA
ATOM     34  C   UNL     1      48.374   6.734  18.807  0.00  0.00    +0.000 A 
ATOM     35  H   UNL     1      47.156   9.578  19.922  0.00  0.00    +0.000 HD
ENDBRANCH  22  25
ENDBRANCH  20  21
ENDBRANCH   4  20
TORSDOF 7
ENDMDL
MODEL 4
REMARK VINA RESULT:    -7.421      3.921      6.700
REMARK INTER + INTRA:         -11.501
REMARK INTER:                 -10.394
REMARK INTRA:                  -1.107
REMARK UNBOUND:                -1.043
REMARK  Name = 
REMARK  8 active torsions:
REMARK  status: ('A' for Active; 'I' for Inactive)
REMARK    1  A    between atoms: C_1  and  O_2
REMARK    2  A    between atoms: O_2  and  C_3
REMARK    3  A    between atoms: C_7  and  C_8
REMARK    4  A    between atoms: N_10  and  C_11
REMARK    5  A    between atoms: C_11  and  C_12
REMARK    6  A    between atoms: C_15  and  C_16
REMARK    7  A    between atoms: C_16  and  N_17
REMARK    8  A    between atoms: C_18  and  C_20
REMARK                            x       y       z     vdW  Elec       q    Type
REMARK                         _______ _______ _______ _____ _____    ______ ____
ROOT
ATOM      1  C   UNL     1      45.400   4.650  11.982  0.00  0.00    +0.000 A 
ATOM      2  C   UNL     1      45.898   5.904  11.599  0.00  0.00    +0.000 A 
ATOM      3  C   UNL     1      46.842   6.574  12.387  0.00  0.00    +0.000 A 
ATOM      4  C   UNL     1      47.325   5.996  13.569  0.00  0.00    +0.000 A 
ATOM      5  C   UNL     1      46.826   4.744  13.952  0.00  0.00    +0.000 A 
ATOM      6  C   UNL     1      45.885   4.072  13.163  0.00  0.00    +0.000 A 
ENDROOT
BRANCH   1   7
ATOM      7  C   UNL     1      44.380   3.933  11.133  0.00  0.00    +0.000 C 
BRANCH   7  10
ATOM      8  C   UNL     1      45.222   3.611   8.846  0.00  0.00    +0.000 C 
ATOM      9  O   UNL     1      44.859   4.728   8.483  0.00  0.00    +0.000 OA
ATOM     10  N   UNL     1      45.007   3.116  10.115  0.00  0.00    +0.000 N 
ATOM     11  H   UNL     1      45.502   2.289  10.417  0.00  0.00    +0.000 HD
BRANCH   8  16
ATOM     12  C   UNL     1      46.771   0.502   7.343  0.00  0.00    +0.000 A 
ATOM     13  C   UNL     1      47.315   1.005   6.161  0.00  0.00    +0.000 A 
ATOM     14  C   UNL     1      47.217   2.369   5.865  0.00  0.00    +0.000 A 
ATOM     15  C   UNL     1      46.558   3.234   6.739  0.00  0.00    +0.000 A 
ATOM     16  C   UNL     1      45.991   2.733   7.915  0.00  0.00    +0.000 A 
ATOM     17  C   UNL     1      46.129   1.374   8.228  0.00  0.00    +0.000 A 
BRANCH  12  19
ATOM     18  C   UNL     1      46.670  -1.794   6.713  0.00  0.00    +0.000 C 
ATOM     19  O   UNL     1      46.783  -0.809   7.734  0.00  0.00    +0.000 OA
ENDBRANCH  12  19
ENDBRANCH   8  16
ENDBRANCH   7  10
ENDBRANCH   1   7
BRANCH   4  20
ATOM     20  C   UNL     1      48.353   6.695  14.430  0.00  0.00    +0.000 C 
BRANCH  20  21
ATOM     21  N   UNL     1      48.153   6.432  15.834  0.00  0.00    +0.000 N 
ATOM     22  C   UNL     1      49.200   6.094  16.656  0.00  0.00    +0.000 C 
ATOM     23  O   UNL     1      50.357   6.024  16.249  0.00  0.00    +0.000 OA
ATOM     24  H   UNL     1      47.210   6.195  16.124  0.00  0.00    +0.000 HD
BRANCH  22  25
ATOM     25  C   UNL     1      48.872   5.879  18.072  0.00  0.00    +0.000 A 
ATOM     26  C   UNL     1      49.089   4.638  18.657  0.00  0.00    +0.000 A 
ATOM     27  S   UNL     1      48.689   4.587  20.316  0.00  0.00    +0.000 S 
ATOM     28  C   UNL     1      48.164   6.206  20.296  0.00  0.00    +0.000 A 
ATOM     29  N   UNL     1      47.654   6.792  21.412  0.00  0.00    +0.000 NA
ATOM     30  C   UNL     1      47.264   8.012  21.244  0.00  0.00    +0.000 A 
ATOM     31  N   UNL     1      47.347   8.702  20.061  0.00  0.00    +0.000 N 
ATOM     32  C   UNL     1      47.897   8.166  18.923  0.00  0.00    +0.000 A 
ATOM     33  O   UNL     1      48.026   8.834  17.901  0.00  0.00    +0.000 OA
ATOM     34  C   UNL     1      48.321   6.784  19.049  0.00  0.00    +0.000 A 
ATOM     35  H   UNL     1      47.044   9.663  19.999  0.00  0.00    +0.000 HD
ENDBRANCH  22  25
ENDBRANCH  20  21
ENDBRANCH   4  20
TORSDOF 7
ENDMDL
MODEL 5
REMARK VINA RESULT:    -7.318      1.198      2.175
REMARK INTER + INTRA:         -11.356
REMARK INTER:                 -10.385
REMARK INTRA:                  -0.971
REMARK UNBOUND:                -1.043
REMARK  Name = 
REMARK  8 active torsions:
REMARK  status: ('A' for Active; 'I' for Inactive)
REMARK    1  A    between atoms: C_1  and  O_2
REMARK    2  A    between atoms: O_2  and  C_3
REMARK    3  A    between atoms: C_7  and  C_8
REMARK    4  A    between atoms: N_10  and  C_11
REMARK    5  A    between atoms: C_11  and  C_12
REMARK    6  A    between atoms: C_15  and  C_16
REMARK    7  A    between atoms: C_16  and  N_17
REMARK    8  A    between atoms: C_18  and  C_20
REMARK                            x       y       z     vdW  Elec       q    Type
REMARK                         _______ _______ _______ _____ _____    ______ ____
ROOT
ATOM      1  C   UNL     1      46.795   2.134   6.736  0.00  0.00    +0.000 A 
ATOM      2  C   UNL     1      46.325   1.206   7.677  0.00  0.00    +0.000 A 
ATOM      3  C   UNL     1      45.595   1.624   8.796  0.00  0.00    +0.000 A 
ATOM      4  C   UNL     1      45.301   2.981   8.993  0.00  0.00    +0.000 A 
ATOM      5  C   UNL     1      45.774   3.908   8.053  0.00  0.00    +0.000 A 
ATOM      6  C   UNL     1      46.500   3.490   6.932  0.00  0.00    +0.000 A 
ENDROOT
BRANCH   1   7
ATOM      7  C   UNL     1      47.584   1.681   5.533  0.00  0.00    +0.000 C 
BRANCH   7  10
ATOM      8  C   UNL     1      46.779   0.061   3.869  0.00  0.00    +0.000 C 
ATOM      9  O   UNL     1      46.585   0.928   3.020  0.00  0.00    +0.000 OA
ATOM     10  N   UNL     1      47.238   0.331   5.141  0.00  0.00    +0.000 N 
ATOM     11  H   UNL     1      47.572  -0.426   5.721  0.00  0.00    +0.000 HD
BRANCH   8  16
ATOM     12  C   UNL     1      46.637  -3.703   4.246  0.00  0.00    +0.000 A 
ATOM     13  C   UNL     1      46.107  -4.087   3.013  0.00  0.00    +0.000 A 
ATOM     14  C   UNL     1      45.831  -3.126   2.035  0.00  0.00    +0.000 A 
ATOM     15  C   UNL     1      46.064  -1.773   2.291  0.00  0.00    +0.000 A 
ATOM     16  C   UNL     1      46.574  -1.379   3.532  0.00  0.00    +0.000 A 
ATOM     17  C   UNL     1      46.889  -2.349   4.492  0.00  0.00    +0.000 A 
BRANCH  12  19
ATOM     18  C   UNL     1      47.348  -5.862   4.962  0.00  0.00    +0.000 C 
ATOM     19  O   UNL     1      46.929  -4.541   5.287  0.00  0.00    +0.000 OA
ENDBRANCH  12  19
ENDBRANCH   8  16
ENDBRANCH   7  10
ENDBRANCH   1   7
BRANCH   4  20
ATOM     20  C   UNL     1      44.506   3.454  10.187  0.00  0.00    +0.000 C 
BRANCH  20  21
ATOM     21  N   UNL     1      45.040   4.672  10.746  0.00  0.00    +0.000 N 
ATOM     22  C   UNL     1      45.523   4.720  12.031  0.00  0.00    +0.000 C 
ATOM     23  O   UNL     1      45.550   3.730  12.759  0.00  0.00    +0.000 OA
ATOM     24  H   UNL     1      44.765   5.540  10.297  0.00  0.00    +0.000 HD
BRANCH  22  25
ATOM     25  C   UNL     1      46.067   6.011  12.474  0.00  0.00    +0.000 A 
ATOM     26  C   UNL     1      47.225   6.053  13.239  0.00  0.00    +0.000 A 
ATOM     27  S   UNL     1      47.730   7.638  13.625  0.00  0.00    +0.000 S 
ATOM     28  C   UNL     1      46.390   8.318  12.827  0.00  0.00    +0.000 A 
ATOM     29  N   UNL     1      46.194   9.664  12.807  0.00  0.00    +0.000 NA
ATOM     30  C   UNL     1      45.119  10.038  12.195  0.00  0.00    +0.000 A 
ATOM     31  N   UNL     1      44.228   9.188  11.591  0.00  0.00    +0.000 N 
ATOM     32  C   UNL     1      44.411   7.827  11.545  0.00  0.00    +0.000 A 
ATOM     33  O   UNL     1      43.635   7.100  10.933  0.00  0.00    +0.000 OA
ATOM     34  C   UNL     1      45.587   7.352  12.249  0.00  0.00    +0.000 A 
ATOM     35  H   UNL     1      43.416   9.545  11.109  0.00  0.00    +0.000 HD
ENDBRANCH  22  25
ENDBRANCH  20  21
ENDBRANCH   4  20
TORSDOF 7
ENDMDL
MODEL 6
REMARK VINA RESULT:    -7.307      7.705     11.240
REMARK INTER + INTRA:         -11.341
REMARK INTER:                 -10.404
REMARK INTRA:                  -0.937
REMARK UNBOUND:                -1.043
REMARK  Name = 
REMARK  8 active torsions:
REMARK  status: ('A' for Active; 'I' for Inactive)
REMARK    1  A    between atoms: C_1  and  O_2
REMARK    2  A    between atoms: O_2  and  C_3
REMARK    3  A    between atoms: C_7  and  C_8
REMARK    4  A    between atoms: N_10  and  C_11
REMARK    5  A    between atoms: C_11  and  C_12
REMARK    6  A    between atoms: C_15  and  C_16
REMARK    7  A    between atoms: C_16  and  N_17
REMARK    8  A    between atoms: C_18  and  C_20
REMARK                            x       y       z     vdW  Elec       q    Type
REMARK                         _______ _______ _______ _____ _____    ______ ____
ROOT
ATOM      1  C   UNL     1      51.442   3.036  17.734  0.00  0.00    +0.000 A 
ATOM      2  C   UNL     1      50.768   4.228  18.037  0.00  0.00    +0.000 A 
ATOM      3  C   UNL     1      49.400   4.368  17.774  0.00  0.00    +0.000 A 
ATOM      4  C   UNL     1      48.667   3.309  17.218  0.00  0.00    +0.000 A 
ATOM      5  C   UNL     1      49.342   2.119  16.914  0.00  0.00    +0.000 A 
ATOM      6  C   UNL     1      50.709   1.977  17.181  0.00  0.00    +0.000 A 
ENDROOT
BRANCH   1   7
ATOM      7  C   UNL     1      52.917   2.890  18.015  0.00  0.00    +0.000 C 
BRANCH   7  10
ATOM      8  C   UNL     1      54.137   0.783  18.351  0.00  0.00    +0.000 C 
ATOM      9  O   UNL     1      54.410   1.049  19.520  0.00  0.00    +0.000 OA
ATOM     10  N   UNL     1      53.436   1.633  17.521  0.00  0.00    +0.000 N 
ATOM     11  H   UNL     1      53.066   1.283  16.649  0.00  0.00    +0.000 HD
BRANCH   8  16
ATOM     12  C   UNL     1      54.696  -2.949  18.064  0.00  0.00    +0.000 A 
ATOM     13  C   UNL     1      55.093  -3.070  16.732  0.00  0.00    +0.000 A 
ATOM     14  C   UNL     1      55.221  -1.932  15.929  0.00  0.00    +0.000 A 
ATOM     15  C   UNL     1      54.934  -0.669  16.447  0.00  0.00    +0.000 A 
ATOM     16  C   UNL     1      54.515  -0.541  17.775  0.00  0.00    +0.000 A 
ATOM     17  C   UNL     1      54.429  -1.680  18.587  0.00  0.00    +0.000 A 
BRANCH  12  19
ATOM     18  C   UNL     1      53.193  -4.209  19.419  0.00  0.00    +0.000 C 
ATOM     19  O   UNL     1      54.515  -3.983  18.941  0.00  0.00    +0.000 OA
ENDBRANCH  12  19
ENDBRANCH   8  16
ENDBRANCH   7  10
ENDBRANCH   1   7
BRANCH   4  20
ATOM     20  C   UNL     1      47.187   3.433  16.936  0.00  0.00    +0.000 C 
BRANCH  20  21
ATOM     21  N   UNL     1      46.913   4.392  15.894  0.00  0.00    +0.000 N 
ATOM     22  C   UNL     1      46.983   4.047  14.566  0.00  0.00    +0.000 C 
ATOM     23  O   UNL     1      47.254   2.906  14.198  0.00  0.00    +0.000 OA
ATOM     24  H   UNL     1      46.980   5.372  16.146  0.00  0.00    +0.000 HD
BRANCH  22  25
ATOM     25  C   UNL     1      46.652   5.105  13.602  0.00  0.00    +0.000 A 
ATOM     26  C   UNL     1      47.585   6.089  13.300  0.00  0.00    +0.000 A 
ATOM     27  S   UNL     1      47.042   7.207  12.130  0.00  0.00    +0.000 S 
ATOM     28  C   UNL     1      45.524   6.445  12.025  0.00  0.00    +0.000 A 
ATOM     29  N   UNL     1      44.549   6.931  11.211  0.00  0.00    +0.000 NA
ATOM     30  C   UNL     1      43.438   6.273  11.257  0.00  0.00    +0.000 A 
ATOM     31  N   UNL     1      43.217   5.167  12.037  0.00  0.00    +0.000 N 
ATOM     32  C   UNL     1      44.187   4.614  12.837  0.00  0.00    +0.000 A 
ATOM     33  O   UNL     1      43.982   3.580  13.466  0.00  0.00    +0.000 OA
ATOM     34  C   UNL     1      45.445   5.336  12.848  0.00  0.00    +0.000 A 
ATOM     35  H   UNL     1      42.331   4.683  12.012  0.00  0.00    +0.000 HD
ENDBRANCH  22  25
ENDBRANCH  20  21
ENDBRANCH   4  20
TORSDOF 7
ENDMDL
MODEL 7
REMARK VINA RESULT:    -6.903      4.430      8.067
REMARK INTER + INTRA:         -10.772
REMARK INTER:                  -9.648
REMARK INTRA:                  -1.124
REMARK UNBOUND:                -1.043
REMARK  Name = 
REMARK  8 active torsions:
REMARK  status: ('A' for Active; 'I' for Inactive)
REMARK    1  A    between atoms: C_1  and  O_2
REMARK    2  A    between atoms: O_2  and  C_3
REMARK    3  A    between atoms: C_7  and  C_8
REMARK    4  A    between atoms: N_10  and  C_11
REMARK    5  A    between atoms: C_11  and  C_12
REMARK    6  A    between atoms: C_15  and  C_16
REMARK    7  A    between atoms: C_16  and  N_17
REMARK    8  A    between atoms: C_18  and  C_20
REMARK                            x       y       z     vdW  Elec       q    Type
REMARK                         _______ _______ _______ _____ _____    ______ ____
ROOT
ATOM      1  C   UNL     1      45.950   7.537  12.377  0.00  0.00    +0.000 A 
ATOM      2  C   UNL     1      46.018   8.835  12.904  0.00  0.00    +0.000 A 
ATOM      3  C   UNL     1      46.983   9.173  13.861  0.00  0.00    +0.000 A 
ATOM      4  C   UNL     1      47.917   8.224  14.301  0.00  0.00    +0.000 A 
ATOM      5  C   UNL     1      47.847   6.927  13.775  0.00  0.00    +0.000 A 
ATOM      6  C   UNL     1      46.885   6.589  12.815  0.00  0.00    +0.000 A 
ENDROOT
BRANCH   1   7
ATOM      7  C   UNL     1      44.907   7.175  11.349  0.00  0.00    +0.000 C 
BRANCH   7  10
ATOM      8  C   UNL     1      44.388   4.973  10.390  0.00  0.00    +0.000 C 
ATOM      9  O   UNL     1      43.257   4.955  10.871  0.00  0.00    +0.000 OA
ATOM     10  N   UNL     1      45.285   6.001  10.591  0.00  0.00    +0.000 N 
ATOM     11  H   UNL     1      46.110   6.062  10.013  0.00  0.00    +0.000 HD
BRANCH   8  16
ATOM     12  C   UNL     1      46.144   3.178   7.558  0.00  0.00    +0.000 A 
ATOM     13  C   UNL     1      45.812   1.848   7.822  0.00  0.00    +0.000 A 
ATOM     14  C   UNL     1      44.980   1.531   8.900  0.00  0.00    +0.000 A 
ATOM     15  C   UNL     1      44.491   2.539   9.733  0.00  0.00    +0.000 A 
ATOM     16  C   UNL     1      44.837   3.871   9.488  0.00  0.00    +0.000 A 
ATOM     17  C   UNL     1      45.636   4.188   8.382  0.00  0.00    +0.000 A 
BRANCH  12  19
ATOM     18  C   UNL     1      47.029   2.815   5.375  0.00  0.00    +0.000 C 
ATOM     19  O   UNL     1      46.963   3.613   6.552  0.00  0.00    +0.000 OA
ENDBRANCH  12  19
ENDBRANCH   8  16
ENDBRANCH   7  10
ENDBRANCH   1   7
BRANCH   4  20
ATOM     20  C   UNL     1      48.974   8.569  15.324  0.00  0.00    +0.000 C 
BRANCH  20  21
ATOM     21  N   UNL     1      49.753   7.417  15.708  0.00  0.00    +0.000 N 
ATOM     22  C   UNL     1      50.204   7.253  16.995  0.00  0.00    +0.000 C 
ATOM     23  O   UNL     1      49.949   8.058  17.887  0.00  0.00    +0.000 OA
ATOM     24  H   UNL     1      50.217   6.910  14.961  0.00  0.00    +0.000 HD
BRANCH  22  25
ATOM     25  C   UNL     1      50.962   6.024  17.267  0.00  0.00    +0.000 A 
ATOM     26  C   UNL     1      52.314   6.093  17.575  0.00  0.00    +0.000 A 
ATOM     27  S   UNL     1      53.019   4.572  17.901  0.00  0.00    +0.000 S 
ATOM     28  C   UNL     1      51.553   3.766  17.591  0.00  0.00    +0.000 A 
ATOM     29  N   UNL     1      51.469   2.410  17.660  0.00  0.00    +0.000 NA
ATOM     30  C   UNL     1      50.305   1.931  17.367  0.00  0.00    +0.000 A 
ATOM     31  N   UNL     1      49.214   2.687  17.023  0.00  0.00    +0.000 N 
ATOM     32  C   UNL     1      49.240   4.060  16.987  0.00  0.00    +0.000 A 
ATOM     33  O   UNL     1      48.227   4.710  16.748  0.00  0.00    +0.000 OA
ATOM     34  C   UNL     1      50.535   4.647  17.274  0.00  0.00    +0.000 A 
ATOM     35  H   UNL     1      48.324   2.253  16.826  0.00  0.00    +0.000 HD
ENDBRANCH  22  25
ENDBRANCH  20  21
ENDBRANCH   4  20
TORSDOF 7
ENDMDL
MODEL 8
REMARK VINA RESULT:    -6.750      5.567     10.096
REMARK INTER + INTRA:         -10.555
REMARK INTER:                  -9.597
REMARK INTRA:                  -0.958
REMARK UNBOUND:                -1.043
REMARK  Name = 
REMARK  8 active torsions:
REMARK  status: ('A' for Active; 'I' for Inactive)
REMARK    1  A    between atoms: C_1  and  O_2
REMARK    2  A    between atoms: O_2  and  C_3
REMARK    3  A    between atoms: C_7  and  C_8
REMARK    4  A    between atoms: N_10  and  C_11
REMARK    5  A    between atoms: C_11  and  C_12
REMARK    6  A    between atoms: C_15  and  C_16
REMARK    7  A    between atoms: C_16  and  N_17
REMARK    8  A    between atoms: C_18  and  C_20
REMARK                            x       y       z     vdW  Elec       q    Type
REMARK                         _______ _______ _______ _____ _____    ______ ____
ROOT
ATOM      1  C   UNL     1      49.142   7.337  13.643  0.00  0.00    +0.000 A 
ATOM      2  C   UNL     1      49.001   7.480  12.254  0.00  0.00    +0.000 A 
ATOM      3  C   UNL     1      49.911   8.245  11.514  0.00  0.00    +0.000 A 
ATOM      4  C   UNL     1      50.996   8.871  12.142  0.00  0.00    +0.000 A 
ATOM      5  C   UNL     1      51.135   8.729  13.530  0.00  0.00    +0.000 A 
ATOM      6  C   UNL     1      50.228   7.962  14.270  0.00  0.00    +0.000 A 
ENDROOT
BRANCH   1   7
ATOM      7  C   UNL     1      48.158   6.516  14.437  0.00  0.00    +0.000 C 
BRANCH   7  10
ATOM      8  C   UNL     1      46.595   4.944  13.377  0.00  0.00    +0.000 C 
ATOM      9  O   UNL     1      47.277   3.964  13.670  0.00  0.00    +0.000 OA
ATOM     10  N   UNL     1      46.955   6.240  13.681  0.00  0.00    +0.000 N 
ATOM     11  H   UNL     1      46.270   6.978  13.604  0.00  0.00    +0.000 HD
BRANCH   8  16
ATOM     12  C   UNL     1      43.895   3.508  11.146  0.00  0.00    +0.000 A 
ATOM     13  C   UNL     1      42.796   4.294  11.497  0.00  0.00    +0.000 A 
ATOM     14  C   UNL     1      42.937   5.324  12.433  0.00  0.00    +0.000 A 
ATOM     15  C   UNL     1      44.172   5.562  13.038  0.00  0.00    +0.000 A 
ATOM     16  C   UNL     1      45.273   4.765  12.708  0.00  0.00    +0.000 A 
ATOM     17  C   UNL     1      45.136   3.762  11.738  0.00  0.00    +0.000 A 
BRANCH  12  19
ATOM     18  C   UNL     1      44.906   2.429   9.277  0.00  0.00    +0.000 C 
ATOM     19  O   UNL     1      43.881   2.463  10.264  0.00  0.00    +0.000 OA
ENDBRANCH  12  19
ENDBRANCH   8  16
ENDBRANCH   7  10
ENDBRANCH   1   7
BRANCH   4  20
ATOM     20  C   UNL     1      51.998   9.692  11.362  0.00  0.00    +0.000 C 
BRANCH  20  21
ATOM     21  N   UNL     1      52.221   9.160  10.040  0.00  0.00    +0.000 N 
ATOM     22  C   UNL     1      53.433   8.624   9.679  0.00  0.00    +0.000 C 
ATOM     23  O   UNL     1      54.375   8.544  10.464  0.00  0.00    +0.000 OA
ATOM     24  H   UNL     1      51.590   9.473   9.309  0.00  0.00    +0.000 HD
BRANCH  22  25
ATOM     25  C   UNL     1      53.526   8.089   8.314  0.00  0.00    +0.000 A 
ATOM     26  C   UNL     1      53.481   8.949   7.224  0.00  0.00    +0.000 A 
ATOM     27  S   UNL     1      53.645   8.156   5.721  0.00  0.00    +0.000 S 
ATOM     28  C   UNL     1      53.731   6.631   6.473  0.00  0.00    +0.000 A 
ATOM     29  N   UNL     1      53.843   5.492   5.739  0.00  0.00    +0.000 NA
ATOM     30  C   UNL     1      53.863   4.406   6.439  0.00  0.00    +0.000 A 
ATOM     31  N   UNL     1      53.792   4.357   7.808  0.00  0.00    +0.000 N 
ATOM     32  C   UNL     1      53.726   5.484   8.591  0.00  0.00    +0.000 A 
ATOM     33  O   UNL     1      53.739   5.411   9.816  0.00  0.00    +0.000 OA
ATOM     34  C   UNL     1      53.666   6.731   7.852  0.00  0.00    +0.000 A 
ATOM     35  H   UNL     1      53.835   3.476   8.299  0.00  0.00    +0.000 HD
ENDBRANCH  22  25
ENDBRANCH  20  21
ENDBRANCH   4  20
TORSDOF 7
ENDMDL
MODEL 9
REMARK VINA RESULT:    -6.724      5.753      9.470
REMARK INTER + INTRA:         -10.519
REMARK INTER:                  -9.328
REMARK INTRA:                  -1.191
REMARK UNBOUND:                -1.043
REMARK  Name = 
REMARK  8 active torsions:
REMARK  status: ('A' for Active; 'I' for Inactive)
REMARK    1  A    between atoms: C_1  and  O_2
REMARK    2  A    between atoms: O_2  and  C_3
REMARK    3  A    between atoms: C_7  and  C_8
REMARK    4  A    between atoms: N_10  and  C_11
REMARK    5  A    between atoms: C_11  and  C_12
REMARK    6  A    between atoms: C_15  and  C_16
REMARK    7  A    between atoms: C_16  and  N_17
REMARK    8  A    between atoms: C_18  and  C_20
REMARK                            x       y       z     vdW  Elec       q    Type
REMARK                         _______ _______ _______ _____ _____    ______ ____
ROOT
ATOM      1  C   UNL     1      48.069   7.810  12.586  0.00  0.00    +0.000 A 
ATOM      2  C   UNL     1      49.266   7.081  12.520  0.00  0.00    +0.000 A 
ATOM      3  C   UNL     1      50.421   7.645  11.965  0.00  0.00    +0.000 A 
ATOM      4  C   UNL     1      50.413   8.960  11.480  0.00  0.00    +0.000 A 
ATOM      5  C   UNL     1      49.216   9.687  11.545  0.00  0.00    +0.000 A 
ATOM      6  C   UNL     1      48.062   9.125  12.103  0.00  0.00    +0.000 A 
ENDROOT
BRANCH   1   7
ATOM      7  C   UNL     1      46.825   7.198  13.180  0.00  0.00    +0.000 C 
BRANCH   7  10
ATOM      8  C   UNL     1      45.444   6.275  11.368  0.00  0.00    +0.000 C 
ATOM      9  O   UNL     1      44.954   7.369  11.093  0.00  0.00    +0.000 OA
ATOM     10  N   UNL     1      46.347   6.082  12.392  0.00  0.00    +0.000 N 
ATOM     11  H   UNL     1      46.867   5.217  12.440  0.00  0.00    +0.000 HD
BRANCH   8  16
ATOM     12  C   UNL     1      45.368   3.884   8.435  0.00  0.00    +0.000 A 
ATOM     13  C   UNL     1      44.645   2.815   8.965  0.00  0.00    +0.000 A 
ATOM     14  C   UNL     1      44.142   2.883  10.269  0.00  0.00    +0.000 A 
ATOM     15  C   UNL     1      44.375   4.011  11.056  0.00  0.00    +0.000 A 
ATOM     16  C   UNL     1      45.118   5.078  10.539  0.00  0.00    +0.000 A 
ATOM     17  C   UNL     1      45.583   5.022   9.219  0.00  0.00    +0.000 A 
BRANCH  12  19
ATOM     18  C   UNL     1      46.823   2.881   6.836  0.00  0.00    +0.000 C 
ATOM     19  O   UNL     1      45.928   3.930   7.187  0.00  0.00    +0.000 OA
ENDBRANCH  12  19
ENDBRANCH   8  16
ENDBRANCH   7  10
ENDBRANCH   1   7
BRANCH   4  20
ATOM     20  C   UNL     1      51.652   9.594  10.888  0.00  0.00    +0.000 C 
BRANCH  20  21
ATOM     21  N   UNL     1      52.038   8.970   9.646  0.00  0.00    +0.000 N 
ATOM     22  C   UNL     1      53.264   9.211   9.075  0.00  0.00    +0.000 C 
ATOM     23  O   UNL     1      54.101   9.942   9.600  0.00  0.00    +0.000 OA
ATOM     24  H   UNL     1      51.289   8.616   9.060  0.00  0.00    +0.000 HD
BRANCH  22  25
ATOM     25  C   UNL     1      53.551   8.494   7.825  0.00  0.00    +0.000 A 
ATOM     26  C   UNL     1      53.784   9.202   6.654  0.00  0.00    +0.000 A 
ATOM     27  S   UNL     1      54.140   8.205   5.314  0.00  0.00    +0.000 S 
ATOM     28  C   UNL     1      53.945   6.793   6.242  0.00  0.00    +0.000 A 
ATOM     29  N   UNL     1      54.079   5.560   5.682  0.00  0.00    +0.000 NA
ATOM     30  C   UNL     1      53.871   4.579   6.496  0.00  0.00    +0.000 A 
ATOM     31  N   UNL     1      53.550   4.718   7.822  0.00  0.00    +0.000 N 
ATOM     32  C   UNL     1      53.451   5.941   8.440  0.00  0.00    +0.000 A 
ATOM     33  O   UNL     1      53.236   6.031   9.645  0.00  0.00    +0.000 OA
ATOM     34  C   UNL     1      53.643   7.079   7.561  0.00  0.00    +0.000 A 
ATOM     35  H   UNL     1      53.420   3.910   8.412  0.00  0.00    +0.000 HD
ENDBRANCH  22  25
ENDBRANCH  20  21
ENDBRANCH   4  20
TORSDOF 7
ENDMDL
