MODEL 1
REMARK VINA RESULT:    -8.476      0.000      0.000
REMARK INTER + INTRA:         -15.184
REMARK INTER:                 -13.430
REMARK INTRA:                  -1.754
REMARK UNBOUND:                -1.754
REMARK  Name = 
REMARK  13 active torsions:
REMARK  status: ('A' for Active; 'I' for Inactive)
REMARK    1  A    between atoms: C_1  and  C_2
REMARK    2  A    between atoms: C_2  and  C_3
REMARK    3  A    between atoms: C_2  and  C_4
REMARK    4  A    between atoms: C_6  and  O_7
REMARK    5  A    between atoms: O_7  and  C_8
REMARK    6  A    between atoms: C_8  and  C_9
REMARK    7  A    between atoms: C_13  and  C_14
REMARK    8  A    between atoms: C_19  and  C_20
REMARK    9  A    between atoms: C_20  and  C_21
REMARK   10  A    between atoms: C_20  and  C_22
REMARK   11  A    between atoms: C_22  and  O_23
REMARK   12  A    between atoms: O_23  and  C_24
REMARK   13  A    between atoms: C_28  and  C_29
REMARK                            x       y       z     vdW  Elec       q    Type
REMARK                         _______ _______ _______ _____ _____    ______ ____
ROOT
ATOM      1  C   UNL     1      46.702   6.105  13.073  0.00  0.00    +0.000 A 
ATOM      2  C   UNL     1      47.456   5.203  13.840  0.00  0.00    +0.000 A 
ATOM      3  C   UNL     1      46.991   3.900  14.055  0.00  0.00    +0.000 A 
ATOM      4  C   UNL     1      45.812   3.470  13.449  0.00  0.00    +0.000 A 
ATOM      5  C   UNL     1      45.027   4.349  12.702  0.00  0.00    +0.000 A 
ATOM      6  C   UNL     1      45.510   5.646  12.498  0.00  0.00    +0.000 A 
ENDROOT
BRANCH   1   8
ATOM      7  C   UNL     1      47.969   8.026  14.085  0.00  0.00    +0.000 C 
ATOM      8  C   UNL     1      47.133   7.555  12.896  0.00  0.00    +0.000 C 
ATOM      9  C   UNL     1      47.911   7.808  11.590  0.00  0.00    +0.000 C 
ENDBRANCH   1   8
BRANCH   5  10
ATOM     10  C   UNL     1      43.672   3.875  12.199  0.00  0.00    +0.000 C 
ATOM     11  C   UNL     1      42.875   5.067  11.641  0.00  0.00    +0.000 C 
BRANCH  10  12
ATOM     12  C   UNL     1      43.740   2.786  11.119  0.00  0.00    +0.000 C 
BRANCH  12  13
ATOM     13  O   UNL     1      43.567   3.384   9.829  0.00  0.00    +0.000 OA
BRANCH  13  14
ATOM     14  C   UNL     1      44.680   3.453   9.042  0.00  0.00    +0.000 A 
ATOM     15  C   UNL     1      45.307   4.640   8.643  0.00  0.00    +0.000 A 
ATOM     16  C   UNL     1      46.423   4.597   7.813  0.00  0.00    +0.000 A 
ATOM     17  C   UNL     1      46.930   3.372   7.390  0.00  0.00    +0.000 A 
ATOM     18  C   UNL     1      46.330   2.178   7.809  0.00  0.00    +0.000 A 
ATOM     19  C   UNL     1      45.190   2.222   8.621  0.00  0.00    +0.000 A 
BRANCH  18  20
ATOM     20  C   UNL     1      46.951   0.903   7.368  0.00  0.00    +0.000 C 
ATOM     21  N   UNL     1      47.729   0.935   6.244  0.00  0.00    +0.000 N 
ATOM     22  O   UNL     1      46.733  -0.152   7.947  0.00  0.00    +0.000 OA
ATOM     23  H   UNL     1      47.768   1.731   5.624  0.00  0.00    +0.000 HD
ATOM     24  H   UNL     1      48.024   0.038   5.881  0.00  0.00    +0.000 HD
ENDBRANCH  18  20
ENDBRANCH  13  14
ENDBRANCH  12  13
ENDBRANCH  10  12
ENDBRANCH   5  10
BRANCH   3  25
ATOM     25  O   UNL     1      47.715   3.111  14.914  0.00  0.00    +0.000 OA
BRANCH  25  26
ATOM     26  C   UNL     1      47.572   3.477  16.293  0.00  0.00    +0.000 C 
BRANCH  26  27
ATOM     27  C   UNL     1      48.936   3.666  16.900  0.00  0.00    +0.000 A 
ATOM     28  C   UNL     1      49.298   4.901  17.442  0.00  0.00    +0.000 A 
ATOM     29  C   UNL     1      50.549   5.061  18.036  0.00  0.00    +0.000 A 
ATOM     30  C   UNL     1      51.431   3.983  18.108  0.00  0.00    +0.000 A 
ATOM     31  C   UNL     1      51.074   2.740  17.575  0.00  0.00    +0.000 A 
ATOM     32  C   UNL     1      49.836   2.593  16.946  0.00  0.00    +0.000 A 
BRANCH  31  33
ATOM     33  C   UNL     1      52.023   1.606  17.711  0.00  0.00    +0.000 C 
ATOM     34  N   UNL     1      51.496   0.378  18.015  0.00  0.00    +0.000 N 
ATOM     35  O   UNL     1      53.236   1.761  17.606  0.00  0.00    +0.000 OA
ATOM     36  H   UNL     1      50.556   0.264  18.361  0.00  0.00    +0.000 HD
ATOM     37  H   UNL     1      52.168  -0.346  18.241  0.00  0.00    +0.000 HD
ENDBRANCH  31  33
ENDBRANCH  26  27
ENDBRANCH  25  26
ENDBRANCH   3  25
TORSDOF 10
ENDMDL
MODEL 2
REMARK VINA RESULT:    -8.126      2.179      2.819
REMARK INTER + INTRA:         -14.631
REMARK INTER:                 -12.881
REMARK INTRA:                  -1.750
REMARK UNBOUND:                -1.754
REMARK  Name = 
REMARK  13 active torsions:
REMARK  status: ('A' for Active; 'I' for Inactive)
REMARK    1  A    between atoms: C_1  and  C_2
REMARK    2  A    between atoms: C_2  and  C_3
REMARK    3  A    between atoms: C_2  and  C_4
REMARK    4  A    between atoms: C_6  and  O_7
REMARK    5  A    between atoms: O_7  and  C_8
REMARK    6  A    between atoms: C_8  and  C_9
REMARK    7  A    between atoms: C_13  and  C_14
REMARK    8  A    between atoms: C_19  and  C_20
REMARK    9  A    between atoms: C_20  and  C_21
REMARK   10  A    between atoms: C_20  and  C_22
REMARK   11  A    between atoms: C_22  and  O_23
REMARK   12  A    between atoms: O_23  and  C_24
REMARK   13  A    between atoms: C_28  and  C_29
REMARK                            x       y       z     vdW  Elec       q    Type
REMARK                         _______ _______ _______ _____ _____    ______ ____
ROOT
ATOM      1  C   UNL     1      46.348   6.789  13.105  0.00  0.00    +0.000 A 
ATOM      2  C   UNL     1      47.273   6.052  13.861  0.00  0.00    +0.000 A 
ATOM      3  C   UNL     1      47.012   4.716  14.187  0.00  0.00    +0.000 A 
ATOM      4  C   UNL     1      45.865   4.090  13.701  0.00  0.00    +0.000 A 
ATOM      5  C   UNL     1      44.914   4.801  12.969  0.00  0.00    +0.000 A 
ATOM      6  C   UNL     1      45.195   6.134  12.653  0.00  0.00    +0.000 A 
ENDROOT
BRANCH   1   8
ATOM      7  C   UNL     1      47.799   8.485  11.948  0.00  0.00    +0.000 C 
ATOM      8  C   UNL     1      46.558   8.269  12.811  0.00  0.00    +0.000 C 
ATOM      9  C   UNL     1      45.344   8.938  12.138  0.00  0.00    +0.000 C 
ENDBRANCH   1   8
BRANCH   5  10
ATOM     10  C   UNL     1      43.608   4.114  12.604  0.00  0.00    +0.000 C 
ATOM     11  C   UNL     1      42.676   5.108  11.889  0.00  0.00    +0.000 C 
BRANCH  10  12
ATOM     12  C   UNL     1      43.769   2.872  11.714  0.00  0.00    +0.000 C 
BRANCH  12  13
ATOM     13  O   UNL     1      43.428   3.208  10.364  0.00  0.00    +0.000 OA
BRANCH  13  14
ATOM     14  C   UNL     1      44.474   3.382   9.504  0.00  0.00    +0.000 A 
ATOM     15  C   UNL     1      44.971   4.624   9.089  0.00  0.00    +0.000 A 
ATOM     16  C   UNL     1      46.025   4.689   8.184  0.00  0.00    +0.000 A 
ATOM     17  C   UNL     1      46.601   3.518   7.700  0.00  0.00    +0.000 A 
ATOM     18  C   UNL     1      46.134   2.271   8.134  0.00  0.00    +0.000 A 
ATOM     19  C   UNL     1      45.053   2.206   9.022  0.00  0.00    +0.000 A 
BRANCH  18  20
ATOM     20  C   UNL     1      46.825   1.060   7.622  0.00  0.00    +0.000 C 
ATOM     21  N   UNL     1      47.853   1.245   6.740  0.00  0.00    +0.000 N 
ATOM     22  O   UNL     1      46.458  -0.067   7.928  0.00  0.00    +0.000 OA
ATOM     23  H   UNL     1      48.053   2.134   6.305  0.00  0.00    +0.000 HD
ATOM     24  H   UNL     1      48.214   0.410   6.297  0.00  0.00    +0.000 HD
ENDBRANCH  18  20
ENDBRANCH  13  14
ENDBRANCH  12  13
ENDBRANCH  10  12
ENDBRANCH   5  10
BRANCH   3  25
ATOM     25  O   UNL     1      47.898   4.093  15.030  0.00  0.00    +0.000 OA
BRANCH  25  26
ATOM     26  C   UNL     1      47.307   3.636  16.253  0.00  0.00    +0.000 C 
BRANCH  26  27
ATOM     27  C   UNL     1      48.072   4.205  17.417  0.00  0.00    +0.000 A 
ATOM     28  C   UNL     1      49.381   3.788  17.668  0.00  0.00    +0.000 A 
ATOM     29  C   UNL     1      50.099   4.343  18.726  0.00  0.00    +0.000 A 
ATOM     30  C   UNL     1      49.517   5.330  19.522  0.00  0.00    +0.000 A 
ATOM     31  C   UNL     1      48.210   5.760  19.273  0.00  0.00    +0.000 A 
ATOM     32  C   UNL     1      47.480   5.174  18.238  0.00  0.00    +0.000 A 
BRANCH  31  33
ATOM     33  C   UNL     1      47.643   6.844  20.115  0.00  0.00    +0.000 C 
ATOM     34  N   UNL     1      47.348   6.539  21.419  0.00  0.00    +0.000 N 
ATOM     35  O   UNL     1      47.398   7.956  19.659  0.00  0.00    +0.000 OA
ATOM     36  H   UNL     1      47.289   5.589  21.751  0.00  0.00    +0.000 HD
ATOM     37  H   UNL     1      46.835   7.246  21.931  0.00  0.00    +0.000 HD
ENDBRANCH  31  33
ENDBRANCH  26  27
ENDBRANCH  25  26
ENDBRANCH   3  25
TORSDOF 10
ENDMDL
MODEL 3
REMARK VINA RESULT:    -7.396      2.325      2.893
REMARK INTER + INTRA:         -13.473
REMARK INTER:                 -12.140
REMARK INTRA:                  -1.333
REMARK UNBOUND:                -1.754
REMARK  Name = 
REMARK  13 active torsions:
REMARK  status: ('A' for Active; 'I' for Inactive)
REMARK    1  A    between atoms: C_1  and  C_2
REMARK    2  A    between atoms: C_2  and  C_3
REMARK    3  A    between atoms: C_2  and  C_4
REMARK    4  A    between atoms: C_6  and  O_7
REMARK    5  A    between atoms: O_7  and  C_8
REMARK    6  A    between atoms: C_8  and  C_9
REMARK    7  A    between atoms: C_13  and  C_14
REMARK    8  A    between atoms: C_19  and  C_20
REMARK    9  A    between atoms: C_20  and  C_21
REMARK   10  A    between atoms: C_20  and  C_22
REMARK   11  A    between atoms: C_22  and  O_23
REMARK   12  A    between atoms: O_23  and  C_24
REMARK   13  A    between atoms: C_28  and  C_29
REMARK                            x       y       z     vdW  Elec       q    Type
REMARK                         _______ _______ _______ _____ _____    ______ ____
ROOT
ATOM      1  C   UNL     1      48.018   6.710  13.506  0.00  0.00    +0.000 A 
ATOM      2  C   UNL     1      47.896   5.886  14.635  0.00  0.00    +0.000 A 
ATOM      3  C   UNL     1      46.965   4.841  14.649  0.00  0.00    +0.000 A 
ATOM      4  C   UNL     1      46.205   4.568  13.512  0.00  0.00    +0.000 A 
ATOM      5  C   UNL     1      46.284   5.383  12.383  0.00  0.00    +0.000 A 
ATOM      6  C   UNL     1      47.221   6.421  12.390  0.00  0.00    +0.000 A 
ENDROOT
BRANCH   1   8
ATOM      7  C   UNL     1      49.039   8.524  12.095  0.00  0.00    +0.000 C 
ATOM      8  C   UNL     1      48.955   7.912  13.492  0.00  0.00    +0.000 C 
ATOM      9  C   UNL     1      48.566   9.003  14.507  0.00  0.00    +0.000 C 
ENDBRANCH   1   8
BRANCH   5  10
ATOM     10  C   UNL     1      45.317   5.140  11.235  0.00  0.00    +0.000 C 
ATOM     11  C   UNL     1      43.959   5.794  11.546  0.00  0.00    +0.000 C 
BRANCH  10  12
ATOM     12  C   UNL     1      45.804   5.655   9.873  0.00  0.00    +0.000 C 
BRANCH  12  13
ATOM     13  O   UNL     1      45.054   5.023   8.829  0.00  0.00    +0.000 OA
BRANCH  13  14
ATOM     14  C   UNL     1      45.361   3.718   8.572  0.00  0.00    +0.000 A 
ATOM     15  C   UNL     1      44.699   2.615   9.124  0.00  0.00    +0.000 A 
ATOM     16  C   UNL     1      45.114   1.323   8.817  0.00  0.00    +0.000 A 
ATOM     17  C   UNL     1      46.181   1.123   7.946  0.00  0.00    +0.000 A 
ATOM     18  C   UNL     1      46.830   2.218   7.363  0.00  0.00    +0.000 A 
ATOM     19  C   UNL     1      46.431   3.519   7.694  0.00  0.00    +0.000 A 
BRANCH  18  20
ATOM     20  C   UNL     1      47.925   1.937   6.400  0.00  0.00    +0.000 C 
ATOM     21  N   UNL     1      48.944   2.845   6.319  0.00  0.00    +0.000 N 
ATOM     22  O   UNL     1      47.897   0.961   5.662  0.00  0.00    +0.000 OA
ATOM     23  H   UNL     1      48.906   3.756   6.753  0.00  0.00    +0.000 HD
ATOM     24  H   UNL     1      49.602   2.709   5.563  0.00  0.00    +0.000 HD
ENDBRANCH  18  20
ENDBRANCH  13  14
ENDBRANCH  12  13
ENDBRANCH  10  12
ENDBRANCH   5  10
BRANCH   3  25
ATOM     25  O   UNL     1      46.812   4.154  15.827  0.00  0.00    +0.000 OA
BRANCH  25  26
ATOM     26  C   UNL     1      47.882   3.242  16.106  0.00  0.00    +0.000 C 
BRANCH  26  27
ATOM     27  C   UNL     1      48.682   3.758  17.272  0.00  0.00    +0.000 A 
ATOM     28  C   UNL     1      50.057   3.969  17.141  0.00  0.00    +0.000 A 
ATOM     29  C   UNL     1      50.788   4.480  18.212  0.00  0.00    +0.000 A 
ATOM     30  C   UNL     1      50.145   4.801  19.407  0.00  0.00    +0.000 A 
ATOM     31  C   UNL     1      48.767   4.600  19.544  0.00  0.00    +0.000 A 
ATOM     32  C   UNL     1      48.044   4.052  18.484  0.00  0.00    +0.000 A 
BRANCH  31  33
ATOM     33  C   UNL     1      48.112   4.996  20.818  0.00  0.00    +0.000 C 
ATOM     34  N   UNL     1      47.088   5.904  20.743  0.00  0.00    +0.000 N 
ATOM     35  O   UNL     1      48.497   4.571  21.902  0.00  0.00    +0.000 OA
ATOM     36  H   UNL     1      46.921   6.462  19.920  0.00  0.00    +0.000 HD
ATOM     37  H   UNL     1      46.753   6.264  21.627  0.00  0.00    +0.000 HD
ENDBRANCH  31  33
ENDBRANCH  26  27
ENDBRANCH  25  26
ENDBRANCH   3  25
TORSDOF 10
ENDMDL
MODEL 4
REMARK VINA RESULT:    -7.346      2.229      3.098
REMARK INTER + INTRA:         -13.395
REMARK INTER:                 -12.008
REMARK INTRA:                  -1.387
REMARK UNBOUND:                -1.754
REMARK  Name = 
REMARK  13 active torsions:
REMARK  status: ('A' for Active; 'I' for Inactive)
REMARK    1  A    between atoms: C_1  and  C_2
REMARK    2  A    between atoms: C_2  and  C_3
REMARK    3  A    between atoms: C_2  and  C_4
REMARK    4  A    between atoms: C_6  and  O_7
REMARK    5  A    between atoms: O_7  and  C_8
REMARK    6  A    between atoms: C_8  and  C_9
REMARK    7  A    between atoms: C_13  and  C_14
REMARK    8  A    between atoms: C_19  and  C_20
REMARK    9  A    between atoms: C_20  and  C_21
REMARK   10  A    between atoms: C_20  and  C_22
REMARK   11  A    between atoms: C_22  and  O_23
REMARK   12  A    between atoms: O_23  and  C_24
REMARK   13  A    between atoms: C_28  and  C_29
REMARK                            x       y       z     vdW  Elec       q    Type
REMARK                         _______ _______ _______ _____ _____    ______ ____
ROOT
ATOM      1  C   UNL     1      46.816   8.461  12.124  0.00  0.00    +0.000 A 
ATOM      2  C   UNL     1      47.972   8.145  12.854  0.00  0.00    +0.000 A 
ATOM      3  C   UNL     1      48.212   6.826  13.259  0.00  0.00    +0.000 A 
ATOM      4  C   UNL     1      47.338   5.809  12.878  0.00  0.00    +0.000 A 
ATOM      5  C   UNL     1      46.168   6.093  12.174  0.00  0.00    +0.000 A 
ATOM      6  C   UNL     1      45.948   7.416  11.778  0.00  0.00    +0.000 A 
ENDROOT
BRANCH   1   8
ATOM      7  C   UNL     1      45.023  10.223  12.077  0.00  0.00    +0.000 C 
ATOM      8  C   UNL     1      46.479   9.898  11.747  0.00  0.00    +0.000 C 
ATOM      9  C   UNL     1      47.400  10.938  12.412  0.00  0.00    +0.000 C 
ENDBRANCH   1   8
BRANCH   5  10
ATOM     10  C   UNL     1      45.172   4.971  11.926  0.00  0.00    +0.000 C 
ATOM     11  C   UNL     1      44.271   4.788  13.160  0.00  0.00    +0.000 C 
BRANCH  10  12
ATOM     12  C   UNL     1      44.276   5.177  10.695  0.00  0.00    +0.000 C 
BRANCH  12  13
ATOM     13  O   UNL     1      45.081   5.141   9.510  0.00  0.00    +0.000 OA
BRANCH  13  14
ATOM     14  C   UNL     1      45.342   3.903   8.998  0.00  0.00    +0.000 A 
ATOM     15  C   UNL     1      44.819   2.704   9.496  0.00  0.00    +0.000 A 
ATOM     16  C   UNL     1      45.175   1.490   8.916  0.00  0.00    +0.000 A 
ATOM     17  C   UNL     1      46.040   1.466   7.826  0.00  0.00    +0.000 A 
ATOM     18  C   UNL     1      46.543   2.663   7.299  0.00  0.00    +0.000 A 
ATOM     19  C   UNL     1      46.208   3.881   7.902  0.00  0.00    +0.000 A 
BRANCH  18  20
ATOM     20  C   UNL     1      47.418   2.574   6.103  0.00  0.00    +0.000 C 
ATOM     21  N   UNL     1      48.770   2.637   6.302  0.00  0.00    +0.000 N 
ATOM     22  O   UNL     1      46.955   2.505   4.972  0.00  0.00    +0.000 OA
ATOM     23  H   UNL     1      49.184   2.898   7.184  0.00  0.00    +0.000 HD
ATOM     24  H   UNL     1      49.339   2.717   5.470  0.00  0.00    +0.000 HD
ENDBRANCH  18  20
ENDBRANCH  13  14
ENDBRANCH  12  13
ENDBRANCH  10  12
ENDBRANCH   5  10
BRANCH   3  25
ATOM     25  O   UNL     1      49.295   6.609  14.073  0.00  0.00    +0.000 OA
BRANCH  25  26
ATOM     26  C   UNL     1      49.393   7.535  15.163  0.00  0.00    +0.000 C 
BRANCH  26  27
ATOM     27  C   UNL     1      48.904   6.872  16.423  0.00  0.00    +0.000 A 
ATOM     28  C   UNL     1      48.486   7.647  17.507  0.00  0.00    +0.000 A 
ATOM     29  C   UNL     1      48.000   7.030  18.658  0.00  0.00    +0.000 A 
ATOM     30  C   UNL     1      47.912   5.639  18.721  0.00  0.00    +0.000 A 
ATOM     31  C   UNL     1      48.321   4.855  17.637  0.00  0.00    +0.000 A 
ATOM     32  C   UNL     1      48.843   5.474  16.500  0.00  0.00    +0.000 A 
BRANCH  31  33
ATOM     33  C   UNL     1      48.169   3.380  17.726  0.00  0.00    +0.000 C 
ATOM     34  N   UNL     1      46.895   2.877  17.711  0.00  0.00    +0.000 N 
ATOM     35  O   UNL     1      49.137   2.637  17.858  0.00  0.00    +0.000 OA
ATOM     36  H   UNL     1      46.084   3.456  17.866  0.00  0.00    +0.000 HD
ATOM     37  H   UNL     1      46.809   1.889  17.913  0.00  0.00    +0.000 HD
ENDBRANCH  31  33
ENDBRANCH  26  27
ENDBRANCH  25  26
ENDBRANCH   3  25
TORSDOF 10
ENDMDL
MODEL 5
REMARK VINA RESULT:    -7.301      1.818      2.810
REMARK INTER + INTRA:         -13.323
REMARK INTER:                 -11.855
REMARK INTRA:                  -1.468
REMARK UNBOUND:                -1.754
REMARK  Name = 
REMARK  13 active torsions:
REMARK  status: ('A' for Active; 'I' for Inactive)
REMARK    1  A    between atoms: C_1  and  C_2
REMARK    2  A    between atoms: C_2  and  C_3
REMARK    3  A    between atoms: C_2  and  C_4
REMARK    4  A    between atoms: C_6  and  O_7
REMARK    5  A    between atoms: O_7  and  C_8
REMARK    6  A    between atoms: C_8  and  C_9
REMARK    7  A    between atoms: C_13  and  C_14
REMARK    8  A    between atoms: C_19  and  C_20
REMARK    9  A    between atoms: C_20  and  C_21
REMARK   10  A    between atoms: C_20  and  C_22
REMARK   11  A    between atoms: C_22  and  O_23
REMARK   12  A    between atoms: O_23  and  C_24
REMARK   13  A    between atoms: C_28  and  C_29
REMARK                            x       y       z     vdW  Elec       q    Type
REMARK                         _______ _______ _______ _____ _____    ______ ____
ROOT
ATOM      1  C   UNL     1      48.148   8.906  12.691  0.00  0.00    +0.000 A 
ATOM      2  C   UNL     1      48.972   8.412  13.714  0.00  0.00    +0.000 A 
ATOM      3  C   UNL     1      48.873   7.074  14.116  0.00  0.00    +0.000 A 
ATOM      4  C   UNL     1      48.006   6.208  13.452  0.00  0.00    +0.000 A 
ATOM      5  C   UNL     1      47.155   6.673  12.449  0.00  0.00    +0.000 A 
ATOM      6  C   UNL     1      47.271   8.012  12.062  0.00  0.00    +0.000 A 
ENDROOT
BRANCH   1   8
ATOM      7  C   UNL     1      48.766  11.236  13.403  0.00  0.00    +0.000 C 
ATOM      8  C   UNL     1      48.164  10.376  12.293  0.00  0.00    +0.000 C 
ATOM      9  C   UNL     1      48.912  10.645  10.974  0.00  0.00    +0.000 C 
ENDBRANCH   1   8
BRANCH   5  10
ATOM     10  C   UNL     1      46.117   5.724  11.871  0.00  0.00    +0.000 C 
ATOM     11  C   UNL     1      44.836   5.768  12.723  0.00  0.00    +0.000 C 
BRANCH  10  12
ATOM     12  C   UNL     1      45.739   6.007  10.410  0.00  0.00    +0.000 C 
BRANCH  12  13
ATOM     13  O   UNL     1      44.632   5.178  10.036  0.00  0.00    +0.000 OA
BRANCH  13  14
ATOM     14  C   UNL     1      44.945   3.976   9.469  0.00  0.00    +0.000 A 
ATOM     15  C   UNL     1      44.368   2.751   9.822  0.00  0.00    +0.000 A 
ATOM     16  C   UNL     1      44.782   1.577   9.199  0.00  0.00    +0.000 A 
ATOM     17  C   UNL     1      45.762   1.620   8.211  0.00  0.00    +0.000 A 
ATOM     18  C   UNL     1      46.322   2.846   7.828  0.00  0.00    +0.000 A 
ATOM     19  C   UNL     1      45.926   4.023   8.475  0.00  0.00    +0.000 A 
BRANCH  18  20
ATOM     20  C   UNL     1      47.323   2.832   6.731  0.00  0.00    +0.000 C 
ATOM     21  N   UNL     1      47.011   3.503   5.582  0.00  0.00    +0.000 N 
ATOM     22  O   UNL     1      48.366   2.197   6.821  0.00  0.00    +0.000 OA
ATOM     23  H   UNL     1      46.087   3.862   5.388  0.00  0.00    +0.000 HD
ATOM     24  H   UNL     1      47.638   3.364   4.801  0.00  0.00    +0.000 HD
ENDBRANCH  18  20
ENDBRANCH  13  14
ENDBRANCH  12  13
ENDBRANCH  10  12
ENDBRANCH   5  10
BRANCH   3  25
ATOM     25  O   UNL     1      49.620   6.691  15.202  0.00  0.00    +0.000 OA
BRANCH  25  26
ATOM     26  C   UNL     1      48.865   6.595  16.416  0.00  0.00    +0.000 C 
BRANCH  26  27
ATOM     27  C   UNL     1      48.745   5.149  16.814  0.00  0.00    +0.000 A 
ATOM     28  C   UNL     1      47.486   4.555  16.929  0.00  0.00    +0.000 A 
ATOM     29  C   UNL     1      47.380   3.206  17.262  0.00  0.00    +0.000 A 
ATOM     30  C   UNL     1      48.531   2.443  17.461  0.00  0.00    +0.000 A 
ATOM     31  C   UNL     1      49.796   3.028  17.340  0.00  0.00    +0.000 A 
ATOM     32  C   UNL     1      49.899   4.388  17.045  0.00  0.00    +0.000 A 
BRANCH  31  33
ATOM     33  C   UNL     1      50.997   2.171  17.516  0.00  0.00    +0.000 C 
ATOM     34  N   UNL     1      52.182   2.800  17.796  0.00  0.00    +0.000 N 
ATOM     35  O   UNL     1      50.951   0.954  17.369  0.00  0.00    +0.000 OA
ATOM     36  H   UNL     1      52.311   3.792  17.666  0.00  0.00    +0.000 HD
ATOM     37  H   UNL     1      53.008   2.215  17.772  0.00  0.00    +0.000 HD
ENDBRANCH  31  33
ENDBRANCH  26  27
ENDBRANCH  25  26
ENDBRANCH   3  25
TORSDOF 10
ENDMDL
MODEL 6
REMARK VINA RESULT:    -7.240      2.224      3.665
REMARK INTER + INTRA:         -13.226
REMARK INTER:                 -11.523
REMARK INTRA:                  -1.703
REMARK UNBOUND:                -1.754
REMARK  Name = 
REMARK  13 active torsions:
REMARK  status: ('A' for Active; 'I' for Inactive)
REMARK    1  A    between atoms: C_1  and  C_2
REMARK    2  A    between atoms: C_2  and  C_3
REMARK    3  A    between atoms: C_2  and  C_4
REMARK    4  A    between atoms: C_6  and  O_7
REMARK    5  A    between atoms: O_7  and  C_8
REMARK    6  A    between atoms: C_8  and  C_9
REMARK    7  A    between atoms: C_13  and  C_14
REMARK    8  A    between atoms: C_19  and  C_20
REMARK    9  A    between atoms: C_20  and  C_21
REMARK   10  A    between atoms: C_20  and  C_22
REMARK   11  A    between atoms: C_22  and  O_23
REMARK   12  A    between atoms: O_23  and  C_24
REMARK   13  A    between atoms: C_28  and  C_29
REMARK                            x       y       z     vdW  Elec       q    Type
REMARK                         _______ _______ _______ _____ _____    ______ ____
ROOT
ATOM      1  C   UNL     1      48.675   9.051  12.083  0.00  0.00    +0.000 A 
ATOM      2  C   UNL     1      49.689   8.811  13.025  0.00  0.00    +0.000 A 
ATOM      3  C   UNL     1      49.682   7.636  13.786  0.00  0.00    +0.000 A 
ATOM      4  C   UNL     1      48.707   6.665  13.561  0.00  0.00    +0.000 A 
ATOM      5  C   UNL     1      47.672   6.882  12.651  0.00  0.00    +0.000 A 
ATOM      6  C   UNL     1      47.699   8.062  11.901  0.00  0.00    +0.000 A 
ENDROOT
BRANCH   1   8
ATOM      7  C   UNL     1      47.222  11.000  11.443  0.00  0.00    +0.000 C 
ATOM      8  C   UNL     1      48.602  10.358  11.305  0.00  0.00    +0.000 C 
ATOM      9  C   UNL     1      49.683  11.376  11.715  0.00  0.00    +0.000 C 
ENDBRANCH   1   8
BRANCH   5  10
ATOM     10  C   UNL     1      46.548   5.863  12.563  0.00  0.00    +0.000 C 
ATOM     11  C   UNL     1      46.590   4.930  13.787  0.00  0.00    +0.000 C 
BRANCH  10  12
ATOM     12  C   UNL     1      45.142   6.473  12.465  0.00  0.00    +0.000 C 
BRANCH  12  13
ATOM     13  O   UNL     1      44.663   6.348  11.120  0.00  0.00    +0.000 OA
BRANCH  13  14
ATOM     14  C   UNL     1      44.619   5.081  10.612  0.00  0.00    +0.000 A 
ATOM     15  C   UNL     1      43.886   4.023  11.164  0.00  0.00    +0.000 A 
ATOM     16  C   UNL     1      43.935   2.760  10.582  0.00  0.00    +0.000 A 
ATOM     17  C   UNL     1      44.701   2.548   9.439  0.00  0.00    +0.000 A 
ATOM     18  C   UNL     1      45.411   3.608   8.861  0.00  0.00    +0.000 A 
ATOM     19  C   UNL     1      45.385   4.872   9.463  0.00  0.00    +0.000 A 
BRANCH  18  20
ATOM     20  C   UNL     1      46.165   3.330   7.612  0.00  0.00    +0.000 C 
ATOM     21  N   UNL     1      46.602   2.051   7.408  0.00  0.00    +0.000 N 
ATOM     22  O   UNL     1      46.441   4.220   6.817  0.00  0.00    +0.000 OA
ATOM     23  H   UNL     1      46.578   1.340   8.125  0.00  0.00    +0.000 HD
ATOM     24  H   UNL     1      47.231   1.915   6.628  0.00  0.00    +0.000 HD
ENDBRANCH  18  20
ENDBRANCH  13  14
ENDBRANCH  12  13
ENDBRANCH  10  12
ENDBRANCH   5  10
BRANCH   3  25
ATOM     25  O   UNL     1      50.630   7.524  14.772  0.00  0.00    +0.000 OA
BRANCH  25  26
ATOM     26  C   UNL     1      50.087   7.525  16.098  0.00  0.00    +0.000 C 
BRANCH  26  27
ATOM     27  C   UNL     1      50.237   6.153  16.697  0.00  0.00    +0.000 A 
ATOM     28  C   UNL     1      51.506   5.651  16.991  0.00  0.00    +0.000 A 
ATOM     29  C   UNL     1      51.639   4.394  17.579  0.00  0.00    +0.000 A 
ATOM     30  C   UNL     1      50.504   3.646  17.892  0.00  0.00    +0.000 A 
ATOM     31  C   UNL     1      49.228   4.145  17.608  0.00  0.00    +0.000 A 
ATOM     32  C   UNL     1      49.099   5.386  16.984  0.00  0.00    +0.000 A 
BRANCH  31  33
ATOM     33  C   UNL     1      48.044   3.337  17.998  0.00  0.00    +0.000 C 
ATOM     34  N   UNL     1      48.055   2.765  19.244  0.00  0.00    +0.000 N 
ATOM     35  O   UNL     1      47.111   3.143  17.226  0.00  0.00    +0.000 OA
ATOM     36  H   UNL     1      48.897   2.684  19.793  0.00  0.00    +0.000 HD
ATOM     37  H   UNL     1      47.308   2.109  19.433  0.00  0.00    +0.000 HD
ENDBRANCH  31  33
ENDBRANCH  26  27
ENDBRANCH  25  26
ENDBRANCH   3  25
TORSDOF 10
ENDMDL
MODEL 7
REMARK VINA RESULT:    -7.165      2.728      5.144
REMARK INTER + INTRA:         -13.107
REMARK INTER:                 -10.847
REMARK INTRA:                  -2.260
REMARK UNBOUND:                -1.754
REMARK  Name = 
REMARK  13 active torsions:
REMARK  status: ('A' for Active; 'I' for Inactive)
REMARK    1  A    between atoms: C_1  and  C_2
REMARK    2  A    between atoms: C_2  and  C_3
REMARK    3  A    between atoms: C_2  and  C_4
REMARK    4  A    between atoms: C_6  and  O_7
REMARK    5  A    between atoms: O_7  and  C_8
REMARK    6  A    between atoms: C_8  and  C_9
REMARK    7  A    between atoms: C_13  and  C_14
REMARK    8  A    between atoms: C_19  and  C_20
REMARK    9  A    between atoms: C_20  and  C_21
REMARK   10  A    between atoms: C_20  and  C_22
REMARK   11  A    between atoms: C_22  and  O_23
REMARK   12  A    between atoms: O_23  and  C_24
REMARK   13  A    between atoms: C_28  and  C_29
REMARK                            x       y       z     vdW  Elec       q    Type
REMARK                         _______ _______ _______ _____ _____    ______ ____
ROOT
ATOM      1  C   UNL     1      51.688   7.661  15.717  0.00  0.00    +0.000 A 
ATOM      2  C   UNL     1      50.904   7.548  16.876  0.00  0.00    +0.000 A 
ATOM      3  C   UNL     1      49.518   7.734  16.811  0.00  0.00    +0.000 A 
ATOM      4  C   UNL     1      48.901   7.960  15.582  0.00  0.00    +0.000 A 
ATOM      5  C   UNL     1      49.653   8.103  14.416  0.00  0.00    +0.000 A 
ATOM      6  C   UNL     1      51.036   7.912  14.503  0.00  0.00    +0.000 A 
ENDROOT
BRANCH   1   8
ATOM      7  C   UNL     1      53.642   6.226  16.380  0.00  0.00    +0.000 C 
ATOM      8  C   UNL     1      53.207   7.556  15.768  0.00  0.00    +0.000 C 
ATOM      9  C   UNL     1      53.879   7.733  14.394  0.00  0.00    +0.000 C 
ENDBRANCH   1   8
BRANCH   5  10
ATOM     10  C   UNL     1      48.945   8.509  13.133  0.00  0.00    +0.000 C 
ATOM     11  C   UNL     1      49.594   7.801  11.930  0.00  0.00    +0.000 C 
BRANCH  10  12
ATOM     12  C   UNL     1      47.438   8.214  13.116  0.00  0.00    +0.000 C 
BRANCH  12  13
ATOM     13  O   UNL     1      47.126   7.401  11.979  0.00  0.00    +0.000 OA
BRANCH  13  14
ATOM     14  C   UNL     1      46.607   6.166  12.246  0.00  0.00    +0.000 A 
ATOM     15  C   UNL     1      46.954   5.374  13.347  0.00  0.00    +0.000 A 
ATOM     16  C   UNL     1      46.386   4.114  13.509  0.00  0.00    +0.000 A 
ATOM     17  C   UNL     1      45.457   3.644  12.585  0.00  0.00    +0.000 A 
ATOM     18  C   UNL     1      45.079   4.442  11.498  0.00  0.00    +0.000 A 
ATOM     19  C   UNL     1      45.673   5.698  11.319  0.00  0.00    +0.000 A 
BRANCH  18  20
ATOM     20  C   UNL     1      44.044   3.907  10.577  0.00  0.00    +0.000 C 
ATOM     21  N   UNL     1      43.899   4.520   9.364  0.00  0.00    +0.000 N 
ATOM     22  O   UNL     1      43.305   2.989  10.907  0.00  0.00    +0.000 OA
ATOM     23  H   UNL     1      44.340   5.399   9.135  0.00  0.00    +0.000 HD
ATOM     24  H   UNL     1      43.100   4.233   8.814  0.00  0.00    +0.000 HD
ENDBRANCH  18  20
ENDBRANCH  13  14
ENDBRANCH  12  13
ENDBRANCH  10  12
ENDBRANCH   5  10
BRANCH   3  25
ATOM     25  O   UNL     1      48.830   7.732  17.999  0.00  0.00    +0.000 OA
BRANCH  25  26
ATOM     26  C   UNL     1      49.187   6.652  18.871  0.00  0.00    +0.000 C 
BRANCH  26  27
ATOM     27  C   UNL     1      48.739   5.352  18.259  0.00  0.00    +0.000 A 
ATOM     28  C   UNL     1      47.398   5.162  17.920  0.00  0.00    +0.000 A 
ATOM     29  C   UNL     1      46.993   3.970  17.321  0.00  0.00    +0.000 A 
ATOM     30  C   UNL     1      47.930   2.975  17.043  0.00  0.00    +0.000 A 
ATOM     31  C   UNL     1      49.277   3.160  17.372  0.00  0.00    +0.000 A 
ATOM     32  C   UNL     1      49.673   4.338  18.006  0.00  0.00    +0.000 A 
BRANCH  31  33
ATOM     33  C   UNL     1      50.250   2.095  17.018  0.00  0.00    +0.000 C 
ATOM     34  N   UNL     1      51.268   1.854  17.904  0.00  0.00    +0.000 N 
ATOM     35  O   UNL     1      50.184   1.485  15.955  0.00  0.00    +0.000 OA
ATOM     36  H   UNL     1      51.504   2.497  18.643  0.00  0.00    +0.000 HD
ATOM     37  H   UNL     1      51.994   1.227  17.579  0.00  0.00    +0.000 HD
ENDBRANCH  31  33
ENDBRANCH  26  27
ENDBRANCH  25  26
ENDBRANCH   3  25
TORSDOF 10
ENDMDL
MODEL 8
REMARK VINA RESULT:    -7.080      2.392      4.069
REMARK INTER + INTRA:         -12.973
REMARK INTER:                 -11.276
REMARK INTRA:                  -1.697
REMARK UNBOUND:                -1.754
REMARK  Name = 
REMARK  13 active torsions:
REMARK  status: ('A' for Active; 'I' for Inactive)
REMARK    1  A    between atoms: C_1  and  C_2
REMARK    2  A    between atoms: C_2  and  C_3
REMARK    3  A    between atoms: C_2  and  C_4
REMARK    4  A    between atoms: C_6  and  O_7
REMARK    5  A    between atoms: O_7  and  C_8
REMARK    6  A    between atoms: C_8  and  C_9
REMARK    7  A    between atoms: C_13  and  C_14
REMARK    8  A    between atoms: C_19  and  C_20
REMARK    9  A    between atoms: C_20  and  C_21
REMARK   10  A    between atoms: C_20  and  C_22
REMARK   11  A    between atoms: C_22  and  O_23
REMARK   12  A    between atoms: O_23  and  C_24
REMARK   13  A    between atoms: C_28  and  C_29
REMARK                            x       y       z     vdW  Elec       q    Type
REMARK                         _______ _______ _______ _____ _____    ______ ____
ROOT
ATOM      1  C   UNL     1      50.116   8.354  12.285  0.00  0.00    +0.000 A 
ATOM      2  C   UNL     1      50.427   7.647  13.457  0.00  0.00    +0.000 A 
ATOM      3  C   UNL     1      49.422   7.333  14.379  0.00  0.00    +0.000 A 
ATOM      4  C   UNL     1      48.095   7.658  14.102  0.00  0.00    +0.000 A 
ATOM      5  C   UNL     1      47.755   8.382  12.960  0.00  0.00    +0.000 A 
ATOM      6  C   UNL     1      48.775   8.685  12.051  0.00  0.00    +0.000 A 
ENDROOT
BRANCH   1   8
ATOM      7  C   UNL     1      52.347   9.486  12.037  0.00  0.00    +0.000 C 
ATOM      8  C   UNL     1      51.199   8.792  11.306  0.00  0.00    +0.000 C 
ATOM      9  C   UNL     1      51.756   7.638  10.453  0.00  0.00    +0.000 C 
ENDBRANCH   1   8
BRANCH   5  10
ATOM     10  C   UNL     1      46.319   8.850  12.789  0.00  0.00    +0.000 C 
ATOM     11  C   UNL     1      46.297  10.245  12.139  0.00  0.00    +0.000 C 
BRANCH  10  12
ATOM     12  C   UNL     1      45.439   7.910  11.952  0.00  0.00    +0.000 C 
BRANCH  12  13
ATOM     13  O   UNL     1      44.955   6.848  12.783  0.00  0.00    +0.000 OA
BRANCH  13  14
ATOM     14  C   UNL     1      44.893   5.612  12.206  0.00  0.00    +0.000 A 
ATOM     15  C   UNL     1      44.643   4.419  12.894  0.00  0.00    +0.000 A 
ATOM     16  C   UNL     1      44.631   3.206  12.210  0.00  0.00    +0.000 A 
ATOM     17  C   UNL     1      44.852   3.179  10.836  0.00  0.00    +0.000 A 
ATOM     18  C   UNL     1      45.071   4.370  10.134  0.00  0.00    +0.000 A 
ATOM     19  C   UNL     1      45.112   5.587  10.826  0.00  0.00    +0.000 A 
BRANCH  18  20
ATOM     20  C   UNL     1      45.247   4.279   8.662  0.00  0.00    +0.000 C 
ATOM     21  N   UNL     1      44.339   3.534   7.962  0.00  0.00    +0.000 N 
ATOM     22  O   UNL     1      46.198   4.799   8.095  0.00  0.00    +0.000 OA
ATOM     23  H   UNL     1      43.667   2.926   8.406  0.00  0.00    +0.000 HD
ATOM     24  H   UNL     1      44.555   3.369   6.988  0.00  0.00    +0.000 HD
ENDBRANCH  18  20
ENDBRANCH  13  14
ENDBRANCH  12  13
ENDBRANCH  10  12
ENDBRANCH   5  10
BRANCH   3  25
ATOM     25  O   UNL     1      49.815   6.750  15.558  0.00  0.00    +0.000 OA
BRANCH  25  26
ATOM     26  C   UNL     1      48.752   6.596  16.507  0.00  0.00    +0.000 C 
BRANCH  26  27
ATOM     27  C   UNL     1      48.646   5.148  16.902  0.00  0.00    +0.000 A 
ATOM     28  C   UNL     1      47.392   4.549  17.041  0.00  0.00    +0.000 A 
ATOM     29  C   UNL     1      47.298   3.198  17.372  0.00  0.00    +0.000 A 
ATOM     30  C   UNL     1      48.456   2.439  17.545  0.00  0.00    +0.000 A 
ATOM     31  C   UNL     1      49.716   3.029  17.400  0.00  0.00    +0.000 A 
ATOM     32  C   UNL     1      49.807   4.390  17.107  0.00  0.00    +0.000 A 
BRANCH  31  33
ATOM     33  C   UNL     1      50.924   2.177  17.548  0.00  0.00    +0.000 C 
ATOM     34  N   UNL     1      51.979   2.698  18.251  0.00  0.00    +0.000 N 
ATOM     35  O   UNL     1      51.003   1.071  17.024  0.00  0.00    +0.000 OA
ATOM     36  H   UNL     1      52.051   3.680  18.467  0.00  0.00    +0.000 HD
ATOM     37  H   UNL     1      52.837   2.161  18.220  0.00  0.00    +0.000 HD
ENDBRANCH  31  33
ENDBRANCH  26  27
ENDBRANCH  25  26
ENDBRANCH   3  25
TORSDOF 10
ENDMDL
MODEL 9
REMARK VINA RESULT:    -6.988      2.420      8.660
REMARK INTER + INTRA:         -12.827
REMARK INTER:                 -11.162
REMARK INTRA:                  -1.664
REMARK UNBOUND:                -1.754
REMARK  Name = 
REMARK  13 active torsions:
REMARK  status: ('A' for Active; 'I' for Inactive)
REMARK    1  A    between atoms: C_1  and  C_2
REMARK    2  A    between atoms: C_2  and  C_3
REMARK    3  A    between atoms: C_2  and  C_4
REMARK    4  A    between atoms: C_6  and  O_7
REMARK    5  A    between atoms: O_7  and  C_8
REMARK    6  A    between atoms: C_8  and  C_9
REMARK    7  A    between atoms: C_13  and  C_14
REMARK    8  A    between atoms: C_19  and  C_20
REMARK    9  A    between atoms: C_20  and  C_21
REMARK   10  A    between atoms: C_20  and  C_22
REMARK   11  A    between atoms: C_22  and  O_23
REMARK   12  A    between atoms: O_23  and  C_24
REMARK   13  A    between atoms: C_28  and  C_29
REMARK                            x       y       z     vdW  Elec       q    Type
REMARK                         _______ _______ _______ _____ _____    ______ ____
ROOT
ATOM      1  C   UNL     1      50.291   8.102  13.074  0.00  0.00    +0.000 A 
ATOM      2  C   UNL     1      49.070   7.455  12.827  0.00  0.00    +0.000 A 
ATOM      3  C   UNL     1      48.349   6.883  13.881  0.00  0.00    +0.000 A 
ATOM      4  C   UNL     1      48.803   7.018  15.192  0.00  0.00    +0.000 A 
ATOM      5  C   UNL     1      50.024   7.633  15.470  0.00  0.00    +0.000 A 
ATOM      6  C   UNL     1      50.729   8.198  14.402  0.00  0.00    +0.000 A 
ENDROOT
BRANCH   1   8
ATOM      7  C   UNL     1      51.280   7.633  10.811  0.00  0.00    +0.000 C 
ATOM      8  C   UNL     1      51.146   8.653  11.940  0.00  0.00    +0.000 C 
ATOM      9  C   UNL     1      50.621   9.984  11.369  0.00  0.00    +0.000 C 
ENDBRANCH   1   8
BRANCH   5  10
ATOM     10  C   UNL     1      50.549   7.609  16.897  0.00  0.00    +0.000 C 
ATOM     11  C   UNL     1      51.560   8.751  17.102  0.00  0.00    +0.000 C 
BRANCH  10  12
ATOM     12  C   UNL     1      49.462   7.721  17.976  0.00  0.00    +0.000 C 
BRANCH  12  13
ATOM     13  O   UNL     1      49.505   6.561  18.816  0.00  0.00    +0.000 OA
BRANCH  13  14
ATOM     14  C   UNL     1      48.922   5.433  18.314  0.00  0.00    +0.000 A 
ATOM     15  C   UNL     1      47.544   5.255  18.138  0.00  0.00    +0.000 A 
ATOM     16  C   UNL     1      47.052   4.050  17.645  0.00  0.00    +0.000 A 
ATOM     17  C   UNL     1      47.930   3.023  17.309  0.00  0.00    +0.000 A 
ATOM     18  C   UNL     1      49.312   3.204  17.451  0.00  0.00    +0.000 A 
ATOM     19  C   UNL     1      49.805   4.405  17.974  0.00  0.00    +0.000 A 
BRANCH  18  20
ATOM     20  C   UNL     1      50.199   2.091  17.025  0.00  0.00    +0.000 C 
ATOM     21  N   UNL     1      51.213   1.732  17.869  0.00  0.00    +0.000 N 
ATOM     22  O   UNL     1      50.071   1.549  15.935  0.00  0.00    +0.000 OA
ATOM     23  H   UNL     1      51.480   2.281  18.673  0.00  0.00    +0.000 HD
ATOM     24  H   UNL     1      51.886   1.074  17.501  0.00  0.00    +0.000 HD
ENDBRANCH  18  20
ENDBRANCH  13  14
ENDBRANCH  12  13
ENDBRANCH  10  12
ENDBRANCH   5  10
BRANCH   3  25
ATOM     25  O   UNL     1      47.229   6.160  13.553  0.00  0.00    +0.000 OA
BRANCH  25  26
ATOM     26  C   UNL     1      46.511   6.686  12.430  0.00  0.00    +0.000 C 
BRANCH  26  27
ATOM     27  C   UNL     1      45.384   5.753  12.080  0.00  0.00    +0.000 A 
ATOM     28  C   UNL     1      44.227   5.726  12.863  0.00  0.00    +0.000 A 
ATOM     29  C   UNL     1      43.170   4.886  12.515  0.00  0.00    +0.000 A 
ATOM     30  C   UNL     1      43.259   4.088  11.374  0.00  0.00    +0.000 A 
ATOM     31  C   UNL     1      44.410   4.115  10.580  0.00  0.00    +0.000 A 
ATOM     32  C   UNL     1      45.482   4.927  10.952  0.00  0.00    +0.000 A 
BRANCH  31  33
ATOM     33  C   UNL     1      44.447   3.284   9.349  0.00  0.00    +0.000 C 
ATOM     34  N   UNL     1      44.566   1.928   9.509  0.00  0.00    +0.000 N 
ATOM     35  O   UNL     1      44.423   3.785   8.230  0.00  0.00    +0.000 OA
ATOM     36  H   UNL     1      44.848   1.510  10.383  0.00  0.00    +0.000 HD
ATOM     37  H   UNL     1      44.731   1.398   8.663  0.00  0.00    +0.000 HD
ENDBRANCH  31  33
ENDBRANCH  26  27
ENDBRANCH  25  26
ENDBRANCH   3  25
TORSDOF 10
ENDMDL
