MODEL 1
REMARK VINA RESULT:    -7.481      0.000      0.000
REMARK INTER + INTRA:         -10.118
REMARK INTER:                  -9.230
REMARK INTRA:                  -0.889
REMARK UNBOUND:                -0.889
REMARK  Name = 
REMARK  5 active torsions:
REMARK  status: ('A' for Active; 'I' for Inactive)
REMARK    1  A    between atoms: C_1  and  C_2
REMARK    2  A    between atoms: C_7  and  N_8
REMARK    3  A    between atoms: N_8  and  C_9
REMARK    4  A    between atoms: C_9  and  C_10
REMARK    5  A    between atoms: C_14  and  C_15
REMARK                            x       y       z     vdW  Elec       q    Type
REMARK                         _______ _______ _______ _____ _____    ______ ____
ROOT
ATOM      1  C   UNL     1      46.336   7.097  12.586  0.00  0.00    +0.000 C 
ATOM      2  C   UNL     1      46.798   8.368  11.849  0.00  0.00    +0.000 C 
ATOM      3  C   UNL     1      45.850   8.477  12.983  0.00  0.00    +0.000 C 
ENDROOT
BRANCH   1   4
ATOM      4  C   UNL     1      45.339   6.216  11.819  0.00  0.00    +0.000 A 
ATOM      5  C   UNL     1      43.955   6.396  11.921  0.00  0.00    +0.000 A 
ATOM      6  C   UNL     1      43.074   5.656  11.130  0.00  0.00    +0.000 A 
ATOM      7  C   UNL     1      43.563   4.727  10.207  0.00  0.00    +0.000 A 
ATOM      8  C   UNL     1      44.941   4.510  10.059  0.00  0.00    +0.000 A 
ATOM      9  C   UNL     1      45.793   5.230  10.916  0.00  0.00    +0.000 A 
BRANCH   8  10
ATOM     10  C   UNL     1      45.501   3.658   8.981  0.00  0.00    +0.000 A 
ATOM     11  C   UNL     1      46.180   4.229   7.889  0.00  0.00    +0.000 A 
ATOM     12  C   UNL     1      46.817   3.438   6.925  0.00  0.00    +0.000 A 
ATOM     13  C   UNL     1      46.796   2.052   7.035  0.00  0.00    +0.000 A 
ATOM     14  C   UNL     1      46.119   1.457   8.096  0.00  0.00    +0.000 A 
ATOM     15  C   UNL     1      45.470   2.251   9.050  0.00  0.00    +0.000 A 
ENDBRANCH   8  10
ENDBRANCH   1   4
BRANCH   1  16
ATOM     16  N   UNL     1      47.447   6.341  13.151  0.00  0.00    +0.000 N 
ATOM     17  H   UNL     1      48.256   6.208  12.546  0.00  0.00    +0.000 HD
BRANCH  16  24
ATOM     18  C   UNL     1      46.520   3.333  13.431  0.00  0.00    +0.000 C 
ATOM     19  C   UNL     1      47.222   4.177  14.436  0.00  0.00    +0.000 A 
ATOM     20  N   UNL     1      47.414   3.530  15.631  0.00  0.00    +0.000 NA
ATOM     21  C   UNL     1      48.043   4.218  16.601  0.00  0.00    +0.000 A 
ATOM     22  C   UNL     1      48.488   5.500  16.395  0.00  0.00    +0.000 A 
ATOM     23  N   UNL     1      48.292   6.152  15.231  0.00  0.00    +0.000 NA
ATOM     24  C   UNL     1      47.636   5.497  14.231  0.00  0.00    +0.000 A 
ENDBRANCH  16  24
ENDBRANCH   1  16
TORSDOF 4
ENDMDL
MODEL 2
REMARK VINA RESULT:    -7.323      2.802      5.051
REMARK INTER + INTRA:          -9.924
REMARK INTER:                  -8.932
REMARK INTRA:                  -0.993
REMARK UNBOUND:                -0.889
REMARK  Name = 
REMARK  5 active torsions:
REMARK  status: ('A' for Active; 'I' for Inactive)
REMARK    1  A    between atoms: C_1  and  C_2
REMARK    2  A    between atoms: C_7  and  N_8
REMARK    3  A    between atoms: N_8  and  C_9
REMARK    4  A    between atoms: C_9  and  C_10
REMARK    5  A    between atoms: C_14  and  C_15
REMARK                            x       y       z     vdW  Elec       q    Type
REMARK                         _______ _______ _______ _____ _____    ______ ____
ROOT
ATOM      1  C   UNL     1      45.556   7.525  11.999  0.00  0.00    +0.000 C 
ATOM      2  C   UNL     1      46.475   7.439  13.232  0.00  0.00    +0.000 C 
ATOM      3  C   UNL     1      47.067   7.563  11.878  0.00  0.00    +0.000 C 
ENDROOT
BRANCH   1   4
ATOM      4  C   UNL     1      44.872   6.210  11.595  0.00  0.00    +0.000 A 
ATOM      5  C   UNL     1      43.603   5.856  12.067  0.00  0.00    +0.000 A 
ATOM      6  C   UNL     1      42.956   4.710  11.600  0.00  0.00    +0.000 A 
ATOM      7  C   UNL     1      43.562   3.900  10.635  0.00  0.00    +0.000 A 
ATOM      8  C   UNL     1      44.831   4.211  10.123  0.00  0.00    +0.000 A 
ATOM      9  C   UNL     1      45.475   5.338  10.663  0.00  0.00    +0.000 A 
BRANCH   8  10
ATOM     10  C   UNL     1      45.432   3.470   8.986  0.00  0.00    +0.000 A 
ATOM     11  C   UNL     1      45.995   4.158   7.894  0.00  0.00    +0.000 A 
ATOM     12  C   UNL     1      46.671   3.483   6.871  0.00  0.00    +0.000 A 
ATOM     13  C   UNL     1      46.808   2.100   6.919  0.00  0.00    +0.000 A 
ATOM     14  C   UNL     1      46.249   1.391   7.978  0.00  0.00    +0.000 A 
ATOM     15  C   UNL     1      45.559   2.068   8.992  0.00  0.00    +0.000 A 
ENDBRANCH   8  10
ENDBRANCH   1   4
BRANCH   1  16
ATOM     16  N   UNL     1      44.633   8.650  12.064  0.00  0.00    +0.000 N 
ATOM     17  H   UNL     1      43.875   8.573  12.740  0.00  0.00    +0.000 HD
BRANCH  16  24
ATOM     18  C   UNL     1      46.344  11.272  11.628  0.00  0.00    +0.000 C 
ATOM     19  C   UNL     1      45.010  10.937  11.058  0.00  0.00    +0.000 A 
ATOM     20  N   UNL     1      44.486  11.955  10.301  0.00  0.00    +0.000 NA
ATOM     21  C   UNL     1      43.281  11.741   9.743  0.00  0.00    +0.000 A 
ATOM     22  C   UNL     1      42.617  10.551   9.909  0.00  0.00    +0.000 A 
ATOM     23  N   UNL     1      43.114   9.549  10.663  0.00  0.00    +0.000 NA
ATOM     24  C   UNL     1      44.323   9.738  11.266  0.00  0.00    +0.000 A 
ENDBRANCH  16  24
ENDBRANCH   1  16
TORSDOF 4
ENDMDL
MODEL 3
REMARK VINA RESULT:    -7.221      2.731      6.318
REMARK INTER + INTRA:          -9.799
REMARK INTER:                  -9.281
REMARK INTRA:                  -0.518
REMARK UNBOUND:                -0.889
REMARK  Name = 
REMARK  5 active torsions:
REMARK  status: ('A' for Active; 'I' for Inactive)
REMARK    1  A    between atoms: C_1  and  C_2
REMARK    2  A    between atoms: C_7  and  N_8
REMARK    3  A    between atoms: N_8  and  C_9
REMARK    4  A    between atoms: C_9  and  C_10
REMARK    5  A    between atoms: C_14  and  C_15
REMARK                            x       y       z     vdW  Elec       q    Type
REMARK                         _______ _______ _______ _____ _____    ______ ____
ROOT
ATOM      1  C   UNL     1      43.970   5.346  10.916  0.00  0.00    +0.000 C 
ATOM      2  C   UNL     1      42.854   4.470  11.515  0.00  0.00    +0.000 C 
ATOM      3  C   UNL     1      42.699   5.943  11.485  0.00  0.00    +0.000 C 
ENDROOT
BRANCH   1   4
ATOM      4  C   UNL     1      45.235   5.482  11.777  0.00  0.00    +0.000 A 
ATOM      5  C   UNL     1      45.630   4.490  12.682  0.00  0.00    +0.000 A 
ATOM      6  C   UNL     1      46.840   4.587  13.372  0.00  0.00    +0.000 A 
ATOM      7  C   UNL     1      47.690   5.676  13.159  0.00  0.00    +0.000 A 
ATOM      8  C   UNL     1      47.346   6.697  12.259  0.00  0.00    +0.000 A 
ATOM      9  C   UNL     1      46.093   6.594  11.629  0.00  0.00    +0.000 A 
BRANCH   8  10
ATOM     10  C   UNL     1      48.291   7.779  11.885  0.00  0.00    +0.000 A 
ATOM     11  C   UNL     1      47.870   9.121  11.842  0.00  0.00    +0.000 A 
ATOM     12  C   UNL     1      48.772  10.166  11.608  0.00  0.00    +0.000 A 
ATOM     13  C   UNL     1      50.123   9.893  11.420  0.00  0.00    +0.000 A 
ATOM     14  C   UNL     1      50.567   8.574  11.442  0.00  0.00    +0.000 A 
ATOM     15  C   UNL     1      49.659   7.530  11.660  0.00  0.00    +0.000 A 
ENDBRANCH   8  10
ENDBRANCH   1   4
BRANCH   1  16
ATOM     16  N   UNL     1      44.261   5.012   9.527  0.00  0.00    +0.000 N 
ATOM     17  H   UNL     1      43.634   5.405   8.828  0.00  0.00    +0.000 HD
BRANCH  16  24
ATOM     18  C   UNL     1      44.189   1.872   9.882  0.00  0.00    +0.000 C 
ATOM     19  C   UNL     1      45.075   2.679   8.998  0.00  0.00    +0.000 A 
ATOM     20  N   UNL     1      45.988   1.911   8.320  0.00  0.00    +0.000 NA
ATOM     21  C   UNL     1      46.832   2.557   7.495  0.00  0.00    +0.000 A 
ATOM     22  C   UNL     1      46.767   3.918   7.327  0.00  0.00    +0.000 A 
ATOM     23  N   UNL     1      45.884   4.684   7.999  0.00  0.00    +0.000 NA
ATOM     24  C   UNL     1      45.028   4.069   8.864  0.00  0.00    +0.000 A 
ENDBRANCH  16  24
ENDBRANCH   1  16
TORSDOF 4
ENDMDL
MODEL 4
REMARK VINA RESULT:    -7.060      1.440      2.814
REMARK INTER + INTRA:          -9.600
REMARK INTER:                  -9.454
REMARK INTRA:                  -0.146
REMARK UNBOUND:                -0.889
REMARK  Name = 
REMARK  5 active torsions:
REMARK  status: ('A' for Active; 'I' for Inactive)
REMARK    1  A    between atoms: C_1  and  C_2
REMARK    2  A    between atoms: C_7  and  N_8
REMARK    3  A    between atoms: N_8  and  C_9
REMARK    4  A    between atoms: C_9  and  C_10
REMARK    5  A    between atoms: C_14  and  C_15
REMARK                            x       y       z     vdW  Elec       q    Type
REMARK                         _______ _______ _______ _____ _____    ______ ____
ROOT
ATOM      1  C   UNL     1      44.936   3.524  12.432  0.00  0.00    +0.000 C 
ATOM      2  C   UNL     1      43.788   4.209  13.197  0.00  0.00    +0.000 C 
ATOM      3  C   UNL     1      43.603   2.840  12.661  0.00  0.00    +0.000 C 
ENDROOT
BRANCH   1   4
ATOM      4  C   UNL     1      45.194   4.060  11.015  0.00  0.00    +0.000 A 
ATOM      5  C   UNL     1      45.289   5.429  10.743  0.00  0.00    +0.000 A 
ATOM      6  C   UNL     1      45.633   5.887   9.469  0.00  0.00    +0.000 A 
ATOM      7  C   UNL     1      45.904   4.979   8.442  0.00  0.00    +0.000 A 
ATOM      8  C   UNL     1      45.829   3.595   8.660  0.00  0.00    +0.000 A 
ATOM      9  C   UNL     1      45.420   3.175   9.939  0.00  0.00    +0.000 A 
BRANCH   8  10
ATOM     10  C   UNL     1      46.267   2.605   7.645  0.00  0.00    +0.000 A 
ATOM     11  C   UNL     1      46.572   3.006   6.331  0.00  0.00    +0.000 A 
ATOM     12  C   UNL     1      47.099   2.110   5.394  0.00  0.00    +0.000 A 
ATOM     13  C   UNL     1      47.342   0.788   5.752  0.00  0.00    +0.000 A 
ATOM     14  C   UNL     1      47.037   0.358   7.040  0.00  0.00    +0.000 A 
ATOM     15  C   UNL     1      46.495   1.254   7.970  0.00  0.00    +0.000 A 
ENDBRANCH   8  10
ENDBRANCH   1   4
BRANCH   1  16
ATOM     16  N   UNL     1      46.152   3.411  13.228  0.00  0.00    +0.000 N 
ATOM     17  H   UNL     1      46.537   2.474  13.330  0.00  0.00    +0.000 HD
BRANCH  16  24
ATOM     18  C   UNL     1      47.553   6.192  12.687  0.00  0.00    +0.000 C 
ATOM     19  C   UNL     1      47.502   5.418  13.958  0.00  0.00    +0.000 A 
ATOM     20  N   UNL     1      48.216   6.011  14.969  0.00  0.00    +0.000 NA
ATOM     21  C   UNL     1      48.225   5.382  16.157  0.00  0.00    +0.000 A 
ATOM     22  C   UNL     1      47.536   4.210  16.352  0.00  0.00    +0.000 A 
ATOM     23  N   UNL     1      46.844   3.610  15.362  0.00  0.00    +0.000 NA
ATOM     24  C   UNL     1      46.831   4.205  14.136  0.00  0.00    +0.000 A 
ENDBRANCH  16  24
ENDBRANCH   1  16
TORSDOF 4
ENDMDL
MODEL 5
REMARK VINA RESULT:    -6.622      2.533      6.611
REMARK INTER + INTRA:          -9.059
REMARK INTER:                  -8.615
REMARK INTRA:                  -0.444
REMARK UNBOUND:                -0.889
REMARK  Name = 
REMARK  5 active torsions:
REMARK  status: ('A' for Active; 'I' for Inactive)
REMARK    1  A    between atoms: C_1  and  C_2
REMARK    2  A    between atoms: C_7  and  N_8
REMARK    3  A    between atoms: N_8  and  C_9
REMARK    4  A    between atoms: C_9  and  C_10
REMARK    5  A    between atoms: C_14  and  C_15
REMARK                            x       y       z     vdW  Elec       q    Type
REMARK                         _______ _______ _______ _____ _____    ______ ____
ROOT
ATOM      1  C   UNL     1      44.132   5.275  11.120  0.00  0.00    +0.000 C 
ATOM      2  C   UNL     1      43.382   4.249  11.989  0.00  0.00    +0.000 C 
ATOM      3  C   UNL     1      42.906   5.651  11.928  0.00  0.00    +0.000 C 
ENDROOT
BRANCH   1   4
ATOM      4  C   UNL     1      45.486   5.744  11.674  0.00  0.00    +0.000 A 
ATOM      5  C   UNL     1      46.196   6.806  11.103  0.00  0.00    +0.000 A 
ATOM      6  C   UNL     1      47.369   7.285  11.690  0.00  0.00    +0.000 A 
ATOM      7  C   UNL     1      47.850   6.717  12.874  0.00  0.00    +0.000 A 
ATOM      8  C   UNL     1      47.174   5.653  13.492  0.00  0.00    +0.000 A 
ATOM      9  C   UNL     1      46.031   5.160  12.838  0.00  0.00    +0.000 A 
BRANCH   8  10
ATOM     10  C   UNL     1      47.561   5.136  14.828  0.00  0.00    +0.000 A 
ATOM     11  C   UNL     1      48.357   5.905  15.697  0.00  0.00    +0.000 A 
ATOM     12  C   UNL     1      48.632   5.487  17.004  0.00  0.00    +0.000 A 
ATOM     13  C   UNL     1      48.111   4.288  17.478  0.00  0.00    +0.000 A 
ATOM     14  C   UNL     1      47.333   3.497  16.637  0.00  0.00    +0.000 A 
ATOM     15  C   UNL     1      47.072   3.912  15.325  0.00  0.00    +0.000 A 
ENDBRANCH   8  10
ENDBRANCH   1   4
BRANCH   1  16
ATOM     16  N   UNL     1      44.196   4.882   9.718  0.00  0.00    +0.000 N 
ATOM     17  H   UNL     1      43.368   5.074   9.157  0.00  0.00    +0.000 HD
BRANCH  16  24
ATOM     18  C   UNL     1      44.230   1.721   9.668  0.00  0.00    +0.000 C 
ATOM     19  C   UNL     1      45.091   2.663   8.902  0.00  0.00    +0.000 A 
ATOM     20  N   UNL     1      46.031   2.020   8.137  0.00  0.00    +0.000 NA
ATOM     21  C   UNL     1      46.855   2.793   7.407  0.00  0.00    +0.000 A 
ATOM     22  C   UNL     1      46.745   4.162   7.414  0.00  0.00    +0.000 A 
ATOM     23  N   UNL     1      45.834   4.806   8.173  0.00  0.00    +0.000 NA
ATOM     24  C   UNL     1      44.997   4.058   8.945  0.00  0.00    +0.000 A 
ENDBRANCH  16  24
ENDBRANCH   1  16
TORSDOF 4
ENDMDL
MODEL 6
REMARK VINA RESULT:    -6.574      1.453      2.593
REMARK INTER + INTRA:          -9.000
REMARK INTER:                  -8.043
REMARK INTRA:                  -0.956
REMARK UNBOUND:                -0.889
REMARK  Name = 
REMARK  5 active torsions:
REMARK  status: ('A' for Active; 'I' for Inactive)
REMARK    1  A    between atoms: C_1  and  C_2
REMARK    2  A    between atoms: C_7  and  N_8
REMARK    3  A    between atoms: N_8  and  C_9
REMARK    4  A    between atoms: C_9  and  C_10
REMARK    5  A    between atoms: C_14  and  C_15
REMARK                            x       y       z     vdW  Elec       q    Type
REMARK                         _______ _______ _______ _____ _____    ______ ____
ROOT
ATOM      1  C   UNL     1      48.304   7.705  13.863  0.00  0.00    +0.000 C 
ATOM      2  C   UNL     1      49.493   8.380  13.155  0.00  0.00    +0.000 C 
ATOM      3  C   UNL     1      48.804   9.078  14.266  0.00  0.00    +0.000 C 
ENDROOT
BRANCH   1   4
ATOM      4  C   UNL     1      46.996   7.663  13.059  0.00  0.00    +0.000 A 
ATOM      5  C   UNL     1      46.168   8.784  12.926  0.00  0.00    +0.000 A 
ATOM      6  C   UNL     1      45.042   8.752  12.100  0.00  0.00    +0.000 A 
ATOM      7  C   UNL     1      44.729   7.597  11.377  0.00  0.00    +0.000 A 
ATOM      8  C   UNL     1      45.527   6.447  11.469  0.00  0.00    +0.000 A 
ATOM      9  C   UNL     1      46.616   6.499  12.357  0.00  0.00    +0.000 A 
BRANCH   8  10
ATOM     10  C   UNL     1      45.321   5.264  10.596  0.00  0.00    +0.000 A 
ATOM     11  C   UNL     1      44.585   4.153  11.049  0.00  0.00    +0.000 A 
ATOM     12  C   UNL     1      44.279   3.081  10.202  0.00  0.00    +0.000 A 
ATOM     13  C   UNL     1      44.696   3.099   8.876  0.00  0.00    +0.000 A 
ATOM     14  C   UNL     1      45.439   4.177   8.403  0.00  0.00    +0.000 A 
ATOM     15  C   UNL     1      45.757   5.240   9.258  0.00  0.00    +0.000 A 
ENDBRANCH   8  10
ENDBRANCH   1   4
BRANCH   1  16
ATOM     16  N   UNL     1      48.656   6.416  14.446  0.00  0.00    +0.000 N 
ATOM     17  H   UNL     1      49.280   5.828  13.897  0.00  0.00    +0.000 HD
BRANCH  16  24
ATOM     18  C   UNL     1      46.964   3.761  14.161  0.00  0.00    +0.000 C 
ATOM     19  C   UNL     1      47.388   4.453  15.409  0.00  0.00    +0.000 A 
ATOM     20  N   UNL     1      46.908   3.845  16.542  0.00  0.00    +0.000 NA
ATOM     21  C   UNL     1      47.243   4.402  17.719  0.00  0.00    +0.000 A 
ATOM     22  C   UNL     1      48.042   5.516  17.783  0.00  0.00    +0.000 A 
ATOM     23  N   UNL     1      48.507   6.132  16.676  0.00  0.00    +0.000 NA
ATOM     24  C   UNL     1      48.169   5.611  15.462  0.00  0.00    +0.000 A 
ENDBRANCH  16  24
ENDBRANCH   1  16
TORSDOF 4
ENDMDL
MODEL 7
REMARK VINA RESULT:    -6.552      1.573      2.768
REMARK INTER + INTRA:          -8.973
REMARK INTER:                  -8.050
REMARK INTRA:                  -0.923
REMARK UNBOUND:                -0.889
REMARK  Name = 
REMARK  5 active torsions:
REMARK  status: ('A' for Active; 'I' for Inactive)
REMARK    1  A    between atoms: C_1  and  C_2
REMARK    2  A    between atoms: C_7  and  N_8
REMARK    3  A    between atoms: N_8  and  C_9
REMARK    4  A    between atoms: C_9  and  C_10
REMARK    5  A    between atoms: C_14  and  C_15
REMARK                            x       y       z     vdW  Elec       q    Type
REMARK                         _______ _______ _______ _____ _____    ______ ____
ROOT
ATOM      1  C   UNL     1      48.539   7.891  12.709  0.00  0.00    +0.000 C 
ATOM      2  C   UNL     1      49.505   8.113  11.530  0.00  0.00    +0.000 C 
ATOM      3  C   UNL     1      49.075   9.265  12.357  0.00  0.00    +0.000 C 
ENDROOT
BRANCH   1   4
ATOM      4  C   UNL     1      47.080   7.608  12.322  0.00  0.00    +0.000 A 
ATOM      5  C   UNL     1      46.057   8.536  12.547  0.00  0.00    +0.000 A 
ATOM      6  C   UNL     1      44.759   8.301  12.087  0.00  0.00    +0.000 A 
ATOM      7  C   UNL     1      44.462   7.134  11.376  0.00  0.00    +0.000 A 
ATOM      8  C   UNL     1      45.451   6.173  11.117  0.00  0.00    +0.000 A 
ATOM      9  C   UNL     1      46.729   6.417  11.649  0.00  0.00    +0.000 A 
BRANCH   8  10
ATOM     10  C   UNL     1      45.213   5.007  10.230  0.00  0.00    +0.000 A 
ATOM     11  C   UNL     1      45.750   4.968   8.930  0.00  0.00    +0.000 A 
ATOM     12  C   UNL     1      45.638   3.830   8.123  0.00  0.00    +0.000 A 
ATOM     13  C   UNL     1      44.990   2.697   8.601  0.00  0.00    +0.000 A 
ATOM     14  C   UNL     1      44.434   2.710   9.877  0.00  0.00    +0.000 A 
ATOM     15  C   UNL     1      44.535   3.856  10.676  0.00  0.00    +0.000 A 
ENDBRANCH   8  10
ENDBRANCH   1   4
BRANCH   1  16
ATOM     16  N   UNL     1      49.061   6.949  13.691  0.00  0.00    +0.000 N 
ATOM     17  H   UNL     1      49.715   6.250  13.343  0.00  0.00    +0.000 HD
BRANCH  16  24
ATOM     18  C   UNL     1      49.589   8.496  16.397  0.00  0.00    +0.000 C 
ATOM     19  C   UNL     1      48.957   7.161  16.207  0.00  0.00    +0.000 A 
ATOM     20  N   UNL     1      48.634   6.554  17.395  0.00  0.00    +0.000 NA
ATOM     21  C   UNL     1      48.055   5.342  17.321  0.00  0.00    +0.000 A 
ATOM     22  C   UNL     1      47.785   4.751  16.111  0.00  0.00    +0.000 A 
ATOM     23  N   UNL     1      48.111   5.331  14.938  0.00  0.00    +0.000 NA
ATOM     24  C   UNL     1      48.721   6.549  14.973  0.00  0.00    +0.000 A 
ENDBRANCH  16  24
ENDBRANCH   1  16
TORSDOF 4
ENDMDL
MODEL 8
REMARK VINA RESULT:    -5.816      3.031      6.774
REMARK INTER + INTRA:          -8.065
REMARK INTER:                  -6.936
REMARK INTRA:                  -1.129
REMARK UNBOUND:                -0.889
REMARK  Name = 
REMARK  5 active torsions:
REMARK  status: ('A' for Active; 'I' for Inactive)
REMARK    1  A    between atoms: C_1  and  C_2
REMARK    2  A    between atoms: C_7  and  N_8
REMARK    3  A    between atoms: N_8  and  C_9
REMARK    4  A    between atoms: C_9  and  C_10
REMARK    5  A    between atoms: C_14  and  C_15
REMARK                            x       y       z     vdW  Elec       q    Type
REMARK                         _______ _______ _______ _____ _____    ______ ____
ROOT
ATOM      1  C   UNL     1      43.859   5.354  11.942  0.00  0.00    +0.000 C 
ATOM      2  C   UNL     1      42.862   4.966  13.050  0.00  0.00    +0.000 C 
ATOM      3  C   UNL     1      42.374   5.630  11.819  0.00  0.00    +0.000 C 
ENDROOT
BRANCH   1   4
ATOM      4  C   UNL     1      44.754   6.563  12.256  0.00  0.00    +0.000 A 
ATOM      5  C   UNL     1      45.988   6.427  12.903  0.00  0.00    +0.000 A 
ATOM      6  C   UNL     1      46.832   7.525  13.079  0.00  0.00    +0.000 A 
ATOM      7  C   UNL     1      46.465   8.784  12.594  0.00  0.00    +0.000 A 
ATOM      8  C   UNL     1      45.242   8.976  11.932  0.00  0.00    +0.000 A 
ATOM      9  C   UNL     1      44.393   7.859  11.830  0.00  0.00    +0.000 A 
BRANCH   8  10
ATOM     10  C   UNL     1      44.892  10.253  11.264  0.00  0.00    +0.000 A 
ATOM     11  C   UNL     1      45.578  11.442  11.575  0.00  0.00    +0.000 A 
ATOM     12  C   UNL     1      45.345  12.630  10.872  0.00  0.00    +0.000 A 
ATOM     13  C   UNL     1      44.422  12.656   9.832  0.00  0.00    +0.000 A 
ATOM     14  C   UNL     1      43.717  11.500   9.511  0.00  0.00    +0.000 A 
ATOM     15  C   UNL     1      43.941  10.317  10.227  0.00  0.00    +0.000 A 
ENDBRANCH   8  10
ENDBRANCH   1   4
BRANCH   1  16
ATOM     16  N   UNL     1      44.605   4.210  11.432  0.00  0.00    +0.000 N 
ATOM     17  H   UNL     1      45.159   3.693  12.112  0.00  0.00    +0.000 HD
BRANCH  16  24
ATOM     18  C   UNL     1      46.171   5.794   9.190  0.00  0.00    +0.000 C 
ATOM     19  C   UNL     1      45.654   4.399   9.141  0.00  0.00    +0.000 A 
ATOM     20  N   UNL     1      45.868   3.797   7.927  0.00  0.00    +0.000 NA
ATOM     21  C   UNL     1      45.434   2.531   7.791  0.00  0.00    +0.000 A 
ATOM     22  C   UNL     1      44.823   1.869   8.827  0.00  0.00    +0.000 A 
ATOM     23  N   UNL     1      44.594   2.455  10.020  0.00  0.00    +0.000 NA
ATOM     24  C   UNL     1      44.998   3.746  10.188  0.00  0.00    +0.000 A 
ENDBRANCH  16  24
ENDBRANCH   1  16
TORSDOF 4
ENDMDL
MODEL 9
REMARK VINA RESULT:    -5.763      2.649      7.176
REMARK INTER + INTRA:          -8.000
REMARK INTER:                  -7.074
REMARK INTRA:                  -0.926
REMARK UNBOUND:                -0.889
REMARK  Name = 
REMARK  5 active torsions:
REMARK  status: ('A' for Active; 'I' for Inactive)
REMARK    1  A    between atoms: C_1  and  C_2
REMARK    2  A    between atoms: C_7  and  N_8
REMARK    3  A    between atoms: N_8  and  C_9
REMARK    4  A    between atoms: C_9  and  C_10
REMARK    5  A    between atoms: C_14  and  C_15
REMARK                            x       y       z     vdW  Elec       q    Type
REMARK                         _______ _______ _______ _____ _____    ______ ____
ROOT
ATOM      1  C   UNL     1      47.728   7.683  13.163  0.00  0.00    +0.000 C 
ATOM      2  C   UNL     1      47.740   8.913  12.236  0.00  0.00    +0.000 C 
ATOM      3  C   UNL     1      48.651   7.776  11.965  0.00  0.00    +0.000 C 
ENDROOT
BRANCH   1   4
ATOM      4  C   UNL     1      48.374   7.891  14.542  0.00  0.00    +0.000 A 
ATOM      5  C   UNL     1      48.101   9.015  15.329  0.00  0.00    +0.000 A 
ATOM      6  C   UNL     1      48.615   9.128  16.623  0.00  0.00    +0.000 A 
ATOM      7  C   UNL     1      49.402   8.107  17.163  0.00  0.00    +0.000 A 
ATOM      8  C   UNL     1      49.702   6.955  16.419  0.00  0.00    +0.000 A 
ATOM      9  C   UNL     1      49.218   6.907  15.100  0.00  0.00    +0.000 A 
BRANCH   8  10
ATOM     10  C   UNL     1      50.393   5.783  17.013  0.00  0.00    +0.000 A 
ATOM     11  C   UNL     1      49.683   4.608  17.323  0.00  0.00    +0.000 A 
ATOM     12  C   UNL     1      50.336   3.454  17.772  0.00  0.00    +0.000 A 
ATOM     13  C   UNL     1      51.719   3.444  17.914  0.00  0.00    +0.000 A 
ATOM     14  C   UNL     1      52.447   4.596  17.629  0.00  0.00    +0.000 A 
ATOM     15  C   UNL     1      51.789   5.754  17.196  0.00  0.00    +0.000 A 
ENDBRANCH   8  10
ENDBRANCH   1   4
BRANCH   1  16
ATOM     16  N   UNL     1      46.417   7.051  13.239  0.00  0.00    +0.000 N 
ATOM     17  H   UNL     1      45.731   7.505  13.838  0.00  0.00    +0.000 HD
BRANCH  16  24
ATOM     18  C   UNL     1      46.940   4.285  14.678  0.00  0.00    +0.000 C 
ATOM     19  C   UNL     1      46.098   4.555  13.480  0.00  0.00    +0.000 A 
ATOM     20  N   UNL     1      45.552   3.414  12.948  0.00  0.00    +0.000 NA
ATOM     21  C   UNL     1      44.773   3.562  11.861  0.00  0.00    +0.000 A 
ATOM     22  C   UNL     1      44.524   4.801  11.322  0.00  0.00    +0.000 A 
ATOM     23  N   UNL     1      45.067   5.927  11.827  0.00  0.00    +0.000 NA
ATOM     24  C   UNL     1      45.882   5.815  12.914  0.00  0.00    +0.000 A 
ENDBRANCH  16  24
ENDBRANCH   1  16
TORSDOF 4
ENDMDL
