MODEL 1
REMARK VINA RESULT:    -8.597      0.000      0.000
REMARK INTER + INTRA:         -12.398
REMARK INTER:                 -11.613
REMARK INTRA:                  -0.785
REMARK UNBOUND:                -0.785
REMARK  Name = 
REMARK  6 active torsions:
REMARK  status: ('A' for Active; 'I' for Inactive)
REMARK    1  A    between atoms: C_2  and  C_4
REMARK    2  A    between atoms: N_8  and  C_9
REMARK    3  A    between atoms: C_9  and  C_10
REMARK    4  A    between atoms: C_10  and  C_11
REMARK    5  A    between atoms: C_15  and  O_16
REMARK    6  A    between atoms: O_16  and  C_17
REMARK                            x       y       z     vdW  Elec       q    Type
REMARK                         _______ _______ _______ _____ _____    ______ ____
ROOT
ATOM      1  C   UNL     1      46.612   2.445   7.497  0.00  0.00    +0.000 A 
ATOM      2  C   UNL     1      45.816   1.796   8.434  0.00  0.00    +0.000 A 
ATOM      3  C   UNL     1      44.898   2.539   9.174  0.00  0.00    +0.000 A 
ATOM      4  C   UNL     1      44.805   3.916   8.985  0.00  0.00    +0.000 A 
ATOM      5  N   UNL     1      43.853   4.703   9.615  0.00  0.00    +0.000 N 
ATOM      6  N   UNL     1      45.599   4.561   8.109  0.00  0.00    +0.000 NA
ATOM      7  C   UNL     1      46.488   3.822   7.388  0.00  0.00    +0.000 A 
ATOM      8  H   UNL     1      44.102   5.673   9.428  0.00  0.00    +0.000 HD
ENDROOT
BRANCH   1  10
ATOM      9  N   UNL     1      48.725   2.376   6.308  0.00  0.00    +0.000 N 
ATOM     10  C   UNL     1      47.560   1.728   6.622  0.00  0.00    +0.000 C 
ATOM     11  O   UNL     1      47.338   0.593   6.229  0.00  0.00    +0.000 OA
ATOM     12  H   UNL     1      49.419   1.834   5.808  0.00  0.00    +0.000 HD
ATOM     13  H   UNL     1      49.049   3.186   6.816  0.00  0.00    +0.000 HD
ENDBRANCH   1  10
BRANCH   5  14
ATOM     14  C   UNL     1      43.484   4.389  10.988  0.00  0.00    +0.000 C 
BRANCH  14  15
ATOM     15  C   UNL     1      43.641   5.618  11.890  0.00  0.00    +0.000 C 
BRANCH  15  16
ATOM     16  C   UNL     1      45.013   5.648  12.520  0.00  0.00    +0.000 A 
ATOM     17  C   UNL     1      45.887   6.715  12.278  0.00  0.00    +0.000 A 
ATOM     18  C   UNL     1      47.128   6.771  12.917  0.00  0.00    +0.000 A 
ATOM     19  C   UNL     1      47.511   5.762  13.804  0.00  0.00    +0.000 A 
ATOM     20  C   UNL     1      46.652   4.694  14.047  0.00  0.00    +0.000 A 
ATOM     21  C   UNL     1      45.408   4.641  13.413  0.00  0.00    +0.000 A 
BRANCH  20  22
ATOM     22  O   UNL     1      46.905   3.669  14.923  0.00  0.00    +0.000 OA
BRANCH  22  23
ATOM     23  C   UNL     1      47.816   3.891  16.021  0.00  0.00    +0.000 C 
ATOM     24  C   UNL     1      48.527   2.648  16.606  0.00  0.00    +0.000 C 
ATOM     25  C   UNL     1      48.121   3.097  18.015  0.00  0.00    +0.000 C 
ATOM     26  C   UNL     1      47.113   4.068  17.388  0.00  0.00    +0.000 C 
ENDBRANCH  22  23
ENDBRANCH  20  22
ENDBRANCH  15  16
ENDBRANCH  14  15
ENDBRANCH   5  14
TORSDOF 6
ENDMDL
MODEL 2
REMARK VINA RESULT:    -7.849      1.893      3.391
REMARK INTER + INTRA:         -11.387
REMARK INTER:                 -10.448
REMARK INTRA:                  -0.939
REMARK UNBOUND:                -0.785
REMARK  Name = 
REMARK  6 active torsions:
REMARK  status: ('A' for Active; 'I' for Inactive)
REMARK    1  A    between atoms: C_2  and  C_4
REMARK    2  A    between atoms: N_8  and  C_9
REMARK    3  A    between atoms: C_9  and  C_10
REMARK    4  A    between atoms: C_10  and  C_11
REMARK    5  A    between atoms: C_15  and  O_16
REMARK    6  A    between atoms: O_16  and  C_17
REMARK                            x       y       z     vdW  Elec       q    Type
REMARK                         _______ _______ _______ _____ _____    ______ ____
ROOT
ATOM      1  C   UNL     1      46.556   2.522   7.684  0.00  0.00    +0.000 A 
ATOM      2  C   UNL     1      45.654   1.850   8.500  0.00  0.00    +0.000 A 
ATOM      3  C   UNL     1      44.713   2.586   9.219  0.00  0.00    +0.000 A 
ATOM      4  C   UNL     1      44.702   3.976   9.130  0.00  0.00    +0.000 A 
ATOM      5  N   UNL     1      43.739   4.765   9.741  0.00  0.00    +0.000 N 
ATOM      6  N   UNL     1      45.597   4.639   8.373  0.00  0.00    +0.000 NA
ATOM      7  C   UNL     1      46.507   3.908   7.672  0.00  0.00    +0.000 A 
ATOM      8  H   UNL     1      44.049   5.732   9.649  0.00  0.00    +0.000 HD
ENDROOT
BRANCH   1  10
ATOM      9  N   UNL     1      48.565   2.572   6.325  0.00  0.00    +0.000 N 
ATOM     10  C   UNL     1      47.540   1.821   6.835  0.00  0.00    +0.000 C 
ATOM     11  O   UNL     1      47.469   0.619   6.630  0.00  0.00    +0.000 OA
ATOM     12  H   UNL     1      49.297   2.064   5.845  0.00  0.00    +0.000 HD
ATOM     13  H   UNL     1      48.794   3.489   6.680  0.00  0.00    +0.000 HD
ENDBRANCH   1  10
BRANCH   5  14
ATOM     14  C   UNL     1      43.241   4.373  11.051  0.00  0.00    +0.000 C 
BRANCH  14  15
ATOM     15  C   UNL     1      43.366   5.527  12.051  0.00  0.00    +0.000 C 
BRANCH  15  16
ATOM     16  C   UNL     1      44.738   5.543  12.681  0.00  0.00    +0.000 A 
ATOM     17  C   UNL     1      45.313   4.363  13.170  0.00  0.00    +0.000 A 
ATOM     18  C   UNL     1      46.609   4.371  13.689  0.00  0.00    +0.000 A 
ATOM     19  C   UNL     1      47.347   5.557  13.727  0.00  0.00    +0.000 A 
ATOM     20  C   UNL     1      46.782   6.737  13.248  0.00  0.00    +0.000 A 
ATOM     21  C   UNL     1      45.488   6.727  12.723  0.00  0.00    +0.000 A 
BRANCH  20  22
ATOM     22  O   UNL     1      47.423   7.949  13.202  0.00  0.00    +0.000 OA
BRANCH  22  23
ATOM     23  C   UNL     1      48.851   7.982  12.987  0.00  0.00    +0.000 C 
ATOM     24  C   UNL     1      49.504   9.374  12.820  0.00  0.00    +0.000 C 
ATOM     25  C   UNL     1      50.221   8.871  11.560  0.00  0.00    +0.000 C 
ATOM     26  C   UNL     1      49.270   7.669  11.530  0.00  0.00    +0.000 C 
ENDBRANCH  22  23
ENDBRANCH  20  22
ENDBRANCH  15  16
ENDBRANCH  14  15
ENDBRANCH   5  14
TORSDOF 6
ENDMDL
MODEL 3
REMARK VINA RESULT:    -7.579      2.594      4.519
REMARK INTER + INTRA:         -11.022
REMARK INTER:                 -10.061
REMARK INTRA:                  -0.961
REMARK UNBOUND:                -0.785
REMARK  Name = 
REMARK  6 active torsions:
REMARK  status: ('A' for Active; 'I' for Inactive)
REMARK    1  A    between atoms: C_2  and  C_4
REMARK    2  A    between atoms: N_8  and  C_9
REMARK    3  A    between atoms: C_9  and  C_10
REMARK    4  A    between atoms: C_10  and  C_11
REMARK    5  A    between atoms: C_15  and  O_16
REMARK    6  A    between atoms: O_16  and  C_17
REMARK                            x       y       z     vdW  Elec       q    Type
REMARK                         _______ _______ _______ _____ _____    ______ ____
ROOT
ATOM      1  C   UNL     1      46.450   2.720   7.279  0.00  0.00    +0.000 A 
ATOM      2  C   UNL     1      45.987   3.901   7.845  0.00  0.00    +0.000 A 
ATOM      3  C   UNL     1      45.259   3.844   9.033  0.00  0.00    +0.000 A 
ATOM      4  C   UNL     1      44.987   2.611   9.622  0.00  0.00    +0.000 A 
ATOM      5  N   UNL     1      44.351   2.484  10.849  0.00  0.00    +0.000 N 
ATOM      6  N   UNL     1      45.397   1.458   9.061  0.00  0.00    +0.000 NA
ATOM      7  C   UNL     1      46.112   1.529   7.904  0.00  0.00    +0.000 A 
ATOM      8  H   UNL     1      44.141   1.494  10.969  0.00  0.00    +0.000 HD
ENDROOT
BRANCH   1  10
ATOM      9  N   UNL     1      48.644   2.669   6.245  0.00  0.00    +0.000 N 
ATOM     10  C   UNL     1      47.287   2.691   6.063  0.00  0.00    +0.000 C 
ATOM     11  O   UNL     1      46.794   2.645   4.946  0.00  0.00    +0.000 OA
ATOM     12  H   UNL     1      49.205   2.529   5.414  0.00  0.00    +0.000 HD
ATOM     13  H   UNL     1      49.069   2.446   7.133  0.00  0.00    +0.000 HD
ENDBRANCH   1  10
BRANCH   5  14
ATOM     14  C   UNL     1      43.282   3.413  11.182  0.00  0.00    +0.000 C 
BRANCH  14  15
ATOM     15  C   UNL     1      43.446   3.944  12.611  0.00  0.00    +0.000 C 
BRANCH  15  16
ATOM     16  C   UNL     1      44.528   4.995  12.670  0.00  0.00    +0.000 A 
ATOM     17  C   UNL     1      45.760   4.717  13.276  0.00  0.00    +0.000 A 
ATOM     18  C   UNL     1      46.782   5.670  13.268  0.00  0.00    +0.000 A 
ATOM     19  C   UNL     1      46.585   6.910  12.655  0.00  0.00    +0.000 A 
ATOM     20  C   UNL     1      45.362   7.198  12.056  0.00  0.00    +0.000 A 
ATOM     21  C   UNL     1      44.342   6.243  12.058  0.00  0.00    +0.000 A 
BRANCH  20  22
ATOM     22  O   UNL     1      45.069   8.364  11.395  0.00  0.00    +0.000 OA
BRANCH  22  23
ATOM     23  C   UNL     1      45.113   9.613  12.119  0.00  0.00    +0.000 C 
ATOM     24  C   UNL     1      44.221  10.762  11.592  0.00  0.00    +0.000 C 
ATOM     25  C   UNL     1      45.427  11.707  11.654  0.00  0.00    +0.000 C 
ATOM     26  C   UNL     1      46.346  10.486  11.783  0.00  0.00    +0.000 C 
ENDBRANCH  22  23
ENDBRANCH  20  22
ENDBRANCH  15  16
ENDBRANCH  14  15
ENDBRANCH   5  14
TORSDOF 6
ENDMDL
MODEL 4
REMARK VINA RESULT:    -7.419      1.830      2.325
REMARK INTER + INTRA:         -10.805
REMARK INTER:                  -9.825
REMARK INTRA:                  -0.980
REMARK UNBOUND:                -0.785
REMARK  Name = 
REMARK  6 active torsions:
REMARK  status: ('A' for Active; 'I' for Inactive)
REMARK    1  A    between atoms: C_2  and  C_4
REMARK    2  A    between atoms: N_8  and  C_9
REMARK    3  A    between atoms: C_9  and  C_10
REMARK    4  A    between atoms: C_10  and  C_11
REMARK    5  A    between atoms: C_15  and  O_16
REMARK    6  A    between atoms: O_16  and  C_17
REMARK                            x       y       z     vdW  Elec       q    Type
REMARK                         _______ _______ _______ _____ _____    ______ ____
ROOT
ATOM      1  C   UNL     1      46.484   2.536   7.025  0.00  0.00    +0.000 A 
ATOM      2  C   UNL     1      45.997   3.736   7.530  0.00  0.00    +0.000 A 
ATOM      3  C   UNL     1      45.324   3.734   8.751  0.00  0.00    +0.000 A 
ATOM      4  C   UNL     1      45.128   2.536   9.434  0.00  0.00    +0.000 A 
ATOM      5  N   UNL     1      44.553   2.470  10.694  0.00  0.00    +0.000 N 
ATOM      6  N   UNL     1      45.561   1.363   8.935  0.00  0.00    +0.000 NA
ATOM      7  C   UNL     1      46.222   1.380   7.744  0.00  0.00    +0.000 A 
ATOM      8  H   UNL     1      44.388   1.484  10.891  0.00  0.00    +0.000 HD
ENDROOT
BRANCH   1  10
ATOM      9  N   UNL     1      48.621   2.634   5.881  0.00  0.00    +0.000 N 
ATOM     10  C   UNL     1      47.267   2.455   5.776  0.00  0.00    +0.000 C 
ATOM     11  O   UNL     1      46.741   2.197   4.704  0.00  0.00    +0.000 OA
ATOM     12  H   UNL     1      49.163   2.459   5.043  0.00  0.00    +0.000 HD
ATOM     13  H   UNL     1      49.107   2.588   6.765  0.00  0.00    +0.000 HD
ENDBRANCH   1  10
BRANCH   5  14
ATOM     14  C   UNL     1      43.461   3.379  11.013  0.00  0.00    +0.000 C 
BRANCH  14  15
ATOM     15  C   UNL     1      43.686   4.046  12.375  0.00  0.00    +0.000 C 
BRANCH  15  16
ATOM     16  C   UNL     1      44.860   4.993  12.320  0.00  0.00    +0.000 A 
ATOM     17  C   UNL     1      44.859   6.081  11.438  0.00  0.00    +0.000 A 
ATOM     18  C   UNL     1      45.917   6.993  11.440  0.00  0.00    +0.000 A 
ATOM     19  C   UNL     1      46.989   6.828  12.322  0.00  0.00    +0.000 A 
ATOM     20  C   UNL     1      47.002   5.747  13.198  0.00  0.00    +0.000 A 
ATOM     21  C   UNL     1      45.940   4.838  13.201  0.00  0.00    +0.000 A 
BRANCH  20  22
ATOM     22  O   UNL     1      47.980   5.506  14.130  0.00  0.00    +0.000 OA
BRANCH  22  23
ATOM     23  C   UNL     1      48.418   6.584  14.984  0.00  0.00    +0.000 C 
ATOM     24  C   UNL     1      49.865   7.094  14.785  0.00  0.00    +0.000 C 
ATOM     25  C   UNL     1      50.096   6.987  16.297  0.00  0.00    +0.000 C 
ATOM     26  C   UNL     1      48.831   6.127  16.404  0.00  0.00    +0.000 C 
ENDBRANCH  22  23
ENDBRANCH  20  22
ENDBRANCH  15  16
ENDBRANCH  14  15
ENDBRANCH   5  14
TORSDOF 6
ENDMDL
MODEL 5
REMARK VINA RESULT:    -7.273      1.969      2.743
REMARK INTER + INTRA:         -10.608
REMARK INTER:                  -9.699
REMARK INTRA:                  -0.909
REMARK UNBOUND:                -0.785
REMARK  Name = 
REMARK  6 active torsions:
REMARK  status: ('A' for Active; 'I' for Inactive)
REMARK    1  A    between atoms: C_2  and  C_4
REMARK    2  A    between atoms: N_8  and  C_9
REMARK    3  A    between atoms: C_9  and  C_10
REMARK    4  A    between atoms: C_10  and  C_11
REMARK    5  A    between atoms: C_15  and  O_16
REMARK    6  A    between atoms: O_16  and  C_17
REMARK                            x       y       z     vdW  Elec       q    Type
REMARK                         _______ _______ _______ _____ _____    ______ ____
ROOT
ATOM      1  C   UNL     1      46.495   2.292   7.763  0.00  0.00    +0.000 A 
ATOM      2  C   UNL     1      45.642   1.791   8.738  0.00  0.00    +0.000 A 
ATOM      3  C   UNL     1      44.709   2.644   9.326  0.00  0.00    +0.000 A 
ATOM      4  C   UNL     1      44.658   3.984   8.948  0.00  0.00    +0.000 A 
ATOM      5  N   UNL     1      43.697   4.866   9.419  0.00  0.00    +0.000 N 
ATOM      6  N   UNL     1      45.507   4.489   8.032  0.00  0.00    +0.000 NA
ATOM      7  C   UNL     1      46.409   3.643   7.463  0.00  0.00    +0.000 A 
ATOM      8  H   UNL     1      43.978   5.797   9.114  0.00  0.00    +0.000 HD
ENDROOT
BRANCH   1  10
ATOM      9  N   UNL     1      47.057   0.183   6.705  0.00  0.00    +0.000 N 
ATOM     10  C   UNL     1      47.465   1.446   7.039  0.00  0.00    +0.000 C 
ATOM     11  O   UNL     1      48.566   1.866   6.715  0.00  0.00    +0.000 OA
ATOM     12  H   UNL     1      47.680  -0.346   6.107  0.00  0.00    +0.000 HD
ATOM     13  H   UNL     1      46.087  -0.097   6.725  0.00  0.00    +0.000 HD
ENDBRANCH   1  10
BRANCH   5  14
ATOM     14  C   UNL     1      43.258   4.749  10.802  0.00  0.00    +0.000 C 
BRANCH  14  15
ATOM     15  C   UNL     1      43.701   5.967  11.621  0.00  0.00    +0.000 C 
BRANCH  15  16
ATOM     16  C   UNL     1      44.939   5.651  12.424  0.00  0.00    +0.000 A 
ATOM     17  C   UNL     1      45.266   4.326  12.741  0.00  0.00    +0.000 A 
ATOM     18  C   UNL     1      46.448   4.035  13.425  0.00  0.00    +0.000 A 
ATOM     19  C   UNL     1      47.318   5.062  13.801  0.00  0.00    +0.000 A 
ATOM     20  C   UNL     1      46.999   6.382  13.496  0.00  0.00    +0.000 A 
ATOM     21  C   UNL     1      45.819   6.673  12.806  0.00  0.00    +0.000 A 
BRANCH  20  22
ATOM     22  O   UNL     1      47.792   7.465  13.782  0.00  0.00    +0.000 OA
BRANCH  22  23
ATOM     23  C   UNL     1      48.651   7.421  14.941  0.00  0.00    +0.000 C 
ATOM     24  C   UNL     1      48.694   8.685  15.832  0.00  0.00    +0.000 C 
ATOM     25  C   UNL     1      50.227   8.641  15.796  0.00  0.00    +0.000 C 
ATOM     26  C   UNL     1      50.146   7.661  14.620  0.00  0.00    +0.000 C 
ENDBRANCH  22  23
ENDBRANCH  20  22
ENDBRANCH  15  16
ENDBRANCH  14  15
ENDBRANCH   5  14
TORSDOF 6
ENDMDL
MODEL 6
REMARK VINA RESULT:    -7.186      3.316      8.178
REMARK INTER + INTRA:         -10.492
REMARK INTER:                  -9.778
REMARK INTRA:                  -0.714
REMARK UNBOUND:                -0.785
REMARK  Name = 
REMARK  6 active torsions:
REMARK  status: ('A' for Active; 'I' for Inactive)
REMARK    1  A    between atoms: C_2  and  C_4
REMARK    2  A    between atoms: N_8  and  C_9
REMARK    3  A    between atoms: C_9  and  C_10
REMARK    4  A    between atoms: C_10  and  C_11
REMARK    5  A    between atoms: C_15  and  O_16
REMARK    6  A    between atoms: O_16  and  C_17
REMARK                            x       y       z     vdW  Elec       q    Type
REMARK                         _______ _______ _______ _____ _____    ______ ____
ROOT
ATOM      1  C   UNL     1      48.413   4.407  16.816  0.00  0.00    +0.000 A 
ATOM      2  C   UNL     1      47.362   3.884  16.073  0.00  0.00    +0.000 A 
ATOM      3  C   UNL     1      46.968   4.535  14.904  0.00  0.00    +0.000 A 
ATOM      4  C   UNL     1      47.612   5.706  14.510  0.00  0.00    +0.000 A 
ATOM      5  N   UNL     1      47.338   6.354  13.315  0.00  0.00    +0.000 N 
ATOM      6  N   UNL     1      48.605   6.243  15.244  0.00  0.00    +0.000 NA
ATOM      7  C   UNL     1      48.984   5.594  16.380  0.00  0.00    +0.000 A 
ATOM      8  H   UNL     1      47.824   7.248  13.347  0.00  0.00    +0.000 HD
ENDROOT
BRANCH   1  10
ATOM      9  N   UNL     1      49.971   2.861  17.849  0.00  0.00    +0.000 N 
ATOM     10  C   UNL     1      48.942   3.747  18.026  0.00  0.00    +0.000 C 
ATOM     11  O   UNL     1      48.513   4.010  19.139  0.00  0.00    +0.000 OA
ATOM     12  H   UNL     1      50.406   2.505  18.692  0.00  0.00    +0.000 HD
ATOM     13  H   UNL     1      50.511   2.820  16.997  0.00  0.00    +0.000 HD
ENDBRANCH   1  10
BRANCH   5  14
ATOM     14  C   UNL     1      45.963   6.387  12.837  0.00  0.00    +0.000 C 
BRANCH  14  15
ATOM     15  C   UNL     1      45.919   6.538  11.312  0.00  0.00    +0.000 C 
BRANCH  15  16
ATOM     16  C   UNL     1      45.413   5.272  10.664  0.00  0.00    +0.000 A 
ATOM     17  C   UNL     1      44.618   4.370  11.382  0.00  0.00    +0.000 A 
ATOM     18  C   UNL     1      44.096   3.235  10.757  0.00  0.00    +0.000 A 
ATOM     19  C   UNL     1      44.362   2.988   9.407  0.00  0.00    +0.000 A 
ATOM     20  C   UNL     1      45.156   3.876   8.686  0.00  0.00    +0.000 A 
ATOM     21  C   UNL     1      45.673   5.014   9.310  0.00  0.00    +0.000 A 
BRANCH  20  22
ATOM     22  O   UNL     1      45.452   3.754   7.352  0.00  0.00    +0.000 OA
BRANCH  22  23
ATOM     23  C   UNL     1      46.755   3.269   6.962  0.00  0.00    +0.000 C 
ATOM     24  C   UNL     1      46.919   2.794   5.499  0.00  0.00    +0.000 C 
ATOM     25  C   UNL     1      47.570   1.501   6.007  0.00  0.00    +0.000 C 
ATOM     26  C   UNL     1      47.040   1.816   7.411  0.00  0.00    +0.000 C 
ENDBRANCH  22  23
ENDBRANCH  20  22
ENDBRANCH  15  16
ENDBRANCH  14  15
ENDBRANCH   5  14
TORSDOF 6
ENDMDL
MODEL 7
REMARK VINA RESULT:    -6.423      3.325      5.149
REMARK INTER + INTRA:          -9.461
REMARK INTER:                  -8.798
REMARK INTRA:                  -0.663
REMARK UNBOUND:                -0.785
REMARK  Name = 
REMARK  6 active torsions:
REMARK  status: ('A' for Active; 'I' for Inactive)
REMARK    1  A    between atoms: C_2  and  C_4
REMARK    2  A    between atoms: N_8  and  C_9
REMARK    3  A    between atoms: C_9  and  C_10
REMARK    4  A    between atoms: C_10  and  C_11
REMARK    5  A    between atoms: C_15  and  O_16
REMARK    6  A    between atoms: O_16  and  C_17
REMARK                            x       y       z     vdW  Elec       q    Type
REMARK                         _______ _______ _______ _____ _____    ______ ____
ROOT
ATOM      1  C   UNL     1      46.949   0.297   3.999  0.00  0.00    +0.000 A 
ATOM      2  C   UNL     1      46.631   1.640   3.831  0.00  0.00    +0.000 A 
ATOM      3  C   UNL     1      46.705   2.496   4.929  0.00  0.00    +0.000 A 
ATOM      4  C   UNL     1      47.072   1.996   6.177  0.00  0.00    +0.000 A 
ATOM      5  N   UNL     1      47.257   2.803   7.290  0.00  0.00    +0.000 N 
ATOM      6  N   UNL     1      47.343   0.689   6.359  0.00  0.00    +0.000 NA
ATOM      7  C   UNL     1      47.272  -0.134   5.277  0.00  0.00    +0.000 A 
ATOM      8  H   UNL     1      47.365   2.180   8.089  0.00  0.00    +0.000 HD
ENDROOT
BRANCH   1  10
ATOM      9  N   UNL     1      45.901  -1.523   2.784  0.00  0.00    +0.000 N 
ATOM     10  C   UNL     1      46.965  -0.665   2.880  0.00  0.00    +0.000 C 
ATOM     11  O   UNL     1      47.862  -0.671   2.051  0.00  0.00    +0.000 OA
ATOM     12  H   UNL     1      45.861  -2.096   1.950  0.00  0.00    +0.000 HD
ATOM     13  H   UNL     1      45.038  -1.374   3.286  0.00  0.00    +0.000 HD
ENDBRANCH   1  10
BRANCH   5  14
ATOM     14  C   UNL     1      46.376   3.946   7.480  0.00  0.00    +0.000 C 
BRANCH  14  15
ATOM     15  C   UNL     1      45.003   3.498   7.993  0.00  0.00    +0.000 C 
BRANCH  15  16
ATOM     16  C   UNL     1      44.840   3.843   9.454  0.00  0.00    +0.000 A 
ATOM     17  C   UNL     1      44.208   2.953  10.331  0.00  0.00    +0.000 A 
ATOM     18  C   UNL     1      44.121   3.246  11.694  0.00  0.00    +0.000 A 
ATOM     19  C   UNL     1      44.663   4.432  12.196  0.00  0.00    +0.000 A 
ATOM     20  C   UNL     1      45.288   5.326  11.331  0.00  0.00    +0.000 A 
ATOM     21  C   UNL     1      45.381   5.029   9.969  0.00  0.00    +0.000 A 
BRANCH  20  22
ATOM     22  O   UNL     1      45.886   6.499  11.716  0.00  0.00    +0.000 OA
BRANCH  22  23
ATOM     23  C   UNL     1      45.069   7.563  12.250  0.00  0.00    +0.000 C 
ATOM     24  C   UNL     1      44.619   8.666  11.263  0.00  0.00    +0.000 C 
ATOM     25  C   UNL     1      45.094   9.731  12.259  0.00  0.00    +0.000 C 
ATOM     26  C   UNL     1      45.873   8.646  13.011  0.00  0.00    +0.000 C 
ENDBRANCH  22  23
ENDBRANCH  20  22
ENDBRANCH  15  16
ENDBRANCH  14  15
ENDBRANCH   5  14
TORSDOF 6
ENDMDL
MODEL 8
REMARK VINA RESULT:    -6.371      3.722      7.273
REMARK INTER + INTRA:          -9.390
REMARK INTER:                  -8.617
REMARK INTRA:                  -0.774
REMARK UNBOUND:                -0.785
REMARK  Name = 
REMARK  6 active torsions:
REMARK  status: ('A' for Active; 'I' for Inactive)
REMARK    1  A    between atoms: C_2  and  C_4
REMARK    2  A    between atoms: N_8  and  C_9
REMARK    3  A    between atoms: C_9  and  C_10
REMARK    4  A    between atoms: C_10  and  C_11
REMARK    5  A    between atoms: C_15  and  O_16
REMARK    6  A    between atoms: O_16  and  C_17
REMARK                            x       y       z     vdW  Elec       q    Type
REMARK                         _______ _______ _______ _____ _____    ______ ____
ROOT
ATOM      1  C   UNL     1      44.741   9.926  11.353  0.00  0.00    +0.000 A 
ATOM      2  C   UNL     1      44.465   8.574  11.190  0.00  0.00    +0.000 A 
ATOM      3  C   UNL     1      45.206   7.638  11.910  0.00  0.00    +0.000 A 
ATOM      4  C   UNL     1      46.223   8.065  12.762  0.00  0.00    +0.000 A 
ATOM      5  N   UNL     1      46.937   7.200  13.578  0.00  0.00    +0.000 N 
ATOM      6  N   UNL     1      46.526   9.370  12.897  0.00  0.00    +0.000 NA
ATOM      7  C   UNL     1      45.790  10.273  12.192  0.00  0.00    +0.000 A 
ATOM      8  H   UNL     1      47.709   7.737  13.971  0.00  0.00    +0.000 HD
ENDROOT
BRANCH   1  10
ATOM      9  N   UNL     1      43.381  11.930  11.491  0.00  0.00    +0.000 N 
ATOM     10  C   UNL     1      43.962  10.988  10.685  0.00  0.00    +0.000 C 
ATOM     11  O   UNL     1      43.874  11.049   9.469  0.00  0.00    +0.000 OA
ATOM     12  H   UNL     1      42.951  12.718  11.022  0.00  0.00    +0.000 HD
ATOM     13  H   UNL     1      43.646  12.055  12.458  0.00  0.00    +0.000 HD
ENDBRANCH   1  10
BRANCH   5  14
ATOM     14  C   UNL     1      47.267   5.875  13.074  0.00  0.00    +0.000 C 
BRANCH  14  15
ATOM     15  C   UNL     1      46.449   4.797  13.794  0.00  0.00    +0.000 C 
BRANCH  15  16
ATOM     16  C   UNL     1      45.243   4.404  12.974  0.00  0.00    +0.000 A 
ATOM     17  C   UNL     1      43.988   4.965  13.237  0.00  0.00    +0.000 A 
ATOM     18  C   UNL     1      42.890   4.649  12.433  0.00  0.00    +0.000 A 
ATOM     19  C   UNL     1      43.035   3.769  11.357  0.00  0.00    +0.000 A 
ATOM     20  C   UNL     1      44.278   3.202  11.091  0.00  0.00    +0.000 A 
ATOM     21  C   UNL     1      45.377   3.523  11.892  0.00  0.00    +0.000 A 
BRANCH  20  22
ATOM     22  O   UNL     1      44.544   2.357  10.043  0.00  0.00    +0.000 OA
BRANCH  22  23
ATOM     23  C   UNL     1      44.716   2.909   8.720  0.00  0.00    +0.000 C 
ATOM     24  C   UNL     1      45.986   2.490   7.943  0.00  0.00    +0.000 C 
ATOM     25  C   UNL     1      46.264   3.966   7.630  0.00  0.00    +0.000 C 
ATOM     26  C   UNL     1      45.255   4.360   8.714  0.00  0.00    +0.000 C 
ENDBRANCH  22  23
ENDBRANCH  20  22
ENDBRANCH  15  16
ENDBRANCH  14  15
ENDBRANCH   5  14
TORSDOF 6
ENDMDL
MODEL 9
REMARK VINA RESULT:    -6.294      3.661      7.557
REMARK INTER + INTRA:          -9.287
REMARK INTER:                  -8.724
REMARK INTRA:                  -0.563
REMARK UNBOUND:                -0.785
REMARK  Name = 
REMARK  6 active torsions:
REMARK  status: ('A' for Active; 'I' for Inactive)
REMARK    1  A    between atoms: C_2  and  C_4
REMARK    2  A    between atoms: N_8  and  C_9
REMARK    3  A    between atoms: C_9  and  C_10
REMARK    4  A    between atoms: C_10  and  C_11
REMARK    5  A    between atoms: C_15  and  O_16
REMARK    6  A    between atoms: O_16  and  C_17
REMARK                            x       y       z     vdW  Elec       q    Type
REMARK                         _______ _______ _______ _____ _____    ______ ____
ROOT
ATOM      1  C   UNL     1      49.139   8.286  12.574  0.00  0.00    +0.000 A 
ATOM      2  C   UNL     1      47.886   8.881  12.656  0.00  0.00    +0.000 A 
ATOM      3  C   UNL     1      46.772   8.083  12.914  0.00  0.00    +0.000 A 
ATOM      4  C   UNL     1      46.924   6.706  13.062  0.00  0.00    +0.000 A 
ATOM      5  N   UNL     1      45.879   5.864  13.411  0.00  0.00    +0.000 N 
ATOM      6  N   UNL     1      48.128   6.114  12.944  0.00  0.00    +0.000 NA
ATOM      7  C   UNL     1      49.208   6.907  12.698  0.00  0.00    +0.000 A 
ATOM      8  H   UNL     1      46.219   4.910  13.298  0.00  0.00    +0.000 HD
ENDROOT
BRANCH   1  10
ATOM      9  N   UNL     1      51.484   8.367  11.957  0.00  0.00    +0.000 N 
ATOM     10  C   UNL     1      50.380   9.062  12.374  0.00  0.00    +0.000 C 
ATOM     11  O   UNL     1      50.412  10.272  12.531  0.00  0.00    +0.000 OA
ATOM     12  H   UNL     1      52.294   8.921  11.708  0.00  0.00    +0.000 HD
ATOM     13  H   UNL     1      51.426   7.435  11.575  0.00  0.00    +0.000 HD
ENDBRANCH   1  10
BRANCH   5  14
ATOM     14  C   UNL     1      44.552   6.139  12.880  0.00  0.00    +0.000 C 
BRANCH  14  15
ATOM     15  C   UNL     1      44.605   6.357  11.364  0.00  0.00    +0.000 C 
BRANCH  15  16
ATOM     16  C   UNL     1      44.718   5.038  10.637  0.00  0.00    +0.000 A 
ATOM     17  C   UNL     1      43.981   3.924  11.059  0.00  0.00    +0.000 A 
ATOM     18  C   UNL     1      44.037   2.727  10.343  0.00  0.00    +0.000 A 
ATOM     19  C   UNL     1      44.831   2.627   9.196  0.00  0.00    +0.000 A 
ATOM     20  C   UNL     1      45.571   3.727   8.772  0.00  0.00    +0.000 A 
ATOM     21  C   UNL     1      45.510   4.927   9.485  0.00  0.00    +0.000 A 
BRANCH  20  22
ATOM     22  O   UNL     1      46.353   3.756   7.645  0.00  0.00    +0.000 OA
BRANCH  22  23
ATOM     23  C   UNL     1      46.475   2.562   6.842  0.00  0.00    +0.000 C 
ATOM     24  C   UNL     1      47.824   1.808   6.905  0.00  0.00    +0.000 C 
ATOM     25  C   UNL     1      47.858   1.773   5.371  0.00  0.00    +0.000 C 
ATOM     26  C   UNL     1      46.760   2.841   5.347  0.00  0.00    +0.000 C 
ENDBRANCH  22  23
ENDBRANCH  20  22
ENDBRANCH  15  16
ENDBRANCH  14  15
ENDBRANCH   5  14
TORSDOF 6
ENDMDL
