MODEL 1
REMARK VINA RESULT:    -7.456      0.000      0.000
REMARK INTER + INTRA:         -12.487
REMARK INTER:                 -11.161
REMARK INTRA:                  -1.326
REMARK UNBOUND:                -1.326
REMARK  Name = 
REMARK  9 active torsions:
REMARK  status: ('A' for Active; 'I' for Inactive)
REMARK    1  A    between atoms: C_2  and  C_22
REMARK    2  A    between atoms: N_3  and  C_4
REMARK    3  A    between atoms: C_4  and  C_5
REMARK    4  A    between atoms: C_8  and  C_9
REMARK    5  A    between atoms: C_9  and  N_10
REMARK    6  A    between atoms: N_10  and  CA_11
REMARK    7  A    between atoms: CA_11  and  C_12
REMARK    8  A    between atoms: CA_11  and  C_14
REMARK    9  A    between atoms: C_12  and  O_13
REMARK                            x       y       z     vdW  Elec       q    Type
REMARK                         _______ _______ _______ _____ _____    ______ ____
ROOT
ATOM      1  C   UNL     1      47.670   7.536  12.486  0.00  0.00    +0.000 A 
ATOM      2  C   UNL     1      47.430   6.157  12.553  0.00  0.00    +0.000 A 
ATOM      3  C   UNL     1      46.152   5.646  12.309  0.00  0.00    +0.000 A 
ATOM      4  C   UNL     1      45.093   6.503  11.983  0.00  0.00    +0.000 A 
ATOM      5  C   UNL     1      45.338   7.881  11.906  0.00  0.00    +0.000 A 
ATOM      6  C   UNL     1      46.615   8.391  12.147  0.00  0.00    +0.000 A 
ENDROOT
BRANCH   1   7
ATOM      7  C   UNL     1      49.053   8.084  12.717  0.00  0.00    +0.000 C 
BRANCH   7  10
ATOM      8  O   UNL     1      49.059   8.648  15.453  0.00  0.00    +0.000 OA
ATOM      9  C   UNL     1      49.663   7.659  15.057  0.00  0.00    +0.000 C 
ATOM     10  N   UNL     1      49.736   7.315  13.728  0.00  0.00    +0.000 N 
ATOM     11  H   UNL     1      50.129   6.429  13.448  0.00  0.00    +0.000 HD
BRANCH   9  12
ATOM     12  C   UNL     1      50.358   6.760  15.961  0.00  0.00    +0.000 A 
ATOM     13  C   UNL     1      51.718   6.710  16.338  0.00  0.00    +0.000 A 
ATOM     14  N   UNL     1      52.000   5.724  17.192  0.00  0.00    +0.000 NA
ATOM     15  N   UNL     1      50.813   5.112  17.395  0.00  0.00    +0.000 N 
ATOM     16  C   UNL     1      50.529   4.013  18.187  0.00  0.00    +0.000 A 
ATOM     17  C   UNL     1      49.267   3.564  18.245  0.00  0.00    +0.000 A 
ATOM     18  N   UNL     1      48.217   4.142  17.558  0.00  0.00    +0.000 NA
ATOM     19  C   UNL     1      48.475   5.180  16.807  0.00  0.00    +0.000 A 
ATOM     20  C   UNL     1      49.803   5.718  16.681  0.00  0.00    +0.000 A 
ENDBRANCH   9  12
ENDBRANCH   7  10
ENDBRANCH   1   7
BRANCH   4  21
ATOM     21  C   UNL     1      43.711   5.954  11.714  0.00  0.00    +0.000 C 
BRANCH  21  22
ATOM     22  N   UNL     1      43.605   5.451  10.348  0.00  0.00    +0.000 NA
ATOM     23  H   UNL     1      44.426   5.769   9.834  0.00  0.00    +0.000 HD
BRANCH  22  24
ATOM     24  CA  UNL     1      43.584   3.968  10.272  0.00  0.00    +0.000 C 
BRANCH  24  25
ATOM     25  C   UNL     1      44.699   3.465   9.349  0.00  0.00    +0.000 A 
ATOM     26  C   UNL     1      45.394   4.345   8.514  0.00  0.00    +0.000 A 
ATOM     27  C   UNL     1      46.332   3.840   7.617  0.00  0.00    +0.000 A 
ATOM     28  C   UNL     1      46.560   2.473   7.571  0.00  0.00    +0.000 A 
ATOM     29  C   UNL     1      45.851   1.666   8.445  0.00  0.00    +0.000 A 
ATOM     30  N   UNL     1      44.940   2.126   9.334  0.00  0.00    +0.000 NA
ENDBRANCH  24  25
BRANCH  24  31
ATOM     31  C   UNL     1      43.652   3.270  11.656  0.00  0.00    +0.000 C 
BRANCH  31  32
ATOM     32  O   UNL     1      42.913   2.042  11.666  0.00  0.00    +0.000 OA
ATOM     33  H   UNL     1      41.978   2.274  11.529  0.00  0.00    +0.000 HD
ENDBRANCH  31  32
ENDBRANCH  24  31
ENDBRANCH  22  24
ENDBRANCH  21  22
ENDBRANCH   4  21
TORSDOF 9
ENDMDL
MODEL 2
REMARK VINA RESULT:    -6.962      2.122      2.698
REMARK INTER + INTRA:         -11.748
REMARK INTER:                 -10.982
REMARK INTRA:                  -0.766
REMARK UNBOUND:                -1.326
REMARK  Name = 
REMARK  9 active torsions:
REMARK  status: ('A' for Active; 'I' for Inactive)
REMARK    1  A    between atoms: C_2  and  C_22
REMARK    2  A    between atoms: N_3  and  C_4
REMARK    3  A    between atoms: C_4  and  C_5
REMARK    4  A    between atoms: C_8  and  C_9
REMARK    5  A    between atoms: C_9  and  N_10
REMARK    6  A    between atoms: N_10  and  CA_11
REMARK    7  A    between atoms: CA_11  and  C_12
REMARK    8  A    between atoms: CA_11  and  C_14
REMARK    9  A    between atoms: C_12  and  O_13
REMARK                            x       y       z     vdW  Elec       q    Type
REMARK                         _______ _______ _______ _____ _____    ______ ____
ROOT
ATOM      1  C   UNL     1      47.409   6.534  13.424  0.00  0.00    +0.000 A 
ATOM      2  C   UNL     1      47.079   7.365  12.345  0.00  0.00    +0.000 A 
ATOM      3  C   UNL     1      46.028   7.031  11.487  0.00  0.00    +0.000 A 
ATOM      4  C   UNL     1      45.281   5.866  11.696  0.00  0.00    +0.000 A 
ATOM      5  C   UNL     1      45.605   5.040  12.782  0.00  0.00    +0.000 A 
ATOM      6  C   UNL     1      46.654   5.376  13.642  0.00  0.00    +0.000 A 
ENDROOT
BRANCH   1   7
ATOM      7  C   UNL     1      48.520   6.910  14.368  0.00  0.00    +0.000 C 
BRANCH   7  10
ATOM      8  O   UNL     1      50.508   6.238  16.212  0.00  0.00    +0.000 OA
ATOM      9  C   UNL     1      49.337   6.051  16.518  0.00  0.00    +0.000 C 
ATOM     10  N   UNL     1      48.293   6.328  15.668  0.00  0.00    +0.000 N 
ATOM     11  H   UNL     1      47.340   6.285  15.994  0.00  0.00    +0.000 HD
BRANCH   9  12
ATOM     12  C   UNL     1      48.948   5.517  17.811  0.00  0.00    +0.000 A 
ATOM     13  C   UNL     1      48.946   4.189  18.292  0.00  0.00    +0.000 A 
ATOM     14  N   UNL     1      48.502   4.075  19.545  0.00  0.00    +0.000 NA
ATOM     15  N   UNL     1      48.212   5.344  19.911  0.00  0.00    +0.000 N 
ATOM     16  C   UNL     1      47.704   5.803  21.112  0.00  0.00    +0.000 A 
ATOM     17  C   UNL     1      47.488   7.118  21.264  0.00  0.00    +0.000 A 
ATOM     18  N   UNL     1      47.752   8.055  20.284  0.00  0.00    +0.000 NA
ATOM     19  C   UNL     1      48.232   7.630  19.146  0.00  0.00    +0.000 A 
ATOM     20  C   UNL     1      48.481   6.236  18.896  0.00  0.00    +0.000 A 
ENDBRANCH   9  12
ENDBRANCH   7  10
ENDBRANCH   1   7
BRANCH   4  21
ATOM     21  C   UNL     1      44.140   5.503  10.773  0.00  0.00    +0.000 C 
BRANCH  21  22
ATOM     22  N   UNL     1      44.638   5.061   9.475  0.00  0.00    +0.000 NA
ATOM     23  H   UNL     1      45.653   5.159   9.480  0.00  0.00    +0.000 HD
BRANCH  22  24
ATOM     24  CA  UNL     1      44.335   3.635   9.189  0.00  0.00    +0.000 C 
BRANCH  24  25
ATOM     25  C   UNL     1      45.499   2.984   8.432  0.00  0.00    +0.000 A 
ATOM     26  C   UNL     1      46.321   3.737   7.589  0.00  0.00    +0.000 A 
ATOM     27  C   UNL     1      47.305   3.097   6.841  0.00  0.00    +0.000 A 
ATOM     28  C   UNL     1      47.452   1.722   6.950  0.00  0.00    +0.000 A 
ATOM     29  C   UNL     1      46.618   1.046   7.824  0.00  0.00    +0.000 A 
ATOM     30  N   UNL     1      45.658   1.640   8.570  0.00  0.00    +0.000 NA
ENDBRANCH  24  25
BRANCH  24  31
ATOM     31  C   UNL     1      43.961   2.810  10.448  0.00  0.00    +0.000 C 
BRANCH  31  32
ATOM     32  O   UNL     1      45.121   2.442  11.204  0.00  0.00    +0.000 OA
ATOM     33  H   UNL     1      45.479   3.261  11.588  0.00  0.00    +0.000 HD
ENDBRANCH  31  32
ENDBRANCH  24  31
ENDBRANCH  22  24
ENDBRANCH  21  22
ENDBRANCH   4  21
TORSDOF 9
ENDMDL
MODEL 3
REMARK VINA RESULT:    -6.649      2.154      7.955
REMARK INTER + INTRA:         -11.280
REMARK INTER:                 -10.006
REMARK INTRA:                  -1.274
REMARK UNBOUND:                -1.326
REMARK  Name = 
REMARK  9 active torsions:
REMARK  status: ('A' for Active; 'I' for Inactive)
REMARK    1  A    between atoms: C_2  and  C_22
REMARK    2  A    between atoms: N_3  and  C_4
REMARK    3  A    between atoms: C_4  and  C_5
REMARK    4  A    between atoms: C_8  and  C_9
REMARK    5  A    between atoms: C_9  and  N_10
REMARK    6  A    between atoms: N_10  and  CA_11
REMARK    7  A    between atoms: CA_11  and  C_12
REMARK    8  A    between atoms: CA_11  and  C_14
REMARK    9  A    between atoms: C_12  and  O_13
REMARK                            x       y       z     vdW  Elec       q    Type
REMARK                         _______ _______ _______ _____ _____    ______ ____
ROOT
ATOM      1  C   UNL     1      48.425   7.976  13.625  0.00  0.00    +0.000 A 
ATOM      2  C   UNL     1      49.545   7.243  14.039  0.00  0.00    +0.000 A 
ATOM      3  C   UNL     1      49.981   7.300  15.366  0.00  0.00    +0.000 A 
ATOM      4  C   UNL     1      49.300   8.085  16.305  0.00  0.00    +0.000 A 
ATOM      5  C   UNL     1      48.174   8.811  15.892  0.00  0.00    +0.000 A 
ATOM      6  C   UNL     1      47.736   8.750  14.567  0.00  0.00    +0.000 A 
ENDROOT
BRANCH   1   7
ATOM      7  C   UNL     1      47.935   7.888  12.205  0.00  0.00    +0.000 C 
BRANCH   7  10
ATOM      8  O   UNL     1      45.178   7.501  12.438  0.00  0.00    +0.000 OA
ATOM      9  C   UNL     1      45.877   6.553  12.105  0.00  0.00    +0.000 C 
ATOM     10  N   UNL     1      47.244   6.641  11.987  0.00  0.00    +0.000 N 
ATOM     11  H   UNL     1      47.775   5.883  11.588  0.00  0.00    +0.000 HD
BRANCH   9  12
ATOM     12  C   UNL     1      45.321   5.246  11.805  0.00  0.00    +0.000 A 
ATOM     13  C   UNL     1      44.763   4.268  12.658  0.00  0.00    +0.000 A 
ATOM     14  N   UNL     1      44.361   3.168  12.020  0.00  0.00    +0.000 NA
ATOM     15  N   UNL     1      44.645   3.415  10.722  0.00  0.00    +0.000 N 
ATOM     16  C   UNL     1      44.445   2.601   9.622  0.00  0.00    +0.000 A 
ATOM     17  C   UNL     1      44.804   3.049   8.410  0.00  0.00    +0.000 A 
ATOM     18  N   UNL     1      45.362   4.293   8.189  0.00  0.00    +0.000 NA
ATOM     19  C   UNL     1      45.556   5.068   9.222  0.00  0.00    +0.000 A 
ATOM     20  C   UNL     1      45.210   4.661  10.557  0.00  0.00    +0.000 A 
ENDBRANCH   9  12
ENDBRANCH   7  10
ENDBRANCH   1   7
BRANCH   4  21
ATOM     21  C   UNL     1      49.766   8.147  17.742  0.00  0.00    +0.000 C 
BRANCH  21  22
ATOM     22  N   UNL     1      49.837   6.812  18.327  0.00  0.00    +0.000 NA
ATOM     23  H   UNL     1      49.885   6.917  19.340  0.00  0.00    +0.000 HD
BRANCH  22  24
ATOM     24  CA  UNL     1      48.645   5.980  18.025  0.00  0.00    +0.000 C 
BRANCH  24  25
ATOM     25  C   UNL     1      49.068   4.549  17.674  0.00  0.00    +0.000 A 
ATOM     26  C   UNL     1      50.382   4.117  17.876  0.00  0.00    +0.000 A 
ATOM     27  C   UNL     1      50.757   2.844  17.455  0.00  0.00    +0.000 A 
ATOM     28  C   UNL     1      49.818   2.028  16.842  0.00  0.00    +0.000 A 
ATOM     29  C   UNL     1      48.530   2.515  16.697  0.00  0.00    +0.000 A 
ATOM     30  N   UNL     1      48.132   3.743  17.104  0.00  0.00    +0.000 NA
ENDBRANCH  24  25
BRANCH  24  31
ATOM     31  C   UNL     1      47.579   5.981  19.153  0.00  0.00    +0.000 C 
BRANCH  31  32
ATOM     32  O   UNL     1      46.340   5.414  18.710  0.00  0.00    +0.000 OA
ATOM     33  H   UNL     1      46.333   4.486  19.003  0.00  0.00    +0.000 HD
ENDBRANCH  31  32
ENDBRANCH  24  31
ENDBRANCH  22  24
ENDBRANCH  21  22
ENDBRANCH   4  21
TORSDOF 9
ENDMDL
MODEL 4
REMARK VINA RESULT:    -6.538      2.853      8.069
REMARK INTER + INTRA:         -11.113
REMARK INTER:                  -9.333
REMARK INTRA:                  -1.781
REMARK UNBOUND:                -1.326
REMARK  Name = 
REMARK  9 active torsions:
REMARK  status: ('A' for Active; 'I' for Inactive)
REMARK    1  A    between atoms: C_2  and  C_22
REMARK    2  A    between atoms: N_3  and  C_4
REMARK    3  A    between atoms: C_4  and  C_5
REMARK    4  A    between atoms: C_8  and  C_9
REMARK    5  A    between atoms: C_9  and  N_10
REMARK    6  A    between atoms: N_10  and  CA_11
REMARK    7  A    between atoms: CA_11  and  C_12
REMARK    8  A    between atoms: CA_11  and  C_14
REMARK    9  A    between atoms: C_12  and  O_13
REMARK                            x       y       z     vdW  Elec       q    Type
REMARK                         _______ _______ _______ _____ _____    ______ ____
ROOT
ATOM      1  C   UNL     1      48.702   8.386  15.364  0.00  0.00    +0.000 A 
ATOM      2  C   UNL     1      49.911   7.697  15.531  0.00  0.00    +0.000 A 
ATOM      3  C   UNL     1      50.467   7.537  16.803  0.00  0.00    +0.000 A 
ATOM      4  C   UNL     1      49.822   8.056  17.933  0.00  0.00    +0.000 A 
ATOM      5  C   UNL     1      48.608   8.737  17.765  0.00  0.00    +0.000 A 
ATOM      6  C   UNL     1      48.050   8.893  16.495  0.00  0.00    +0.000 A 
ENDROOT
BRANCH   1   7
ATOM      7  C   UNL     1      48.085   8.530  13.999  0.00  0.00    +0.000 C 
BRANCH   7  10
ATOM      8  O   UNL     1      48.761   6.141  12.717  0.00  0.00    +0.000 OA
ATOM      9  C   UNL     1      47.614   6.286  13.118  0.00  0.00    +0.000 C 
ATOM     10  N   UNL     1      47.182   7.435  13.738  0.00  0.00    +0.000 N 
ATOM     11  H   UNL     1      46.272   7.475  14.170  0.00  0.00    +0.000 HD
BRANCH   9  12
ATOM     12  C   UNL     1      46.604   5.254  12.973  0.00  0.00    +0.000 A 
ATOM     13  C   UNL     1      46.634   3.886  13.322  0.00  0.00    +0.000 A 
ATOM     14  N   UNL     1      45.510   3.232  13.023  0.00  0.00    +0.000 NA
ATOM     15  N   UNL     1      44.713   4.177  12.475  0.00  0.00    +0.000 N 
ATOM     16  C   UNL     1      43.431   4.043  11.974  0.00  0.00    +0.000 A 
ATOM     17  C   UNL     1      42.817   5.123  11.470  0.00  0.00    +0.000 A 
ATOM     18  N   UNL     1      43.390   6.379  11.425  0.00  0.00    +0.000 NA
ATOM     19  C   UNL     1      44.602   6.514  11.894  0.00  0.00    +0.000 A 
ATOM     20  C   UNL     1      45.336   5.405  12.442  0.00  0.00    +0.000 A 
ENDBRANCH   9  12
ENDBRANCH   7  10
ENDBRANCH   1   7
BRANCH   4  21
ATOM     21  C   UNL     1      50.419   7.882  19.311  0.00  0.00    +0.000 C 
BRANCH  21  22
ATOM     22  N   UNL     1      50.551   6.469  19.649  0.00  0.00    +0.000 NA
ATOM     23  H   UNL     1      51.091   6.403  20.511  0.00  0.00    +0.000 HD
BRANCH  22  24
ATOM     24  CA  UNL     1      49.246   5.803  19.893  0.00  0.00    +0.000 C 
BRANCH  24  25
ATOM     25  C   UNL     1      48.891   4.880  18.721  0.00  0.00    +0.000 A 
ATOM     26  C   UNL     1      47.720   5.073  17.983  0.00  0.00    +0.000 A 
ATOM     27  C   UNL     1      47.378   4.159  16.990  0.00  0.00    +0.000 A 
ATOM     28  C   UNL     1      48.208   3.073  16.753  0.00  0.00    +0.000 A 
ATOM     29  C   UNL     1      49.363   2.961  17.507  0.00  0.00    +0.000 A 
ATOM     30  N   UNL     1      49.727   3.837  18.472  0.00  0.00    +0.000 NA
ENDBRANCH  24  25
BRANCH  24  31
ATOM     31  C   UNL     1      49.176   5.039  21.242  0.00  0.00    +0.000 C 
BRANCH  31  32
ATOM     32  O   UNL     1      48.303   3.905  21.163  0.00  0.00    +0.000 OA
ATOM     33  H   UNL     1      47.624   4.023  21.850  0.00  0.00    +0.000 HD
ENDBRANCH  31  32
ENDBRANCH  24  31
ENDBRANCH  22  24
ENDBRANCH  21  22
ENDBRANCH   4  21
TORSDOF 9
ENDMDL
MODEL 5
REMARK VINA RESULT:    -6.518      1.914      9.009
REMARK INTER + INTRA:         -11.083
REMARK INTER:                 -10.312
REMARK INTRA:                  -0.771
REMARK UNBOUND:                -1.326
REMARK  Name = 
REMARK  9 active torsions:
REMARK  status: ('A' for Active; 'I' for Inactive)
REMARK    1  A    between atoms: C_2  and  C_22
REMARK    2  A    between atoms: N_3  and  C_4
REMARK    3  A    between atoms: C_4  and  C_5
REMARK    4  A    between atoms: C_8  and  C_9
REMARK    5  A    between atoms: C_9  and  N_10
REMARK    6  A    between atoms: N_10  and  CA_11
REMARK    7  A    between atoms: CA_11  and  C_12
REMARK    8  A    between atoms: CA_11  and  C_14
REMARK    9  A    between atoms: C_12  and  O_13
REMARK                            x       y       z     vdW  Elec       q    Type
REMARK                         _______ _______ _______ _____ _____    ______ ____
ROOT
ATOM      1  C   UNL     1      44.921   5.909  11.568  0.00  0.00    +0.000 A 
ATOM      2  C   UNL     1      45.229   7.276  11.525  0.00  0.00    +0.000 A 
ATOM      3  C   UNL     1      46.239   7.802  12.335  0.00  0.00    +0.000 A 
ATOM      4  C   UNL     1      46.967   6.970  13.195  0.00  0.00    +0.000 A 
ATOM      5  C   UNL     1      46.665   5.602  13.229  0.00  0.00    +0.000 A 
ATOM      6  C   UNL     1      45.658   5.075  12.418  0.00  0.00    +0.000 A 
ENDROOT
BRANCH   1   7
ATOM      7  C   UNL     1      43.855   5.336  10.672  0.00  0.00    +0.000 C 
BRANCH   7  10
ATOM      8  O   UNL     1      45.610   5.254   8.500  0.00  0.00    +0.000 OA
ATOM      9  C   UNL     1      45.215   4.196   8.975  0.00  0.00    +0.000 C 
ATOM     10  N   UNL     1      44.332   4.138  10.027  0.00  0.00    +0.000 N 
ATOM     11  H   UNL     1      44.127   3.259  10.477  0.00  0.00    +0.000 HD
BRANCH   9  12
ATOM     12  C   UNL     1      45.645   2.907   8.465  0.00  0.00    +0.000 A 
ATOM     13  C   UNL     1      45.477   1.609   8.996  0.00  0.00    +0.000 A 
ATOM     14  N   UNL     1      46.026   0.650   8.247  0.00  0.00    +0.000 NA
ATOM     15  N   UNL     1      46.560   1.314   7.198  0.00  0.00    +0.000 N 
ATOM     16  C   UNL     1      47.262   0.806   6.119  0.00  0.00    +0.000 A 
ATOM     17  C   UNL     1      47.708   1.653   5.180  0.00  0.00    +0.000 A 
ATOM     18  N   UNL     1      47.501   3.018   5.220  0.00  0.00    +0.000 NA
ATOM     19  C   UNL     1      46.839   3.507   6.235  0.00  0.00    +0.000 A 
ATOM     20  C   UNL     1      46.337   2.670   7.291  0.00  0.00    +0.000 A 
ENDBRANCH   9  12
ENDBRANCH   7  10
ENDBRANCH   1   7
BRANCH   4  21
ATOM     21  C   UNL     1      48.064   7.534  14.069  0.00  0.00    +0.000 C 
BRANCH  21  22
ATOM     22  N   UNL     1      48.944   6.475  14.553  0.00  0.00    +0.000 NA
ATOM     23  H   UNL     1      49.816   6.529  14.027  0.00  0.00    +0.000 HD
BRANCH  22  24
ATOM     24  CA  UNL     1      49.286   6.613  15.991  0.00  0.00    +0.000 C 
BRANCH  24  25
ATOM     25  C   UNL     1      48.938   5.326  16.748  0.00  0.00    +0.000 A 
ATOM     26  C   UNL     1      47.703   4.697  16.568  0.00  0.00    +0.000 A 
ATOM     27  C   UNL     1      47.381   3.586  17.344  0.00  0.00    +0.000 A 
ATOM     28  C   UNL     1      48.294   3.126  18.281  0.00  0.00    +0.000 A 
ATOM     29  C   UNL     1      49.506   3.785  18.386  0.00  0.00    +0.000 A 
ATOM     30  N   UNL     1      49.852   4.861  17.641  0.00  0.00    +0.000 NA
ENDBRANCH  24  25
BRANCH  24  31
ATOM     31  C   UNL     1      50.760   7.026  16.247  0.00  0.00    +0.000 C 
BRANCH  31  32
ATOM     32  O   UNL     1      50.846   8.232  17.016  0.00  0.00    +0.000 OA
ATOM     33  H   UNL     1      51.554   8.770  16.620  0.00  0.00    +0.000 HD
ENDBRANCH  31  32
ENDBRANCH  24  31
ENDBRANCH  22  24
ENDBRANCH  21  22
ENDBRANCH   4  21
TORSDOF 9
ENDMDL
MODEL 6
REMARK VINA RESULT:    -6.383      3.573      4.594
REMARK INTER + INTRA:         -10.881
REMARK INTER:                 -10.101
REMARK INTRA:                  -0.780
REMARK UNBOUND:                -1.326
REMARK  Name = 
REMARK  9 active torsions:
REMARK  status: ('A' for Active; 'I' for Inactive)
REMARK    1  A    between atoms: C_2  and  C_22
REMARK    2  A    between atoms: N_3  and  C_4
REMARK    3  A    between atoms: C_4  and  C_5
REMARK    4  A    between atoms: C_8  and  C_9
REMARK    5  A    between atoms: C_9  and  N_10
REMARK    6  A    between atoms: N_10  and  CA_11
REMARK    7  A    between atoms: CA_11  and  C_12
REMARK    8  A    between atoms: CA_11  and  C_14
REMARK    9  A    between atoms: C_12  and  O_13
REMARK                            x       y       z     vdW  Elec       q    Type
REMARK                         _______ _______ _______ _____ _____    ______ ____
ROOT
ATOM      1  C   UNL     1      48.217   5.137  16.186  0.00  0.00    +0.000 A 
ATOM      2  C   UNL     1      47.275   4.261  15.632  0.00  0.00    +0.000 A 
ATOM      3  C   UNL     1      46.699   4.532  14.388  0.00  0.00    +0.000 A 
ATOM      4  C   UNL     1      47.061   5.679  13.670  0.00  0.00    +0.000 A 
ATOM      5  C   UNL     1      48.012   6.549  14.221  0.00  0.00    +0.000 A 
ATOM      6  C   UNL     1      48.590   6.277  15.463  0.00  0.00    +0.000 A 
ENDROOT
BRANCH   1   7
ATOM      7  C   UNL     1      48.863   4.829  17.511  0.00  0.00    +0.000 C 
BRANCH   7  10
ATOM      8  O   UNL     1      46.485   5.467  18.832  0.00  0.00    +0.000 OA
ATOM      9  C   UNL     1      47.477   6.152  19.047  0.00  0.00    +0.000 C 
ATOM     10  N   UNL     1      48.683   5.929  18.426  0.00  0.00    +0.000 N 
ATOM     11  H   UNL     1      49.511   6.426  18.718  0.00  0.00    +0.000 HD
BRANCH   9  12
ATOM     12  C   UNL     1      47.466   7.264  19.979  0.00  0.00    +0.000 A 
ATOM     13  C   UNL     1      47.426   7.277  21.391  0.00  0.00    +0.000 A 
ATOM     14  N   UNL     1      47.414   8.504  21.915  0.00  0.00    +0.000 NA
ATOM     15  N   UNL     1      47.455   9.323  20.841  0.00  0.00    +0.000 N 
ATOM     16  C   UNL     1      47.450  10.706  20.806  0.00  0.00    +0.000 A 
ATOM     17  C   UNL     1      47.496  11.325  19.618  0.00  0.00    +0.000 A 
ATOM     18  N   UNL     1      47.555  10.658  18.409  0.00  0.00    +0.000 NA
ATOM     19  C   UNL     1      47.558   9.352  18.432  0.00  0.00    +0.000 A 
ATOM     20  C   UNL     1      47.500   8.610  19.663  0.00  0.00    +0.000 A 
ENDBRANCH   9  12
ENDBRANCH   7  10
ENDBRANCH   1   7
BRANCH   4  21
ATOM     21  C   UNL     1      46.444   5.974  12.322  0.00  0.00    +0.000 C 
BRANCH  21  22
ATOM     22  N   UNL     1      45.432   4.980  11.982  0.00  0.00    +0.000 NA
ATOM     23  H   UNL     1      44.733   4.978  12.725  0.00  0.00    +0.000 HD
BRANCH  22  24
ATOM     24  CA  UNL     1      44.724   5.279  10.711  0.00  0.00    +0.000 C 
BRANCH  24  25
ATOM     25  C   UNL     1      45.129   4.276   9.625  0.00  0.00    +0.000 A 
ATOM     26  C   UNL     1      44.905   2.906   9.791  0.00  0.00    +0.000 A 
ATOM     27  C   UNL     1      45.374   2.015   8.830  0.00  0.00    +0.000 A 
ATOM     28  C   UNL     1      46.055   2.504   7.725  0.00  0.00    +0.000 A 
ATOM     29  C   UNL     1      46.218   3.875   7.616  0.00  0.00    +0.000 A 
ATOM     30  N   UNL     1      45.767   4.767   8.528  0.00  0.00    +0.000 NA
ENDBRANCH  24  25
BRANCH  24  31
ATOM     31  C   UNL     1      43.180   5.347  10.856  0.00  0.00    +0.000 C 
BRANCH  31  32
ATOM     32  O   UNL     1      42.730   6.684  11.102  0.00  0.00    +0.000 OA
ATOM     33  H   UNL     1      43.192   7.259  10.467  0.00  0.00    +0.000 HD
ENDBRANCH  31  32
ENDBRANCH  24  31
ENDBRANCH  22  24
ENDBRANCH  21  22
ENDBRANCH   4  21
TORSDOF 9
ENDMDL
MODEL 7
REMARK VINA RESULT:    -6.379      2.557      7.859
REMARK INTER + INTRA:         -10.874
REMARK INTER:                  -9.270
REMARK INTRA:                  -1.604
REMARK UNBOUND:                -1.326
REMARK  Name = 
REMARK  9 active torsions:
REMARK  status: ('A' for Active; 'I' for Inactive)
REMARK    1  A    between atoms: C_2  and  C_22
REMARK    2  A    between atoms: N_3  and  C_4
REMARK    3  A    between atoms: C_4  and  C_5
REMARK    4  A    between atoms: C_8  and  C_9
REMARK    5  A    between atoms: C_9  and  N_10
REMARK    6  A    between atoms: N_10  and  CA_11
REMARK    7  A    between atoms: CA_11  and  C_12
REMARK    8  A    between atoms: CA_11  and  C_14
REMARK    9  A    between atoms: C_12  and  O_13
REMARK                            x       y       z     vdW  Elec       q    Type
REMARK                         _______ _______ _______ _____ _____    ______ ____
ROOT
ATOM      1  C   UNL     1      48.371   8.258  14.197  0.00  0.00    +0.000 A 
ATOM      2  C   UNL     1      48.911   7.007  14.525  0.00  0.00    +0.000 A 
ATOM      3  C   UNL     1      49.194   6.682  15.854  0.00  0.00    +0.000 A 
ATOM      4  C   UNL     1      48.935   7.597  16.881  0.00  0.00    +0.000 A 
ATOM      5  C   UNL     1      48.386   8.845  16.553  0.00  0.00    +0.000 A 
ATOM      6  C   UNL     1      48.099   9.168  15.225  0.00  0.00    +0.000 A 
ENDROOT
BRANCH   1   7
ATOM      7  C   UNL     1      48.034   8.596  12.769  0.00  0.00    +0.000 C 
BRANCH   7  10
ATOM      8  O   UNL     1      45.299   8.069  12.553  0.00  0.00    +0.000 OA
ATOM      9  C   UNL     1      46.089   7.291  12.032  0.00  0.00    +0.000 C 
ATOM     10  N   UNL     1      47.452   7.455  12.106  0.00  0.00    +0.000 N 
ATOM     11  H   UNL     1      48.069   6.873  11.561  0.00  0.00    +0.000 HD
BRANCH   9  12
ATOM     12  C   UNL     1      45.653   6.124  11.288  0.00  0.00    +0.000 A 
ATOM     13  C   UNL     1      45.860   5.767   9.937  0.00  0.00    +0.000 A 
ATOM     14  N   UNL     1      45.291   4.610   9.596  0.00  0.00    +0.000 NA
ATOM     15  N   UNL     1      44.703   4.181  10.735  0.00  0.00    +0.000 N 
ATOM     16  C   UNL     1      43.961   3.033  10.947  0.00  0.00    +0.000 A 
ATOM     17  C   UNL     1      43.464   2.800  12.170  0.00  0.00    +0.000 A 
ATOM     18  N   UNL     1      43.656   3.643  13.248  0.00  0.00    +0.000 NA
ATOM     19  C   UNL     1      44.354   4.729  13.057  0.00  0.00    +0.000 A 
ATOM     20  C   UNL     1      44.913   5.061  11.774  0.00  0.00    +0.000 A 
ENDBRANCH   9  12
ENDBRANCH   7  10
ENDBRANCH   1   7
BRANCH   4  21
ATOM     21  C   UNL     1      49.236   7.249  18.321  0.00  0.00    +0.000 C 
BRANCH  21  22
ATOM     22  N   UNL     1      48.016   6.901  19.041  0.00  0.00    +0.000 NA
ATOM     23  H   UNL     1      47.241   6.937  18.378  0.00  0.00    +0.000 HD
BRANCH  22  24
ATOM     24  CA  UNL     1      48.045   5.530  19.611  0.00  0.00    +0.000 C 
BRANCH  24  25
ATOM     25  C   UNL     1      48.065   4.486  18.489  0.00  0.00    +0.000 A 
ATOM     26  C   UNL     1      49.168   3.648  18.306  0.00  0.00    +0.000 A 
ATOM     27  C   UNL     1      49.195   2.779  17.219  0.00  0.00    +0.000 A 
ATOM     28  C   UNL     1      48.124   2.762  16.338  0.00  0.00    +0.000 A 
ATOM     29  C   UNL     1      47.055   3.603  16.597  0.00  0.00    +0.000 A 
ATOM     30  N   UNL     1      46.996   4.451  17.650  0.00  0.00    +0.000 NA
ENDBRANCH  24  25
BRANCH  24  31
ATOM     31  C   UNL     1      49.208   5.293  20.611  0.00  0.00    +0.000 C 
BRANCH  31  32
ATOM     32  O   UNL     1      48.760   5.362  21.970  0.00  0.00    +0.000 OA
ATOM     33  H   UNL     1      49.285   6.056  22.406  0.00  0.00    +0.000 HD
ENDBRANCH  31  32
ENDBRANCH  24  31
ENDBRANCH  22  24
ENDBRANCH  21  22
ENDBRANCH   4  21
TORSDOF 9
ENDMDL
MODEL 8
REMARK VINA RESULT:    -6.161      2.340      8.491
REMARK INTER + INTRA:         -10.549
REMARK INTER:                  -8.960
REMARK INTRA:                  -1.588
REMARK UNBOUND:                -1.326
REMARK  Name = 
REMARK  9 active torsions:
REMARK  status: ('A' for Active; 'I' for Inactive)
REMARK    1  A    between atoms: C_2  and  C_22
REMARK    2  A    between atoms: N_3  and  C_4
REMARK    3  A    between atoms: C_4  and  C_5
REMARK    4  A    between atoms: C_8  and  C_9
REMARK    5  A    between atoms: C_9  and  N_10
REMARK    6  A    between atoms: N_10  and  CA_11
REMARK    7  A    between atoms: CA_11  and  C_12
REMARK    8  A    between atoms: CA_11  and  C_14
REMARK    9  A    between atoms: C_12  and  O_13
REMARK                            x       y       z     vdW  Elec       q    Type
REMARK                         _______ _______ _______ _____ _____    ______ ____
ROOT
ATOM      1  C   UNL     1      48.283   8.106  14.787  0.00  0.00    +0.000 A 
ATOM      2  C   UNL     1      48.225   8.837  15.982  0.00  0.00    +0.000 A 
ATOM      3  C   UNL     1      49.140   8.591  17.009  0.00  0.00    +0.000 A 
ATOM      4  C   UNL     1      50.135   7.617  16.859  0.00  0.00    +0.000 A 
ATOM      5  C   UNL     1      50.198   6.894  15.660  0.00  0.00    +0.000 A 
ATOM      6  C   UNL     1      49.286   7.142  14.631  0.00  0.00    +0.000 A 
ENDROOT
BRANCH   1   7
ATOM      7  C   UNL     1      47.319   8.393  13.667  0.00  0.00    +0.000 C 
BRANCH   7  10
ATOM      8  O   UNL     1      45.286   8.242  11.756  0.00  0.00    +0.000 OA
ATOM      9  C   UNL     1      45.611   7.221  12.348  0.00  0.00    +0.000 C 
ATOM     10  N   UNL     1      46.582   7.202  13.321  0.00  0.00    +0.000 N 
ATOM     11  H   UNL     1      46.916   6.327  13.696  0.00  0.00    +0.000 HD
BRANCH   9  12
ATOM     12  C   UNL     1      44.995   5.936  12.074  0.00  0.00    +0.000 A 
ATOM     13  C   UNL     1      44.209   5.100  12.899  0.00  0.00    +0.000 A 
ATOM     14  N   UNL     1      43.822   3.971  12.303  0.00  0.00    +0.000 NA
ATOM     15  N   UNL     1      44.347   4.056  11.060  0.00  0.00    +0.000 N 
ATOM     16  C   UNL     1      44.264   3.145  10.022  0.00  0.00    +0.000 A 
ATOM     17  C   UNL     1      44.867   3.432   8.860  0.00  0.00    +0.000 A 
ATOM     18  N   UNL     1      45.570   4.599   8.629  0.00  0.00    +0.000 NA
ATOM     19  C   UNL     1      45.654   5.464   9.604  0.00  0.00    +0.000 A 
ATOM     20  C   UNL     1      45.046   5.229  10.886  0.00  0.00    +0.000 A 
ENDBRANCH   9  12
ENDBRANCH   7  10
ENDBRANCH   1   7
BRANCH   4  21
ATOM     21  C   UNL     1      51.129   7.352  17.967  0.00  0.00    +0.000 C 
BRANCH  21  22
ATOM     22  N   UNL     1      50.469   6.777  19.135  0.00  0.00    +0.000 NA
ATOM     23  H   UNL     1      49.472   6.979  19.061  0.00  0.00    +0.000 HD
BRANCH  22  24
ATOM     24  CA  UNL     1      50.615   5.302  19.221  0.00  0.00    +0.000 C 
BRANCH  24  25
ATOM     25  C   UNL     1      49.513   4.609  18.412  0.00  0.00    +0.000 A 
ATOM     26  C   UNL     1      48.204   5.098  18.413  0.00  0.00    +0.000 A 
ATOM     27  C   UNL     1      47.207   4.388  17.749  0.00  0.00    +0.000 A 
ATOM     28  C   UNL     1      47.535   3.209  17.096  0.00  0.00    +0.000 A 
ATOM     29  C   UNL     1      48.857   2.800  17.117  0.00  0.00    +0.000 A 
ATOM     30  N   UNL     1      49.849   3.471  17.746  0.00  0.00    +0.000 NA
ENDBRANCH  24  25
BRANCH  24  31
ATOM     31  C   UNL     1      52.018   4.787  18.802  0.00  0.00    +0.000 C 
BRANCH  31  32
ATOM     32  O   UNL     1      52.300   3.501  19.369  0.00  0.00    +0.000 OA
ATOM     33  H   UNL     1      52.910   3.648  20.113  0.00  0.00    +0.000 HD
ENDBRANCH  31  32
ENDBRANCH  24  31
ENDBRANCH  22  24
ENDBRANCH  21  22
ENDBRANCH   4  21
TORSDOF 9
ENDMDL
MODEL 9
REMARK VINA RESULT:    -6.141      3.089      3.273
REMARK INTER + INTRA:         -10.519
REMARK INTER:                  -9.774
REMARK INTRA:                  -0.745
REMARK UNBOUND:                -1.326
REMARK  Name = 
REMARK  9 active torsions:
REMARK  status: ('A' for Active; 'I' for Inactive)
REMARK    1  A    between atoms: C_2  and  C_22
REMARK    2  A    between atoms: N_3  and  C_4
REMARK    3  A    between atoms: C_4  and  C_5
REMARK    4  A    between atoms: C_8  and  C_9
REMARK    5  A    between atoms: C_9  and  N_10
REMARK    6  A    between atoms: N_10  and  CA_11
REMARK    7  A    between atoms: CA_11  and  C_12
REMARK    8  A    between atoms: CA_11  and  C_14
REMARK    9  A    between atoms: C_12  and  O_13
REMARK                            x       y       z     vdW  Elec       q    Type
REMARK                         _______ _______ _______ _____ _____    ______ ____
ROOT
ATOM      1  C   UNL     1      47.533   8.253  13.746  0.00  0.00    +0.000 A 
ATOM      2  C   UNL     1      47.763   6.887  13.533  0.00  0.00    +0.000 A 
ATOM      3  C   UNL     1      46.820   6.104  12.861  0.00  0.00    +0.000 A 
ATOM      4  C   UNL     1      45.634   6.674  12.382  0.00  0.00    +0.000 A 
ATOM      5  C   UNL     1      45.410   8.043  12.587  0.00  0.00    +0.000 A 
ATOM      6  C   UNL     1      46.354   8.826  13.255  0.00  0.00    +0.000 A 
ENDROOT
BRANCH   1   7
ATOM      7  C   UNL     1      48.564   9.103  14.440  0.00  0.00    +0.000 C 
BRANCH   7  10
ATOM      8  O   UNL     1      49.118   7.718  16.802  0.00  0.00    +0.000 OA
ATOM      9  C   UNL     1      48.448   8.741  16.866  0.00  0.00    +0.000 C 
ATOM     10  N   UNL     1      48.104   9.475  15.756  0.00  0.00    +0.000 N 
ATOM     11  H   UNL     1      47.665  10.378  15.853  0.00  0.00    +0.000 HD
BRANCH   9  12
ATOM     12  C   UNL     1      47.956   9.269  18.125  0.00  0.00    +0.000 A 
ATOM     13  C   UNL     1      47.541  10.574  18.472  0.00  0.00    +0.000 A 
ATOM     14  N   UNL     1      47.159  10.693  19.745  0.00  0.00    +0.000 NA
ATOM     15  N   UNL     1      47.310   9.450  20.254  0.00  0.00    +0.000 N 
ATOM     16  C   UNL     1      47.068   9.006  21.541  0.00  0.00    +0.000 A 
ATOM     17  C   UNL     1      47.289   7.717  21.835  0.00  0.00    +0.000 A 
ATOM     18  N   UNL     1      47.742   6.789  20.916  0.00  0.00    +0.000 NA
ATOM     19  C   UNL     1      47.974   7.199  19.698  0.00  0.00    +0.000 A 
ATOM     20  C   UNL     1      47.774   8.568  19.303  0.00  0.00    +0.000 A 
ENDBRANCH   9  12
ENDBRANCH   7  10
ENDBRANCH   1   7
BRANCH   4  21
ATOM     21  C   UNL     1      44.612   5.832  11.652  0.00  0.00    +0.000 C 
BRANCH  21  22
ATOM     22  N   UNL     1      45.069   4.452  11.521  0.00  0.00    +0.000 NA
ATOM     23  H   UNL     1      44.941   3.995  12.424  0.00  0.00    +0.000 HD
BRANCH  22  24
ATOM     24  CA  UNL     1      44.298   3.675  10.519  0.00  0.00    +0.000 C 
BRANCH  24  25
ATOM     25  C   UNL     1      45.195   3.290   9.336  0.00  0.00    +0.000 A 
ATOM     26  C   UNL     1      45.644   4.256   8.431  0.00  0.00    +0.000 A 
ATOM     27  C   UNL     1      46.374   3.859   7.314  0.00  0.00    +0.000 A 
ATOM     28  C   UNL     1      46.643   2.511   7.122  0.00  0.00    +0.000 A 
ATOM     29  C   UNL     1      46.187   1.616   8.075  0.00  0.00    +0.000 A 
ATOM     30  N   UNL     1      45.482   1.971   9.174  0.00  0.00    +0.000 NA
ENDBRANCH  24  25
BRANCH  24  31
ATOM     31  C   UNL     1      43.589   2.426  11.106  0.00  0.00    +0.000 C 
BRANCH  31  32
ATOM     32  O   UNL     1      43.691   2.382  12.535  0.00  0.00    +0.000 OA
ATOM     33  H   UNL     1      43.464   3.271  12.861  0.00  0.00    +0.000 HD
ENDBRANCH  31  32
ENDBRANCH  24  31
ENDBRANCH  22  24
ENDBRANCH  21  22
ENDBRANCH   4  21
TORSDOF 9
ENDMDL
