MODEL 1
REMARK VINA RESULT:    -7.271      0.000      0.000
REMARK INTER + INTRA:         -11.074
REMARK INTER:                 -10.247
REMARK INTRA:                  -0.827
REMARK UNBOUND:                -0.827
REMARK  Name = 
REMARK  9 active torsions:
REMARK  status: ('A' for Active; 'I' for Inactive)
REMARK    1  A    between atoms: C_1  and  C_2
REMARK    2  A    between atoms: C_5  and  C_6
REMARK    3  A    between atoms: C_6  and  C_7
REMARK    4  A    between atoms: C_6  and  C_8
REMARK    5  A    between atoms: C_8  and  O_9
REMARK    6  A    between atoms: O_9  and  C_10
REMARK    7  A    between atoms: C_14  and  O_15
REMARK    8  A    between atoms: O_15  and  C_16
REMARK    9  A    between atoms: C_22  and  C_23
REMARK                            x       y       z     vdW  Elec       q    Type
REMARK                         _______ _______ _______ _____ _____    ______ ____
ROOT
ATOM      1  C   UNL     1      46.748   7.127  12.729  0.00  0.00    +0.000 C 
ATOM      2  C   UNL     1      47.719   7.295  11.550  0.00  0.00    +0.000 C 
ENDROOT
BRANCH   1   7
ATOM      3  C   UNL     1      49.580   5.385  17.471  0.00  0.00    +0.000 C 
ATOM      4  C   UNL     1      48.806   5.750  16.239  0.00  0.00    +0.000 A 
ATOM      5  C   UNL     1      48.926   7.033  15.720  0.00  0.00    +0.000 A 
ATOM      6  N   UNL     1      48.296   7.473  14.610  0.00  0.00    +0.000 NA
ATOM      7  C   UNL     1      47.465   6.619  13.970  0.00  0.00    +0.000 A 
ATOM      8  C   UNL     1      47.282   5.310  14.408  0.00  0.00    +0.000 A 
ATOM      9  C   UNL     1      47.962   4.864  15.551  0.00  0.00    +0.000 A 
BRANCH   9  10
ATOM     10  C   UNL     1      47.741   3.472  16.044  0.00  0.00    +0.000 C 
ATOM     11  N   UNL     1      46.863   3.293  17.079  0.00  0.00    +0.000 N 
ATOM     12  O   UNL     1      48.301   2.501  15.556  0.00  0.00    +0.000 OA
ATOM     13  H   UNL     1      46.229   4.015  17.404  0.00  0.00    +0.000 HD
ATOM     14  H   UNL     1      46.671   2.337  17.347  0.00  0.00    +0.000 HD
ENDBRANCH   9  10
ENDBRANCH   1   7
BRANCH   1  15
ATOM     15  C   UNL     1      45.630   6.159  12.315  0.00  0.00    +0.000 C 
BRANCH  15  16
ATOM     16  O   UNL     1      45.378   6.246  10.905  0.00  0.00    +0.000 OA
BRANCH  16  17
ATOM     17  C   UNL     1      45.140   5.051  10.276  0.00  0.00    +0.000 A 
ATOM     18  C   UNL     1      44.385   3.999  10.797  0.00  0.00    +0.000 A 
ATOM     19  C   UNL     1      44.187   2.835  10.045  0.00  0.00    +0.000 A 
ATOM     20  C   UNL     1      44.743   2.712   8.773  0.00  0.00    +0.000 A 
ATOM     21  C   UNL     1      45.507   3.754   8.252  0.00  0.00    +0.000 A 
ATOM     22  C   UNL     1      45.687   4.924   8.997  0.00  0.00    +0.000 A 
BRANCH  21  23
ATOM     23  O   UNL     1      46.093   3.753   7.010  0.00  0.00    +0.000 OA
BRANCH  23  24
ATOM     24  C   UNL     1      46.606   2.510   6.473  0.00  0.00    +0.000 C 
ATOM     25  C   UNL     1      48.061   2.123   6.803  0.00  0.00    +0.000 C 
ATOM     26  N   UNL     1      48.357   1.942   5.375  0.00  0.00    +0.000 NA
ATOM     27  C   UNL     1      47.088   2.586   5.009  0.00  0.00    +0.000 C 
ATOM     28  H   UNL     1      48.429   0.969   5.081  0.00  0.00    +0.000 HD
ENDBRANCH  23  24
ENDBRANCH  21  23
ENDBRANCH  16  17
ENDBRANCH  15  16
ENDBRANCH   1  15
TORSDOF 7
ENDMDL
MODEL 2
REMARK VINA RESULT:    -6.826      2.019      3.489
REMARK INTER + INTRA:         -10.446
REMARK INTER:                  -9.600
REMARK INTRA:                  -0.846
REMARK UNBOUND:                -0.827
REMARK  Name = 
REMARK  9 active torsions:
REMARK  status: ('A' for Active; 'I' for Inactive)
REMARK    1  A    between atoms: C_1  and  C_2
REMARK    2  A    between atoms: C_5  and  C_6
REMARK    3  A    between atoms: C_6  and  C_7
REMARK    4  A    between atoms: C_6  and  C_8
REMARK    5  A    between atoms: C_8  and  O_9
REMARK    6  A    between atoms: O_9  and  C_10
REMARK    7  A    between atoms: C_14  and  O_15
REMARK    8  A    between atoms: O_15  and  C_16
REMARK    9  A    between atoms: C_22  and  C_23
REMARK                            x       y       z     vdW  Elec       q    Type
REMARK                         _______ _______ _______ _____ _____    ______ ____
ROOT
ATOM      1  C   UNL     1      46.651   5.423  12.672  0.00  0.00    +0.000 C 
ATOM      2  C   UNL     1      46.422   4.345  13.742  0.00  0.00    +0.000 C 
ENDROOT
BRANCH   1   7
ATOM      3  C   UNL     1      50.973   8.892  14.352  0.00  0.00    +0.000 C 
ATOM      4  C   UNL     1      49.857   8.037  13.832  0.00  0.00    +0.000 A 
ATOM      5  C   UNL     1      49.315   7.057  14.655  0.00  0.00    +0.000 A 
ATOM      6  N   UNL     1      48.299   6.239  14.307  0.00  0.00    +0.000 NA
ATOM      7  C   UNL     1      47.786   6.357  13.061  0.00  0.00    +0.000 A 
ATOM      8  C   UNL     1      48.256   7.313  12.164  0.00  0.00    +0.000 A 
ATOM      9  C   UNL     1      49.298   8.169  12.551  0.00  0.00    +0.000 A 
BRANCH   9  10
ATOM     10  C   UNL     1      49.828   9.171  11.580  0.00  0.00    +0.000 C 
ATOM     11  N   UNL     1      49.050  10.262  11.298  0.00  0.00    +0.000 N 
ATOM     12  O   UNL     1      50.921   9.058  11.043  0.00  0.00    +0.000 OA
ATOM     13  H   UNL     1      48.229  10.516  11.837  0.00  0.00    +0.000 HD
ATOM     14  H   UNL     1      49.459  10.964  10.697  0.00  0.00    +0.000 HD
ENDBRANCH   9  10
ENDBRANCH   1   7
BRANCH   1  15
ATOM     15  C   UNL     1      45.345   6.209  12.475  0.00  0.00    +0.000 C 
BRANCH  15  16
ATOM     16  O   UNL     1      45.012   6.301  11.083  0.00  0.00    +0.000 OA
BRANCH  16  17
ATOM     17  C   UNL     1      44.901   5.103  10.425  0.00  0.00    +0.000 A 
ATOM     18  C   UNL     1      44.160   4.005  10.865  0.00  0.00    +0.000 A 
ATOM     19  C   UNL     1      44.098   2.842  10.089  0.00  0.00    +0.000 A 
ATOM     20  C   UNL     1      44.776   2.766   8.873  0.00  0.00    +0.000 A 
ATOM     21  C   UNL     1      45.526   3.854   8.434  0.00  0.00    +0.000 A 
ATOM     22  C   UNL     1      45.570   5.023   9.201  0.00  0.00    +0.000 A 
BRANCH  21  23
ATOM     23  O   UNL     1      46.224   3.901   7.253  0.00  0.00    +0.000 OA
BRANCH  23  24
ATOM     24  C   UNL     1      46.625   2.663   6.621  0.00  0.00    +0.000 C 
ATOM     25  C   UNL     1      48.054   2.145   6.881  0.00  0.00    +0.000 C 
ATOM     26  N   UNL     1      48.299   2.038   5.435  0.00  0.00    +0.000 NA
ATOM     27  C   UNL     1      47.075   2.800   5.150  0.00  0.00    +0.000 C 
ATOM     28  H   UNL     1      48.288   1.085   5.076  0.00  0.00    +0.000 HD
ENDBRANCH  23  24
ENDBRANCH  21  23
ENDBRANCH  16  17
ENDBRANCH  15  16
ENDBRANCH   1  15
TORSDOF 7
ENDMDL
MODEL 3
REMARK VINA RESULT:    -6.805      3.392      5.607
REMARK INTER + INTRA:         -10.416
REMARK INTER:                  -9.543
REMARK INTRA:                  -0.873
REMARK UNBOUND:                -0.827
REMARK  Name = 
REMARK  9 active torsions:
REMARK  status: ('A' for Active; 'I' for Inactive)
REMARK    1  A    between atoms: C_1  and  C_2
REMARK    2  A    between atoms: C_5  and  C_6
REMARK    3  A    between atoms: C_6  and  C_7
REMARK    4  A    between atoms: C_6  and  C_8
REMARK    5  A    between atoms: C_8  and  O_9
REMARK    6  A    between atoms: O_9  and  C_10
REMARK    7  A    between atoms: C_14  and  O_15
REMARK    8  A    between atoms: O_15  and  C_16
REMARK    9  A    between atoms: C_22  and  C_23
REMARK                            x       y       z     vdW  Elec       q    Type
REMARK                         _______ _______ _______ _____ _____    ______ ____
ROOT
ATOM      1  C   UNL     1      47.652   3.482  16.894  0.00  0.00    +0.000 C 
ATOM      2  C   UNL     1      47.201   4.655  17.778  0.00  0.00    +0.000 C 
ENDROOT
BRANCH   1   7
ATOM      3  C   UNL     1      53.123   1.842  17.851  0.00  0.00    +0.000 C 
ATOM      4  C   UNL     1      51.724   2.346  17.653  0.00  0.00    +0.000 A 
ATOM      5  C   UNL     1      50.838   1.598  16.889  0.00  0.00    +0.000 A 
ATOM      6  N   UNL     1      49.552   1.938  16.653  0.00  0.00    +0.000 NA
ATOM      7  C   UNL     1      49.097   3.100  17.174  0.00  0.00    +0.000 A 
ATOM      8  C   UNL     1      49.906   3.917  17.960  0.00  0.00    +0.000 A 
ATOM      9  C   UNL     1      51.233   3.537  18.211  0.00  0.00    +0.000 A 
BRANCH   9  10
ATOM     10  C   UNL     1      52.113   4.427  19.024  0.00  0.00    +0.000 C 
ATOM     11  N   UNL     1      52.139   4.236  20.378  0.00  0.00    +0.000 N 
ATOM     12  O   UNL     1      52.809   5.301  18.526  0.00  0.00    +0.000 OA
ATOM     13  H   UNL     1      51.741   3.422  20.835  0.00  0.00    +0.000 HD
ATOM     14  H   UNL     1      52.798   4.798  20.901  0.00  0.00    +0.000 HD
ENDBRANCH   9  10
ENDBRANCH   1   7
BRANCH   1  15
ATOM     15  C   UNL     1      47.472   3.877  15.419  0.00  0.00    +0.000 C 
BRANCH  15  16
ATOM     16  O   UNL     1      47.886   5.233  15.201  0.00  0.00    +0.000 OA
BRANCH  16  17
ATOM     17  C   UNL     1      47.573   5.751  13.971  0.00  0.00    +0.000 A 
ATOM     18  C   UNL     1      48.323   6.706  13.282  0.00  0.00    +0.000 A 
ATOM     19  C   UNL     1      47.917   7.137  12.013  0.00  0.00    +0.000 A 
ATOM     20  C   UNL     1      46.761   6.622  11.427  0.00  0.00    +0.000 A 
ATOM     21  C   UNL     1      46.003   5.678  12.115  0.00  0.00    +0.000 A 
ATOM     22  C   UNL     1      46.422   5.233  13.374  0.00  0.00    +0.000 A 
BRANCH  21  23
ATOM     23  O   UNL     1      44.857   5.092  11.637  0.00  0.00    +0.000 OA
BRANCH  23  24
ATOM     24  C   UNL     1      44.711   3.654  11.724  0.00  0.00    +0.000 C 
ATOM     25  C   UNL     1      44.022   2.923  10.555  0.00  0.00    +0.000 C 
ATOM     26  N   UNL     1      43.084   2.279  11.486  0.00  0.00    +0.000 NA
ATOM     27  C   UNL     1      43.511   3.175  12.570  0.00  0.00    +0.000 C 
ATOM     28  H   UNL     1      43.275   1.294  11.661  0.00  0.00    +0.000 HD
ENDBRANCH  23  24
ENDBRANCH  21  23
ENDBRANCH  16  17
ENDBRANCH  15  16
ENDBRANCH   1  15
TORSDOF 7
ENDMDL
MODEL 4
REMARK VINA RESULT:    -6.677      2.577      7.954
REMARK INTER + INTRA:         -10.236
REMARK INTER:                  -9.271
REMARK INTRA:                  -0.965
REMARK UNBOUND:                -0.827
REMARK  Name = 
REMARK  9 active torsions:
REMARK  status: ('A' for Active; 'I' for Inactive)
REMARK    1  A    between atoms: C_1  and  C_2
REMARK    2  A    between atoms: C_5  and  C_6
REMARK    3  A    between atoms: C_6  and  C_7
REMARK    4  A    between atoms: C_6  and  C_8
REMARK    5  A    between atoms: C_8  and  O_9
REMARK    6  A    between atoms: O_9  and  C_10
REMARK    7  A    between atoms: C_14  and  O_15
REMARK    8  A    between atoms: O_15  and  C_16
REMARK    9  A    between atoms: C_22  and  C_23
REMARK                            x       y       z     vdW  Elec       q    Type
REMARK                         _______ _______ _______ _____ _____    ______ ____
ROOT
ATOM      1  C   UNL     1      46.707   7.681  12.107  0.00  0.00    +0.000 C 
ATOM      2  C   UNL     1      45.917   8.848  12.719  0.00  0.00    +0.000 C 
ENDROOT
BRANCH   1   7
ATOM      3  C   UNL     1      43.455   2.890  12.059  0.00  0.00    +0.000 C 
ATOM      4  C   UNL     1      44.314   4.116  11.979  0.00  0.00    +0.000 A 
ATOM      5  C   UNL     1      44.472   4.907  13.110  0.00  0.00    +0.000 A 
ATOM      6  N   UNL     1      45.232   6.022  13.166  0.00  0.00    +0.000 NA
ATOM      7  C   UNL     1      45.865   6.418  12.039  0.00  0.00    +0.000 A 
ATOM      8  C   UNL     1      45.774   5.689  10.855  0.00  0.00    +0.000 A 
ATOM      9  C   UNL     1      44.997   4.522  10.821  0.00  0.00    +0.000 A 
BRANCH   9  10
ATOM     10  C   UNL     1      44.870   3.758   9.545  0.00  0.00    +0.000 C 
ATOM     11  N   UNL     1      44.087   4.290   8.557  0.00  0.00    +0.000 N 
ATOM     12  O   UNL     1      45.440   2.694   9.352  0.00  0.00    +0.000 OA
ATOM     13  H   UNL     1      43.740   5.243   8.572  0.00  0.00    +0.000 HD
ATOM     14  H   UNL     1      44.074   3.795   7.675  0.00  0.00    +0.000 HD
ENDBRANCH   9  10
ENDBRANCH   1   7
BRANCH   1  15
ATOM     15  C   UNL     1      47.972   7.445  12.948  0.00  0.00    +0.000 C 
BRANCH  15  16
ATOM     16  O   UNL     1      48.150   8.499  13.905  0.00  0.00    +0.000 OA
BRANCH  16  17
ATOM     17  C   UNL     1      48.650   8.108  15.121  0.00  0.00    +0.000 A 
ATOM     18  C   UNL     1      48.999   8.966  16.165  0.00  0.00    +0.000 A 
ATOM     19  C   UNL     1      49.472   8.445  17.375  0.00  0.00    +0.000 A 
ATOM     20  C   UNL     1      49.602   7.068  17.550  0.00  0.00    +0.000 A 
ATOM     21  C   UNL     1      49.265   6.208  16.508  0.00  0.00    +0.000 A 
ATOM     22  C   UNL     1      48.774   6.729  15.307  0.00  0.00    +0.000 A 
BRANCH  21  23
ATOM     23  O   UNL     1      49.340   4.838  16.566  0.00  0.00    +0.000 OA
BRANCH  23  24
ATOM     24  C   UNL     1      48.596   4.133  17.589  0.00  0.00    +0.000 C 
ATOM     25  C   UNL     1      48.139   2.691  17.291  0.00  0.00    +0.000 C 
ATOM     26  N   UNL     1      46.754   3.038  17.640  0.00  0.00    +0.000 NA
ATOM     27  C   UNL     1      47.090   4.468  17.642  0.00  0.00    +0.000 C 
ATOM     28  H   UNL     1      46.447   2.682  18.544  0.00  0.00    +0.000 HD
ENDBRANCH  23  24
ENDBRANCH  21  23
ENDBRANCH  16  17
ENDBRANCH  15  16
ENDBRANCH   1  15
TORSDOF 7
ENDMDL
MODEL 5
REMARK VINA RESULT:    -6.602      1.972      2.637
REMARK INTER + INTRA:         -10.130
REMARK INTER:                  -9.338
REMARK INTRA:                  -0.792
REMARK UNBOUND:                -0.827
REMARK  Name = 
REMARK  9 active torsions:
REMARK  status: ('A' for Active; 'I' for Inactive)
REMARK    1  A    between atoms: C_1  and  C_2
REMARK    2  A    between atoms: C_5  and  C_6
REMARK    3  A    between atoms: C_6  and  C_7
REMARK    4  A    between atoms: C_6  and  C_8
REMARK    5  A    between atoms: C_8  and  O_9
REMARK    6  A    between atoms: O_9  and  C_10
REMARK    7  A    between atoms: C_14  and  O_15
REMARK    8  A    between atoms: O_15  and  C_16
REMARK    9  A    between atoms: C_22  and  C_23
REMARK                            x       y       z     vdW  Elec       q    Type
REMARK                         _______ _______ _______ _____ _____    ______ ____
ROOT
ATOM      1  C   UNL     1      46.377   5.749  12.210  0.00  0.00    +0.000 C 
ATOM      2  C   UNL     1      45.537   5.417  13.453  0.00  0.00    +0.000 C 
ENDROOT
BRANCH   1   7
ATOM      3  C   UNL     1      51.105   8.875  13.398  0.00  0.00    +0.000 C 
ATOM      4  C   UNL     1      49.880   8.037  13.182  0.00  0.00    +0.000 A 
ATOM      5  C   UNL     1      49.275   8.034  11.931  0.00  0.00    +0.000 A 
ATOM      6  N   UNL     1      48.182   7.309  11.610  0.00  0.00    +0.000 NA
ATOM      7  C   UNL     1      47.615   6.551  12.576  0.00  0.00    +0.000 A 
ATOM      8  C   UNL     1      48.151   6.482  13.860  0.00  0.00    +0.000 A 
ATOM      9  C   UNL     1      49.299   7.226  14.169  0.00  0.00    +0.000 A 
BRANCH   9  10
ATOM     10  C   UNL     1      49.855   7.182  15.554  0.00  0.00    +0.000 C 
ATOM     11  N   UNL     1      49.436   8.135  16.441  0.00  0.00    +0.000 N 
ATOM     12  O   UNL     1      50.653   6.329  15.919  0.00  0.00    +0.000 OA
ATOM     13  H   UNL     1      48.648   8.750  16.270  0.00  0.00    +0.000 HD
ATOM     14  H   UNL     1      49.767   8.043  17.393  0.00  0.00    +0.000 HD
ENDBRANCH   9  10
ENDBRANCH   1   7
BRANCH   1  15
ATOM     15  C   UNL     1      45.501   6.527  11.215  0.00  0.00    +0.000 C 
BRANCH  15  16
ATOM     16  O   UNL     1      44.285   5.816  10.943  0.00  0.00    +0.000 OA
BRANCH  16  17
ATOM     17  C   UNL     1      44.439   4.617  10.295  0.00  0.00    +0.000 A 
ATOM     18  C   UNL     1      43.944   3.389  10.737  0.00  0.00    +0.000 A 
ATOM     19  C   UNL     1      44.139   2.235   9.970  0.00  0.00    +0.000 A 
ATOM     20  C   UNL     1      44.829   2.298   8.760  0.00  0.00    +0.000 A 
ATOM     21  C   UNL     1      45.334   3.518   8.319  0.00  0.00    +0.000 A 
ATOM     22  C   UNL     1      45.121   4.674   9.077  0.00  0.00    +0.000 A 
BRANCH  21  23
ATOM     23  O   UNL     1      46.018   3.706   7.143  0.00  0.00    +0.000 OA
BRANCH  23  24
ATOM     24  C   UNL     1      46.638   2.568   6.498  0.00  0.00    +0.000 C 
ATOM     25  C   UNL     1      48.149   2.348   6.712  0.00  0.00    +0.000 C 
ATOM     26  N   UNL     1      48.364   2.283   5.259  0.00  0.00    +0.000 NA
ATOM     27  C   UNL     1      47.004   2.783   5.014  0.00  0.00    +0.000 C 
ATOM     28  H   UNL     1      48.533   1.344   4.901  0.00  0.00    +0.000 HD
ENDBRANCH  23  24
ENDBRANCH  21  23
ENDBRANCH  16  17
ENDBRANCH  15  16
ENDBRANCH   1  15
TORSDOF 7
ENDMDL
MODEL 6
REMARK VINA RESULT:    -6.482      4.147      7.622
REMARK INTER + INTRA:          -9.962
REMARK INTER:                  -8.803
REMARK INTRA:                  -1.159
REMARK UNBOUND:                -0.827
REMARK  Name = 
REMARK  9 active torsions:
REMARK  status: ('A' for Active; 'I' for Inactive)
REMARK    1  A    between atoms: C_1  and  C_2
REMARK    2  A    between atoms: C_5  and  C_6
REMARK    3  A    between atoms: C_6  and  C_7
REMARK    4  A    between atoms: C_6  and  C_8
REMARK    5  A    between atoms: C_8  and  O_9
REMARK    6  A    between atoms: O_9  and  C_10
REMARK    7  A    between atoms: C_14  and  O_15
REMARK    8  A    between atoms: O_15  and  C_16
REMARK    9  A    between atoms: C_22  and  C_23
REMARK                            x       y       z     vdW  Elec       q    Type
REMARK                         _______ _______ _______ _____ _____    ______ ____
ROOT
ATOM      1  C   UNL     1      48.541   8.042  11.966  0.00  0.00    +0.000 C 
ATOM      2  C   UNL     1      48.287   9.552  11.841  0.00  0.00    +0.000 C 
ENDROOT
BRANCH   1   7
ATOM      3  C   UNL     1      43.516   5.334  12.944  0.00  0.00    +0.000 C 
ATOM      4  C   UNL     1      44.862   5.953  12.712  0.00  0.00    +0.000 A 
ATOM      5  C   UNL     1      44.935   7.278  12.298  0.00  0.00    +0.000 A 
ATOM      6  N   UNL     1      46.085   7.949  12.073  0.00  0.00    +0.000 NA
ATOM      7  C   UNL     1      47.251   7.283  12.234  0.00  0.00    +0.000 A 
ATOM      8  C   UNL     1      47.284   5.955  12.652  0.00  0.00    +0.000 A 
ATOM      9  C   UNL     1      46.079   5.280  12.901  0.00  0.00    +0.000 A 
BRANCH   9  10
ATOM     10  C   UNL     1      46.109   3.846  13.315  0.00  0.00    +0.000 C 
ATOM     11  N   UNL     1      45.501   2.933  12.499  0.00  0.00    +0.000 N 
ATOM     12  O   UNL     1      46.660   3.465  14.338  0.00  0.00    +0.000 OA
ATOM     13  H   UNL     1      45.192   3.144  11.555  0.00  0.00    +0.000 HD
ATOM     14  H   UNL     1      45.597   1.960  12.759  0.00  0.00    +0.000 HD
ENDBRANCH   9  10
ENDBRANCH   1   7
BRANCH   1  15
ATOM     15  C   UNL     1      49.555   7.803  13.096  0.00  0.00    +0.000 C 
BRANCH  15  16
ATOM     16  O   UNL     1      49.340   8.722  14.176  0.00  0.00    +0.000 OA
BRANCH  16  17
ATOM     17  C   UNL     1      49.523   8.205  15.432  0.00  0.00    +0.000 A 
ATOM     18  C   UNL     1      49.725   8.953  16.593  0.00  0.00    +0.000 A 
ATOM     19  C   UNL     1      49.870   8.309  17.828  0.00  0.00    +0.000 A 
ATOM     20  C   UNL     1      49.817   6.919  17.911  0.00  0.00    +0.000 A 
ATOM     21  C   UNL     1      49.626   6.166  16.755  0.00  0.00    +0.000 A 
ATOM     22  C   UNL     1      49.462   6.812  15.525  0.00  0.00    +0.000 A 
BRANCH  21  23
ATOM     23  O   UNL     1      49.545   4.796  16.714  0.00  0.00    +0.000 OA
BRANCH  23  24
ATOM     24  C   UNL     1      48.671   4.113  17.643  0.00  0.00    +0.000 C 
ATOM     25  C   UNL     1      48.093   2.746  17.225  0.00  0.00    +0.000 C 
ATOM     26  N   UNL     1      46.730   3.213  17.516  0.00  0.00    +0.000 NA
ATOM     27  C   UNL     1      47.205   4.598  17.632  0.00  0.00    +0.000 C 
ATOM     28  H   UNL     1      46.331   2.837  18.375  0.00  0.00    +0.000 HD
ENDBRANCH  23  24
ENDBRANCH  21  23
ENDBRANCH  16  17
ENDBRANCH  15  16
ENDBRANCH   1  15
TORSDOF 7
ENDMDL
MODEL 7
REMARK VINA RESULT:    -6.481      3.289      4.057
REMARK INTER + INTRA:          -9.960
REMARK INTER:                  -9.113
REMARK INTRA:                  -0.847
REMARK UNBOUND:                -0.827
REMARK  Name = 
REMARK  9 active torsions:
REMARK  status: ('A' for Active; 'I' for Inactive)
REMARK    1  A    between atoms: C_1  and  C_2
REMARK    2  A    between atoms: C_5  and  C_6
REMARK    3  A    between atoms: C_6  and  C_7
REMARK    4  A    between atoms: C_6  and  C_8
REMARK    5  A    between atoms: C_8  and  O_9
REMARK    6  A    between atoms: O_9  and  C_10
REMARK    7  A    between atoms: C_14  and  O_15
REMARK    8  A    between atoms: O_15  and  C_16
REMARK    9  A    between atoms: C_22  and  C_23
REMARK                            x       y       z     vdW  Elec       q    Type
REMARK                         _______ _______ _______ _____ _____    ______ ____
ROOT
ATOM      1  C   UNL     1      45.889   7.953  12.457  0.00  0.00    +0.000 C 
ATOM      2  C   UNL     1      44.670   8.585  11.768  0.00  0.00    +0.000 C 
ENDROOT
BRANCH   1   7
ATOM      3  C   UNL     1      50.661  10.914  11.043  0.00  0.00    +0.000 C 
ATOM      4  C   UNL     1      49.480  10.069  11.418  0.00  0.00    +0.000 A 
ATOM      5  C   UNL     1      48.229  10.664  11.525  0.00  0.00    +0.000 A 
ATOM      6  N   UNL     1      47.092  10.008  11.838  0.00  0.00    +0.000 NA
ATOM      7  C   UNL     1      47.172   8.682  12.092  0.00  0.00    +0.000 A 
ATOM      8  C   UNL     1      48.379   7.992  12.005  0.00  0.00    +0.000 A 
ATOM      9  C   UNL     1      49.547   8.687  11.658  0.00  0.00    +0.000 A 
BRANCH   9  10
ATOM     10  C   UNL     1      50.849   7.958  11.597  0.00  0.00    +0.000 C 
ATOM     11  N   UNL     1      51.672   8.029  12.689  0.00  0.00    +0.000 N 
ATOM     12  O   UNL     1      51.194   7.302  10.625  0.00  0.00    +0.000 OA
ATOM     13  H   UNL     1      51.376   8.392  13.589  0.00  0.00    +0.000 HD
ATOM     14  H   UNL     1      52.513   7.468  12.656  0.00  0.00    +0.000 HD
ENDBRANCH   9  10
ENDBRANCH   1   7
BRANCH   1  15
ATOM     15  C   UNL     1      45.973   6.472  12.052  0.00  0.00    +0.000 C 
BRANCH  15  16
ATOM     16  O   UNL     1      45.585   6.298  10.682  0.00  0.00    +0.000 OA
BRANCH  16  17
ATOM     17  C   UNL     1      45.209   5.025  10.336  0.00  0.00    +0.000 A 
ATOM     18  C   UNL     1      44.550   4.122  11.173  0.00  0.00    +0.000 A 
ATOM     19  C   UNL     1      44.189   2.856  10.695  0.00  0.00    +0.000 A 
ATOM     20  C   UNL     1      44.484   2.484   9.384  0.00  0.00    +0.000 A 
ATOM     21  C   UNL     1      45.150   3.377   8.549  0.00  0.00    +0.000 A 
ATOM     22  C   UNL     1      45.493   4.648   9.022  0.00  0.00    +0.000 A 
BRANCH  21  23
ATOM     23  O   UNL     1      45.483   3.129   7.240  0.00  0.00    +0.000 OA
BRANCH  23  24
ATOM     24  C   UNL     1      46.881   3.062   6.869  0.00  0.00    +0.000 C 
ATOM     25  C   UNL     1      47.227   2.778   5.393  0.00  0.00    +0.000 C 
ATOM     26  N   UNL     1      48.098   1.663   5.793  0.00  0.00    +0.000 NA
ATOM     27  C   UNL     1      47.566   1.710   7.162  0.00  0.00    +0.000 C 
ATOM     28  H   UNL     1      49.095   1.864   5.727  0.00  0.00    +0.000 HD
ENDBRANCH  23  24
ENDBRANCH  21  23
ENDBRANCH  16  17
ENDBRANCH  15  16
ENDBRANCH   1  15
TORSDOF 7
ENDMDL
MODEL 8
REMARK VINA RESULT:    -6.293      3.202      4.501
REMARK INTER + INTRA:          -9.695
REMARK INTER:                  -8.666
REMARK INTRA:                  -1.029
REMARK UNBOUND:                -0.827
REMARK  Name = 
REMARK  9 active torsions:
REMARK  status: ('A' for Active; 'I' for Inactive)
REMARK    1  A    between atoms: C_1  and  C_2
REMARK    2  A    between atoms: C_5  and  C_6
REMARK    3  A    between atoms: C_6  and  C_7
REMARK    4  A    between atoms: C_6  and  C_8
REMARK    5  A    between atoms: C_8  and  O_9
REMARK    6  A    between atoms: O_9  and  C_10
REMARK    7  A    between atoms: C_14  and  O_15
REMARK    8  A    between atoms: O_15  and  C_16
REMARK    9  A    between atoms: C_22  and  C_23
REMARK                            x       y       z     vdW  Elec       q    Type
REMARK                         _______ _______ _______ _____ _____    ______ ____
ROOT
ATOM      1  C   UNL     1      49.114   7.480  14.632  0.00  0.00    +0.000 C 
ATOM      2  C   UNL     1      50.432   8.080  15.145  0.00  0.00    +0.000 C 
ENDROOT
BRANCH   1   7
ATOM      3  C   UNL     1      47.413   2.790  17.574  0.00  0.00    +0.000 C 
ATOM      4  C   UNL     1      47.917   4.021  16.881  0.00  0.00    +0.000 A 
ATOM      5  C   UNL     1      47.375   4.376  15.652  0.00  0.00    +0.000 A 
ATOM      6  N   UNL     1      47.734   5.467  14.942  0.00  0.00    +0.000 NA
ATOM      7  C   UNL     1      48.707   6.261  15.444  0.00  0.00    +0.000 A 
ATOM      8  C   UNL     1      49.308   5.994  16.672  0.00  0.00    +0.000 A 
ATOM      9  C   UNL     1      48.908   4.867  17.405  0.00  0.00    +0.000 A 
BRANCH   9  10
ATOM     10  C   UNL     1      49.574   4.558  18.705  0.00  0.00    +0.000 C 
ATOM     11  N   UNL     1      50.708   3.793  18.675  0.00  0.00    +0.000 N 
ATOM     12  O   UNL     1      49.154   4.969  19.777  0.00  0.00    +0.000 OA
ATOM     13  H   UNL     1      51.215   3.577  17.823  0.00  0.00    +0.000 HD
ATOM     14  H   UNL     1      51.185   3.658  19.557  0.00  0.00    +0.000 HD
ENDBRANCH   9  10
ENDBRANCH   1   7
BRANCH   1  15
ATOM     15  C   UNL     1      49.282   7.112  13.149  0.00  0.00    +0.000 C 
BRANCH  15  16
ATOM     16  O   UNL     1      48.606   8.060  12.311  0.00  0.00    +0.000 OA
BRANCH  16  17
ATOM     17  C   UNL     1      47.275   7.809  12.097  0.00  0.00    +0.000 A 
ATOM     18  C   UNL     1      46.258   8.764  12.124  0.00  0.00    +0.000 A 
ATOM     19  C   UNL     1      44.934   8.390  11.859  0.00  0.00    +0.000 A 
ATOM     20  C   UNL     1      44.619   7.064  11.569  0.00  0.00    +0.000 A 
ATOM     21  C   UNL     1      45.628   6.105  11.550  0.00  0.00    +0.000 A 
ATOM     22  C   UNL     1      46.952   6.483  11.796  0.00  0.00    +0.000 A 
BRANCH  21  23
ATOM     23  O   UNL     1      45.442   4.774  11.267  0.00  0.00    +0.000 OA
BRANCH  23  24
ATOM     24  C   UNL     1      44.096   4.244  11.226  0.00  0.00    +0.000 C 
ATOM     25  C   UNL     1      43.577   3.484  12.463  0.00  0.00    +0.000 C 
ATOM     26  N   UNL     1      43.206   2.335  11.625  0.00  0.00    +0.000 NA
ATOM     27  C   UNL     1      43.952   2.894  10.490  0.00  0.00    +0.000 C 
ATOM     28  H   UNL     1      42.205   2.242  11.459  0.00  0.00    +0.000 HD
ENDBRANCH  23  24
ENDBRANCH  21  23
ENDBRANCH  16  17
ENDBRANCH  15  16
ENDBRANCH   1  15
TORSDOF 7
ENDMDL
MODEL 9
REMARK VINA RESULT:    -6.267      1.736      2.271
REMARK INTER + INTRA:          -9.658
REMARK INTER:                  -9.156
REMARK INTRA:                  -0.502
REMARK UNBOUND:                -0.827
REMARK  Name = 
REMARK  9 active torsions:
REMARK  status: ('A' for Active; 'I' for Inactive)
REMARK    1  A    between atoms: C_1  and  C_2
REMARK    2  A    between atoms: C_5  and  C_6
REMARK    3  A    between atoms: C_6  and  C_7
REMARK    4  A    between atoms: C_6  and  C_8
REMARK    5  A    between atoms: C_8  and  O_9
REMARK    6  A    between atoms: O_9  and  C_10
REMARK    7  A    between atoms: C_14  and  O_15
REMARK    8  A    between atoms: O_15  and  C_16
REMARK    9  A    between atoms: C_22  and  C_23
REMARK                            x       y       z     vdW  Elec       q    Type
REMARK                         _______ _______ _______ _____ _____    ______ ____
ROOT
ATOM      1  C   UNL     1      48.672   7.303  13.525  0.00  0.00    +0.000 C 
ATOM      2  C   UNL     1      49.948   7.870  12.885  0.00  0.00    +0.000 C 
ENDROOT
BRANCH   1   7
ATOM      3  C   UNL     1      50.009   4.852  18.599  0.00  0.00    +0.000 C 
ATOM      4  C   UNL     1      49.574   5.454  17.296  0.00  0.00    +0.000 A 
ATOM      5  C   UNL     1      50.487   6.193  16.554  0.00  0.00    +0.000 A 
ATOM      6  N   UNL     1      50.219   6.767  15.361  0.00  0.00    +0.000 NA
ATOM      7  C   UNL     1      48.969   6.642  14.862  0.00  0.00    +0.000 A 
ATOM      8  C   UNL     1      47.984   5.916  15.528  0.00  0.00    +0.000 A 
ATOM      9  C   UNL     1      48.287   5.308  16.755  0.00  0.00    +0.000 A 
BRANCH   9  10
ATOM     10  C   UNL     1      47.224   4.559  17.489  0.00  0.00    +0.000 C 
ATOM     11  N   UNL     1      46.575   5.203  18.507  0.00  0.00    +0.000 N 
ATOM     12  O   UNL     1      46.911   3.411  17.208  0.00  0.00    +0.000 OA
ATOM     13  H   UNL     1      46.647   6.201  18.672  0.00  0.00    +0.000 HD
ATOM     14  H   UNL     1      45.809   4.705  18.941  0.00  0.00    +0.000 HD
ENDBRANCH   9  10
ENDBRANCH   1   7
BRANCH   1  15
ATOM     15  C   UNL     1      48.035   6.298  12.553  0.00  0.00    +0.000 C 
BRANCH  15  16
ATOM     16  O   UNL     1      46.671   6.647  12.281  0.00  0.00    +0.000 OA
BRANCH  16  17
ATOM     17  C   UNL     1      45.842   5.594  11.988  0.00  0.00    +0.000 A 
ATOM     18  C   UNL     1      45.342   4.678  12.915  0.00  0.00    +0.000 A 
ATOM     19  C   UNL     1      44.476   3.659  12.499  0.00  0.00    +0.000 A 
ATOM     20  C   UNL     1      44.108   3.547  11.159  0.00  0.00    +0.000 A 
ATOM     21  C   UNL     1      44.613   4.452  10.228  0.00  0.00    +0.000 A 
ATOM     22  C   UNL     1      45.462   5.481  10.649  0.00  0.00    +0.000 A 
BRANCH  21  23
ATOM     23  O   UNL     1      44.315   4.449   8.888  0.00  0.00    +0.000 OA
BRANCH  23  24
ATOM     24  C   UNL     1      44.793   3.361   8.061  0.00  0.00    +0.000 C 
ATOM     25  C   UNL     1      45.369   2.115   8.763  0.00  0.00    +0.000 C 
ATOM     26  N   UNL     1      46.600   2.211   7.966  0.00  0.00    +0.000 NA
ATOM     27  C   UNL     1      46.219   3.552   7.500  0.00  0.00    +0.000 C 
ATOM     28  H   UNL     1      46.675   1.519   7.222  0.00  0.00    +0.000 HD
ENDBRANCH  23  24
ENDBRANCH  21  23
ENDBRANCH  16  17
ENDBRANCH  15  16
ENDBRANCH   1  15
TORSDOF 7
ENDMDL
