MODEL 1
REMARK VINA RESULT:    -8.359      0.000      0.000
REMARK INTER + INTRA:         -13.080
REMARK INTER:                 -11.779
REMARK INTRA:                  -1.301
REMARK UNBOUND:                -1.301
REMARK  Name = 
REMARK  7 active torsions:
REMARK  status: ('A' for Active; 'I' for Inactive)
REMARK    1  A    between atoms: C_2  and  C_20
REMARK    2  A    between atoms: N_3  and  C_4
REMARK    3  A    between atoms: C_4  and  C_5
REMARK    4  A    between atoms: C_8  and  C_9
REMARK    5  A    between atoms: C_9  and  N_10
REMARK    6  A    between atoms: N_10  and  C_11
REMARK    7  A    between atoms: C_11  and  C_12
REMARK                            x       y       z     vdW  Elec       q    Type
REMARK                         _______ _______ _______ _____ _____    ______ ____
ROOT
ATOM      1  C   UNL     1      46.565   6.327  12.501  0.00  0.00    +0.000 A 
ATOM      2  C   UNL     1      46.149   6.391  11.167  0.00  0.00    +0.000 A 
ATOM      3  C   UNL     1      45.208   5.485  10.678  0.00  0.00    +0.000 A 
ATOM      4  C   UNL     1      44.655   4.502  11.512  0.00  0.00    +0.000 A 
ATOM      5  C   UNL     1      45.032   4.474  12.861  0.00  0.00    +0.000 A 
ATOM      6  C   UNL     1      45.974   5.382  13.352  0.00  0.00    +0.000 A 
ENDROOT
BRANCH   1   7
ATOM      7  C   UNL     1      47.606   7.282  13.015  0.00  0.00    +0.000 C 
BRANCH   7  10
ATOM      8  O   UNL     1      49.966   6.957  14.469  0.00  0.00    +0.000 OA
ATOM      9  C   UNL     1      48.892   6.952  15.061  0.00  0.00    +0.000 C 
ATOM     10  N   UNL     1      47.690   7.211  14.447  0.00  0.00    +0.000 N 
ATOM     11  H   UNL     1      46.853   6.932  14.936  0.00  0.00    +0.000 HD
BRANCH   9  12
ATOM     12  C   UNL     1      48.761   6.552  16.457  0.00  0.00    +0.000 A 
ATOM     13  C   UNL     1      49.254   7.292  17.520  0.00  0.00    +0.000 A 
ATOM     14  N   UNL     1      48.959   6.609  18.666  0.00  0.00    +0.000 N 
ATOM     15  C   UNL     1      48.691   5.301  18.341  0.00  0.00    +0.000 A 
ATOM     16  C   UNL     1      48.761   4.126  19.092  0.00  0.00    +0.000 A 
ATOM     17  C   UNL     1      48.276   2.961  18.491  0.00  0.00    +0.000 A 
ATOM     18  C   UNL     1      47.629   3.006  17.257  0.00  0.00    +0.000 A 
ATOM     19  C   UNL     1      47.596   4.190  16.514  0.00  0.00    +0.000 A 
ATOM     20  C   UNL     1      48.262   5.326  17.016  0.00  0.00    +0.000 A 
ATOM     21  H   UNL     1      48.989   6.986  19.603  0.00  0.00    +0.000 HD
ENDBRANCH   9  12
ENDBRANCH   7  10
ENDBRANCH   1   7
BRANCH   4  22
ATOM     22  C   UNL     1      43.685   3.487  10.952  0.00  0.00    +0.000 C 
BRANCH  22  23
ATOM     23  N   UNL     1      43.948   3.261   9.535  0.00  0.00    +0.000 NA
ATOM     24  H   UNL     1      44.503   4.034   9.168  0.00  0.00    +0.000 HD
BRANCH  23  25
ATOM     25  C   UNL     1      44.654   2.006   9.300  0.00  0.00    +0.000 C 
BRANCH  25  26
ATOM     26  C   UNL     1      45.711   2.176   8.231  0.00  0.00    +0.000 A 
ATOM     27  C   UNL     1      45.869   3.398   7.562  0.00  0.00    +0.000 A 
ATOM     28  C   UNL     1      46.818   3.550   6.565  0.00  0.00    +0.000 A 
ATOM     29  C   UNL     1      47.664   2.496   6.239  0.00  0.00    +0.000 A 
ATOM     30  C   UNL     1      47.543   1.275   6.914  0.00  0.00    +0.000 A 
ATOM     31  C   UNL     1      46.571   1.126   7.900  0.00  0.00    +0.000 A 
ENDBRANCH  25  26
ENDBRANCH  23  25
ENDBRANCH  22  23
ENDBRANCH   4  22
TORSDOF 7
ENDMDL
MODEL 2
REMARK VINA RESULT:    -8.131      1.448      2.518
REMARK INTER + INTRA:         -12.759
REMARK INTER:                 -11.754
REMARK INTRA:                  -1.005
REMARK UNBOUND:                -1.301
REMARK  Name = 
REMARK  7 active torsions:
REMARK  status: ('A' for Active; 'I' for Inactive)
REMARK    1  A    between atoms: C_2  and  C_20
REMARK    2  A    between atoms: N_3  and  C_4
REMARK    3  A    between atoms: C_4  and  C_5
REMARK    4  A    between atoms: C_8  and  C_9
REMARK    5  A    between atoms: C_9  and  N_10
REMARK    6  A    between atoms: N_10  and  C_11
REMARK    7  A    between atoms: C_11  and  C_12
REMARK                            x       y       z     vdW  Elec       q    Type
REMARK                         _______ _______ _______ _____ _____    ______ ____
ROOT
ATOM      1  C   UNL     1      47.064   6.019  12.909  0.00  0.00    +0.000 A 
ATOM      2  C   UNL     1      46.239   4.976  13.343  0.00  0.00    +0.000 A 
ATOM      3  C   UNL     1      45.122   4.602  12.595  0.00  0.00    +0.000 A 
ATOM      4  C   UNL     1      44.811   5.255  11.394  0.00  0.00    +0.000 A 
ATOM      5  C   UNL     1      45.669   6.261  10.932  0.00  0.00    +0.000 A 
ATOM      6  C   UNL     1      46.789   6.636  11.680  0.00  0.00    +0.000 A 
ENDROOT
BRANCH   1   7
ATOM      7  C   UNL     1      48.246   6.442  13.736  0.00  0.00    +0.000 C 
BRANCH   7  10
ATOM      8  O   UNL     1      50.144   6.376  15.782  0.00  0.00    +0.000 OA
ATOM      9  C   UNL     1      48.960   6.206  16.056  0.00  0.00    +0.000 C 
ATOM     10  N   UNL     1      47.947   6.327  15.135  0.00  0.00    +0.000 N 
ATOM     11  H   UNL     1      47.055   5.921  15.376  0.00  0.00    +0.000 HD
BRANCH   9  12
ATOM     12  C   UNL     1      48.511   5.738  17.362  0.00  0.00    +0.000 A 
ATOM     13  C   UNL     1      47.759   4.589  17.551  0.00  0.00    +0.000 A 
ATOM     14  N   UNL     1      47.518   4.474  18.890  0.00  0.00    +0.000 N 
ATOM     15  C   UNL     1      47.715   5.699  19.480  0.00  0.00    +0.000 A 
ATOM     16  C   UNL     1      47.220   6.250  20.663  0.00  0.00    +0.000 A 
ATOM     17  C   UNL     1      47.739   7.489  21.050  0.00  0.00    +0.000 A 
ATOM     18  C   UNL     1      48.797   8.072  20.355  0.00  0.00    +0.000 A 
ATOM     19  C   UNL     1      49.257   7.515  19.159  0.00  0.00    +0.000 A 
ATOM     20  C   UNL     1      48.605   6.374  18.646  0.00  0.00    +0.000 A 
ATOM     21  H   UNL     1      47.191   3.642  19.363  0.00  0.00    +0.000 HD
ENDBRANCH   9  12
ENDBRANCH   7  10
ENDBRANCH   1   7
BRANCH   4  22
ATOM     22  C   UNL     1      43.563   4.883  10.627  0.00  0.00    +0.000 C 
BRANCH  22  23
ATOM     23  N   UNL     1      43.914   4.330   9.322  0.00  0.00    +0.000 NA
ATOM     24  H   UNL     1      44.638   4.908   8.896  0.00  0.00    +0.000 HD
BRANCH  23  25
ATOM     25  C   UNL     1      44.389   2.955   9.418  0.00  0.00    +0.000 C 
BRANCH  25  26
ATOM     26  C   UNL     1      45.514   2.705   8.437  0.00  0.00    +0.000 A 
ATOM     27  C   UNL     1      46.072   1.427   8.291  0.00  0.00    +0.000 A 
ATOM     28  C   UNL     1      47.119   1.199   7.414  0.00  0.00    +0.000 A 
ATOM     29  C   UNL     1      47.609   2.235   6.626  0.00  0.00    +0.000 A 
ATOM     30  C   UNL     1      47.048   3.514   6.735  0.00  0.00    +0.000 A 
ATOM     31  C   UNL     1      46.010   3.737   7.636  0.00  0.00    +0.000 A 
ENDBRANCH  25  26
ENDBRANCH  23  25
ENDBRANCH  22  23
ENDBRANCH   4  22
TORSDOF 7
ENDMDL
MODEL 3
REMARK VINA RESULT:    -7.942      2.080      8.460
REMARK INTER + INTRA:         -12.494
REMARK INTER:                 -11.278
REMARK INTRA:                  -1.216
REMARK UNBOUND:                -1.301
REMARK  Name = 
REMARK  7 active torsions:
REMARK  status: ('A' for Active; 'I' for Inactive)
REMARK    1  A    between atoms: C_2  and  C_20
REMARK    2  A    between atoms: N_3  and  C_4
REMARK    3  A    between atoms: C_4  and  C_5
REMARK    4  A    between atoms: C_8  and  C_9
REMARK    5  A    between atoms: C_9  and  N_10
REMARK    6  A    between atoms: N_10  and  C_11
REMARK    7  A    between atoms: C_11  and  C_12
REMARK                            x       y       z     vdW  Elec       q    Type
REMARK                         _______ _______ _______ _____ _____    ______ ____
ROOT
ATOM      1  C   UNL     1      46.085   7.575  12.219  0.00  0.00    +0.000 A 
ATOM      2  C   UNL     1      47.080   6.615  12.010  0.00  0.00    +0.000 A 
ATOM      3  C   UNL     1      48.291   6.694  12.700  0.00  0.00    +0.000 A 
ATOM      4  C   UNL     1      48.529   7.727  13.619  0.00  0.00    +0.000 A 
ATOM      5  C   UNL     1      47.510   8.655  13.868  0.00  0.00    +0.000 A 
ATOM      6  C   UNL     1      46.296   8.577  13.178  0.00  0.00    +0.000 A 
ENDROOT
BRANCH   1   7
ATOM      7  C   UNL     1      44.796   7.507  11.448  0.00  0.00    +0.000 C 
BRANCH   7  10
ATOM      8  O   UNL     1      42.664   5.711  11.592  0.00  0.00    +0.000 OA
ATOM      9  C   UNL     1      43.658   5.410  10.940  0.00  0.00    +0.000 C 
ATOM     10  N   UNL     1      44.708   6.270  10.724  0.00  0.00    +0.000 N 
ATOM     11  H   UNL     1      45.579   5.866  10.412  0.00  0.00    +0.000 HD
BRANCH   9  12
ATOM     12  C   UNL     1      43.889   4.065  10.425  0.00  0.00    +0.000 A 
ATOM     13  C   UNL     1      43.567   2.910  11.119  0.00  0.00    +0.000 A 
ATOM     14  N   UNL     1      43.931   1.849  10.339  0.00  0.00    +0.000 N 
ATOM     15  C   UNL     1      44.836   2.284   9.401  0.00  0.00    +0.000 A 
ATOM     16  C   UNL     1      45.819   1.607   8.677  0.00  0.00    +0.000 A 
ATOM     17  C   UNL     1      46.484   2.330   7.683  0.00  0.00    +0.000 A 
ATOM     18  C   UNL     1      46.083   3.621   7.346  0.00  0.00    +0.000 A 
ATOM     19  C   UNL     1      45.115   4.287   8.104  0.00  0.00    +0.000 A 
ATOM     20  C   UNL     1      44.580   3.644   9.239  0.00  0.00    +0.000 A 
ATOM     21  H   UNL     1      43.633   0.892  10.466  0.00  0.00    +0.000 HD
ENDBRANCH   9  12
ENDBRANCH   7  10
ENDBRANCH   1   7
BRANCH   4  22
ATOM     22  C   UNL     1      49.869   7.836  14.310  0.00  0.00    +0.000 C 
BRANCH  22  23
ATOM     23  N   UNL     1      50.083   6.688  15.186  0.00  0.00    +0.000 NA
ATOM     24  H   UNL     1      51.073   6.627  15.424  0.00  0.00    +0.000 HD
BRANCH  23  25
ATOM     25  C   UNL     1      49.297   6.777  16.411  0.00  0.00    +0.000 C 
BRANCH  25  26
ATOM     26  C   UNL     1      48.720   5.428  16.779  0.00  0.00    +0.000 A 
ATOM     27  C   UNL     1      49.096   4.783  17.967  0.00  0.00    +0.000 A 
ATOM     28  C   UNL     1      48.591   3.536  18.295  0.00  0.00    +0.000 A 
ATOM     29  C   UNL     1      47.662   2.918  17.465  0.00  0.00    +0.000 A 
ATOM     30  C   UNL     1      47.251   3.556  16.288  0.00  0.00    +0.000 A 
ATOM     31  C   UNL     1      47.781   4.800  15.956  0.00  0.00    +0.000 A 
ENDBRANCH  25  26
ENDBRANCH  23  25
ENDBRANCH  22  23
ENDBRANCH   4  22
TORSDOF 7
ENDMDL
MODEL 4
REMARK VINA RESULT:    -7.914      2.232      8.827
REMARK INTER + INTRA:         -12.454
REMARK INTER:                 -11.587
REMARK INTRA:                  -0.867
REMARK UNBOUND:                -1.301
REMARK  Name = 
REMARK  7 active torsions:
REMARK  status: ('A' for Active; 'I' for Inactive)
REMARK    1  A    between atoms: C_2  and  C_20
REMARK    2  A    between atoms: N_3  and  C_4
REMARK    3  A    between atoms: C_4  and  C_5
REMARK    4  A    between atoms: C_8  and  C_9
REMARK    5  A    between atoms: C_9  and  N_10
REMARK    6  A    between atoms: N_10  and  C_11
REMARK    7  A    between atoms: C_11  and  C_12
REMARK                            x       y       z     vdW  Elec       q    Type
REMARK                         _______ _______ _______ _____ _____    ______ ____
ROOT
ATOM      1  C   UNL     1      46.239   6.674  12.150  0.00  0.00    +0.000 A 
ATOM      2  C   UNL     1      47.063   7.763  12.452  0.00  0.00    +0.000 A 
ATOM      3  C   UNL     1      47.955   7.697  13.523  0.00  0.00    +0.000 A 
ATOM      4  C   UNL     1      48.049   6.538  14.309  0.00  0.00    +0.000 A 
ATOM      5  C   UNL     1      47.264   5.429  13.971  0.00  0.00    +0.000 A 
ATOM      6  C   UNL     1      46.371   5.494  12.897  0.00  0.00    +0.000 A 
ENDROOT
BRANCH   1   7
ATOM      7  C   UNL     1      45.255   6.762  11.017  0.00  0.00    +0.000 C 
BRANCH   7  10
ATOM      8  O   UNL     1      43.131   5.087  10.332  0.00  0.00    +0.000 OA
ATOM      9  C   UNL     1      44.266   4.791   9.975  0.00  0.00    +0.000 C 
ATOM     10  N   UNL     1      45.355   5.605  10.172  0.00  0.00    +0.000 N 
ATOM     11  H   UNL     1      46.268   5.182  10.091  0.00  0.00    +0.000 HD
BRANCH   9  12
ATOM     12  C   UNL     1      44.604   3.489   9.412  0.00  0.00    +0.000 A 
ATOM     13  C   UNL     1      44.226   2.283   9.980  0.00  0.00    +0.000 A 
ATOM     14  N   UNL     1      44.724   1.285   9.192  0.00  0.00    +0.000 N 
ATOM     15  C   UNL     1      45.733   1.800   8.415  0.00  0.00    +0.000 A 
ATOM     16  C   UNL     1      46.825   1.194   7.790  0.00  0.00    +0.000 A 
ATOM     17  C   UNL     1      47.596   1.997   6.944  0.00  0.00    +0.000 A 
ATOM     18  C   UNL     1      47.205   3.299   6.639  0.00  0.00    +0.000 A 
ATOM     19  C   UNL     1      46.124   3.892   7.298  0.00  0.00    +0.000 A 
ATOM     20  C   UNL     1      45.461   3.162   8.306  0.00  0.00    +0.000 A 
ATOM     21  H   UNL     1      44.440   0.315   9.215  0.00  0.00    +0.000 HD
ENDBRANCH   9  12
ENDBRANCH   7  10
ENDBRANCH   1   7
BRANCH   4  22
ATOM     22  C   UNL     1      48.973   6.504  15.505  0.00  0.00    +0.000 C 
BRANCH  22  23
ATOM     23  N   UNL     1      48.272   5.982  16.674  0.00  0.00    +0.000 NA
ATOM     24  H   UNL     1      47.766   5.136  16.412  0.00  0.00    +0.000 HD
BRANCH  23  25
ATOM     25  C   UNL     1      49.184   5.679  17.771  0.00  0.00    +0.000 C 
BRANCH  25  26
ATOM     26  C   UNL     1      49.817   4.318  17.584  0.00  0.00    +0.000 A 
ATOM     27  C   UNL     1      49.069   3.236  17.097  0.00  0.00    +0.000 A 
ATOM     28  C   UNL     1      49.639   1.982  16.948  0.00  0.00    +0.000 A 
ATOM     29  C   UNL     1      50.983   1.786  17.242  0.00  0.00    +0.000 A 
ATOM     30  C   UNL     1      51.757   2.859  17.703  0.00  0.00    +0.000 A 
ATOM     31  C   UNL     1      51.170   4.110  17.869  0.00  0.00    +0.000 A 
ENDBRANCH  25  26
ENDBRANCH  23  25
ENDBRANCH  22  23
ENDBRANCH   4  22
TORSDOF 7
ENDMDL
MODEL 5
REMARK VINA RESULT:    -7.503      1.496      1.543
REMARK INTER + INTRA:         -11.874
REMARK INTER:                 -11.026
REMARK INTRA:                  -0.849
REMARK UNBOUND:                -1.301
REMARK  Name = 
REMARK  7 active torsions:
REMARK  status: ('A' for Active; 'I' for Inactive)
REMARK    1  A    between atoms: C_2  and  C_20
REMARK    2  A    between atoms: N_3  and  C_4
REMARK    3  A    between atoms: C_4  and  C_5
REMARK    4  A    between atoms: C_8  and  C_9
REMARK    5  A    between atoms: C_9  and  N_10
REMARK    6  A    between atoms: N_10  and  C_11
REMARK    7  A    between atoms: C_11  and  C_12
REMARK                            x       y       z     vdW  Elec       q    Type
REMARK                         _______ _______ _______ _____ _____    ______ ____
ROOT
ATOM      1  C   UNL     1      46.889   6.891  13.103  0.00  0.00    +0.000 A 
ATOM      2  C   UNL     1      46.091   7.629  12.223  0.00  0.00    +0.000 A 
ATOM      3  C   UNL     1      45.082   7.000  11.491  0.00  0.00    +0.000 A 
ATOM      4  C   UNL     1      44.844   5.625  11.631  0.00  0.00    +0.000 A 
ATOM      5  C   UNL     1      45.607   4.899  12.553  0.00  0.00    +0.000 A 
ATOM      6  C   UNL     1      46.617   5.528  13.288  0.00  0.00    +0.000 A 
ENDROOT
BRANCH   1   7
ATOM      7  C   UNL     1      47.997   7.565  13.863  0.00  0.00    +0.000 C 
BRANCH   7  10
ATOM      8  O   UNL     1      48.455   8.204  16.541  0.00  0.00    +0.000 OA
ATOM      9  C   UNL     1      48.826   7.117  16.113  0.00  0.00    +0.000 C 
ATOM     10  N   UNL     1      48.552   6.673  14.842  0.00  0.00    +0.000 N 
ATOM     11  H   UNL     1      49.106   5.905  14.492  0.00  0.00    +0.000 HD
BRANCH   9  12
ATOM     12  C   UNL     1      49.705   6.229  16.865  0.00  0.00    +0.000 A 
ATOM     13  C   UNL     1      50.961   6.595  17.323  0.00  0.00    +0.000 A 
ATOM     14  N   UNL     1      51.492   5.516  17.970  0.00  0.00    +0.000 N 
ATOM     15  C   UNL     1      50.816   4.389  17.572  0.00  0.00    +0.000 A 
ATOM     16  C   UNL     1      51.183   3.041  17.559  0.00  0.00    +0.000 A 
ATOM     17  C   UNL     1      50.192   2.117  17.218  0.00  0.00    +0.000 A 
ATOM     18  C   UNL     1      48.870   2.519  17.035  0.00  0.00    +0.000 A 
ATOM     19  C   UNL     1      48.532   3.875  17.026  0.00  0.00    +0.000 A 
ATOM     20  C   UNL     1      49.559   4.832  17.165  0.00  0.00    +0.000 A 
ATOM     21  H   UNL     1      52.288   5.533  18.593  0.00  0.00    +0.000 HD
ENDBRANCH   9  12
ENDBRANCH   7  10
ENDBRANCH   1   7
BRANCH   4  22
ATOM     22  C   UNL     1      43.791   4.946  10.785  0.00  0.00    +0.000 C 
BRANCH  22  23
ATOM     23  N   UNL     1      44.350   4.555   9.495  0.00  0.00    +0.000 NA
ATOM     24  H   UNL     1      45.287   4.947   9.401  0.00  0.00    +0.000 HD
BRANCH  23  25
ATOM     25  C   UNL     1      44.416   3.106   9.341  0.00  0.00    +0.000 C 
BRANCH  25  26
ATOM     26  C   UNL     1      45.515   2.717   8.377  0.00  0.00    +0.000 A 
ATOM     27  C   UNL     1      46.087   3.665   7.516  0.00  0.00    +0.000 A 
ATOM     28  C   UNL     1      47.075   3.307   6.613  0.00  0.00    +0.000 A 
ATOM     29  C   UNL     1      47.549   2.001   6.577  0.00  0.00    +0.000 A 
ATOM     30  C   UNL     1      47.012   1.044   7.448  0.00  0.00    +0.000 A 
ATOM     31  C   UNL     1      46.004   1.409   8.336  0.00  0.00    +0.000 A 
ENDBRANCH  25  26
ENDBRANCH  23  25
ENDBRANCH  22  23
ENDBRANCH   4  22
TORSDOF 7
ENDMDL
MODEL 6
REMARK VINA RESULT:    -6.981      2.089      9.466
REMARK INTER + INTRA:         -11.139
REMARK INTER:                  -9.897
REMARK INTRA:                  -1.242
REMARK UNBOUND:                -1.301
REMARK  Name = 
REMARK  7 active torsions:
REMARK  status: ('A' for Active; 'I' for Inactive)
REMARK    1  A    between atoms: C_2  and  C_20
REMARK    2  A    between atoms: N_3  and  C_4
REMARK    3  A    between atoms: C_4  and  C_5
REMARK    4  A    between atoms: C_8  and  C_9
REMARK    5  A    between atoms: C_9  and  N_10
REMARK    6  A    between atoms: N_10  and  C_11
REMARK    7  A    between atoms: C_11  and  C_12
REMARK                            x       y       z     vdW  Elec       q    Type
REMARK                         _______ _______ _______ _____ _____    ______ ____
ROOT
ATOM      1  C   UNL     1      47.498   5.879  14.375  0.00  0.00    +0.000 A 
ATOM      2  C   UNL     1      46.934   4.640  14.698  0.00  0.00    +0.000 A 
ATOM      3  C   UNL     1      47.356   3.948  15.834  0.00  0.00    +0.000 A 
ATOM      4  C   UNL     1      48.342   4.483  16.675  0.00  0.00    +0.000 A 
ATOM      5  C   UNL     1      48.865   5.748  16.381  0.00  0.00    +0.000 A 
ATOM      6  C   UNL     1      48.443   6.443  15.244  0.00  0.00    +0.000 A 
ENDROOT
BRANCH   1   7
ATOM      7  C   UNL     1      47.066   6.604  13.131  0.00  0.00    +0.000 C 
BRANCH   7  10
ATOM      8  O   UNL     1      44.436   6.482  12.204  0.00  0.00    +0.000 OA
ATOM      9  C   UNL     1      45.242   5.635  11.834  0.00  0.00    +0.000 C 
ATOM     10  N   UNL     1      46.578   5.675  12.151  0.00  0.00    +0.000 N 
ATOM     11  H   UNL     1      47.106   4.822  12.034  0.00  0.00    +0.000 HD
BRANCH   9  12
ATOM     12  C   UNL     1      44.846   4.427  11.119  0.00  0.00    +0.000 A 
ATOM     13  C   UNL     1      44.185   3.363  11.712  0.00  0.00    +0.000 A 
ATOM     14  N   UNL     1      43.990   2.415  10.749  0.00  0.00    +0.000 N 
ATOM     15  C   UNL     1      44.859   2.654   9.713  0.00  0.00    +0.000 A 
ATOM     16  C   UNL     1      45.385   1.814   8.729  0.00  0.00    +0.000 A 
ATOM     17  C   UNL     1      46.145   2.416   7.722  0.00  0.00    +0.000 A 
ATOM     18  C   UNL     1      46.251   3.803   7.637  0.00  0.00    +0.000 A 
ATOM     19  C   UNL     1      45.739   4.621   8.648  0.00  0.00    +0.000 A 
ATOM     20  C   UNL     1      45.148   4.016   9.776  0.00  0.00    +0.000 A 
ATOM     21  H   UNL     1      43.354   1.631  10.811  0.00  0.00    +0.000 HD
ENDBRANCH   9  12
ENDBRANCH   7  10
ENDBRANCH   1   7
BRANCH   4  22
ATOM     22  C   UNL     1      48.835   3.693  17.867  0.00  0.00    +0.000 C 
BRANCH  22  23
ATOM     23  N   UNL     1      48.083   4.058  19.064  0.00  0.00    +0.000 NA
ATOM     24  H   UNL     1      47.678   3.217  19.476  0.00  0.00    +0.000 HD
BRANCH  23  25
ATOM     25  C   UNL     1      48.919   4.727  20.055  0.00  0.00    +0.000 C 
BRANCH  25  26
ATOM     26  C   UNL     1      48.710   6.224  20.011  0.00  0.00    +0.000 A 
ATOM     27  C   UNL     1      49.707   7.104  20.457  0.00  0.00    +0.000 A 
ATOM     28  C   UNL     1      49.510   8.475  20.443  0.00  0.00    +0.000 A 
ATOM     29  C   UNL     1      48.327   9.006  19.943  0.00  0.00    +0.000 A 
ATOM     30  C   UNL     1      47.328   8.147  19.466  0.00  0.00    +0.000 A 
ATOM     31  C   UNL     1      47.527   6.770  19.504  0.00  0.00    +0.000 A 
ENDBRANCH  25  26
ENDBRANCH  23  25
ENDBRANCH  22  23
ENDBRANCH   4  22
TORSDOF 7
ENDMDL
MODEL 7
REMARK VINA RESULT:    -6.899      2.057      9.219
REMARK INTER + INTRA:         -11.023
REMARK INTER:                 -10.130
REMARK INTRA:                  -0.892
REMARK UNBOUND:                -1.301
REMARK  Name = 
REMARK  7 active torsions:
REMARK  status: ('A' for Active; 'I' for Inactive)
REMARK    1  A    between atoms: C_2  and  C_20
REMARK    2  A    between atoms: N_3  and  C_4
REMARK    3  A    between atoms: C_4  and  C_5
REMARK    4  A    between atoms: C_8  and  C_9
REMARK    5  A    between atoms: C_9  and  N_10
REMARK    6  A    between atoms: N_10  and  C_11
REMARK    7  A    between atoms: C_11  and  C_12
REMARK                            x       y       z     vdW  Elec       q    Type
REMARK                         _______ _______ _______ _____ _____    ______ ____
ROOT
ATOM      1  C   UNL     1      44.942   5.718  11.516  0.00  0.00    +0.000 A 
ATOM      2  C   UNL     1      45.791   5.000  12.365  0.00  0.00    +0.000 A 
ATOM      3  C   UNL     1      46.729   5.667  13.153  0.00  0.00    +0.000 A 
ATOM      4  C   UNL     1      46.833   7.066  13.117  0.00  0.00    +0.000 A 
ATOM      5  C   UNL     1      45.946   7.787  12.309  0.00  0.00    +0.000 A 
ATOM      6  C   UNL     1      45.005   7.119  11.519  0.00  0.00    +0.000 A 
ENDROOT
BRANCH   1   7
ATOM      7  C   UNL     1      43.958   4.993  10.642  0.00  0.00    +0.000 C 
BRANCH   7  10
ATOM      8  O   UNL     1      44.804   2.422   9.962  0.00  0.00    +0.000 OA
ATOM      9  C   UNL     1      45.036   3.351   9.196  0.00  0.00    +0.000 C 
ATOM     10  N   UNL     1      44.567   4.627   9.394  0.00  0.00    +0.000 N 
ATOM     11  H   UNL     1      45.013   5.369   8.874  0.00  0.00    +0.000 HD
BRANCH   9  12
ATOM     12  C   UNL     1      45.937   3.229   8.056  0.00  0.00    +0.000 A 
ATOM     13  C   UNL     1      46.271   4.285   7.223  0.00  0.00    +0.000 A 
ATOM     14  N   UNL     1      47.120   3.800   6.268  0.00  0.00    +0.000 N 
ATOM     15  C   UNL     1      46.991   2.434   6.219  0.00  0.00    +0.000 A 
ATOM     16  C   UNL     1      47.258   1.513   5.204  0.00  0.00    +0.000 A 
ATOM     17  C   UNL     1      47.149   0.159   5.532  0.00  0.00    +0.000 A 
ATOM     18  C   UNL     1      46.920  -0.244   6.847  0.00  0.00    +0.000 A 
ATOM     19  C   UNL     1      46.630   0.697   7.839  0.00  0.00    +0.000 A 
ATOM     20  C   UNL     1      46.533   2.056   7.479  0.00  0.00    +0.000 A 
ATOM     21  H   UNL     1      47.704   4.357   5.658  0.00  0.00    +0.000 HD
ENDBRANCH   9  12
ENDBRANCH   7  10
ENDBRANCH   1   7
BRANCH   4  22
ATOM     22  C   UNL     1      47.896   7.770  13.929  0.00  0.00    +0.000 C 
BRANCH  22  23
ATOM     23  N   UNL     1      47.894   7.281  15.304  0.00  0.00    +0.000 NA
ATOM     24  H   UNL     1      47.098   6.657  15.437  0.00  0.00    +0.000 HD
BRANCH  23  25
ATOM     25  C   UNL     1      49.124   6.571  15.636  0.00  0.00    +0.000 C 
BRANCH  25  26
ATOM     26  C   UNL     1      48.852   5.455  16.621  0.00  0.00    +0.000 A 
ATOM     27  C   UNL     1      49.568   5.364  17.823  0.00  0.00    +0.000 A 
ATOM     28  C   UNL     1      49.340   4.329  18.714  0.00  0.00    +0.000 A 
ATOM     29  C   UNL     1      48.359   3.380  18.449  0.00  0.00    +0.000 A 
ATOM     30  C   UNL     1      47.612   3.468  17.267  0.00  0.00    +0.000 A 
ATOM     31  C   UNL     1      47.863   4.500  16.367  0.00  0.00    +0.000 A 
ENDBRANCH  25  26
ENDBRANCH  23  25
ENDBRANCH  22  23
ENDBRANCH   4  22
TORSDOF 7
ENDMDL
MODEL 8
REMARK VINA RESULT:    -6.789      3.236      8.570
REMARK INTER + INTRA:         -10.868
REMARK INTER:                  -9.701
REMARK INTRA:                  -1.168
REMARK UNBOUND:                -1.301
REMARK  Name = 
REMARK  7 active torsions:
REMARK  status: ('A' for Active; 'I' for Inactive)
REMARK    1  A    between atoms: C_2  and  C_20
REMARK    2  A    between atoms: N_3  and  C_4
REMARK    3  A    between atoms: C_4  and  C_5
REMARK    4  A    between atoms: C_8  and  C_9
REMARK    5  A    between atoms: C_9  and  N_10
REMARK    6  A    between atoms: N_10  and  C_11
REMARK    7  A    between atoms: C_11  and  C_12
REMARK                            x       y       z     vdW  Elec       q    Type
REMARK                         _______ _______ _______ _____ _____    ______ ____
ROOT
ATOM      1  C   UNL     1      46.099   7.105  12.283  0.00  0.00    +0.000 A 
ATOM      2  C   UNL     1      46.978   6.030  12.447  0.00  0.00    +0.000 A 
ATOM      3  C   UNL     1      48.136   6.177  13.211  0.00  0.00    +0.000 A 
ATOM      4  C   UNL     1      48.435   7.396  13.836  0.00  0.00    +0.000 A 
ATOM      5  C   UNL     1      47.525   8.455  13.717  0.00  0.00    +0.000 A 
ATOM      6  C   UNL     1      46.364   8.309  12.952  0.00  0.00    +0.000 A 
ENDROOT
BRANCH   1   7
ATOM      7  C   UNL     1      44.870   6.953  11.430  0.00  0.00    +0.000 C 
BRANCH   7  10
ATOM      8  O   UNL     1      42.784   5.245  10.708  0.00  0.00    +0.000 OA
ATOM      9  C   UNL     1      43.927   4.981  10.348  0.00  0.00    +0.000 C 
ATOM     10  N   UNL     1      44.998   5.815  10.564  0.00  0.00    +0.000 N 
ATOM     11  H   UNL     1      45.920   5.413  10.477  0.00  0.00    +0.000 HD
BRANCH   9  12
ATOM     12  C   UNL     1      44.294   3.698   9.761  0.00  0.00    +0.000 A 
ATOM     13  C   UNL     1      43.984   2.474  10.332  0.00  0.00    +0.000 A 
ATOM     14  N   UNL     1      44.491   1.502   9.517  0.00  0.00    +0.000 N 
ATOM     15  C   UNL     1      45.451   2.062   8.710  0.00  0.00    +0.000 A 
ATOM     16  C   UNL     1      46.542   1.504   8.040  0.00  0.00    +0.000 A 
ATOM     17  C   UNL     1      47.249   2.342   7.174  0.00  0.00    +0.000 A 
ATOM     18  C   UNL     1      46.797   3.631   6.895  0.00  0.00    +0.000 A 
ATOM     19  C   UNL     1      45.719   4.176   7.598  0.00  0.00    +0.000 A 
ATOM     20  C   UNL     1      45.122   3.413   8.623  0.00  0.00    +0.000 A 
ATOM     21  H   UNL     1      44.246   0.521   9.542  0.00  0.00    +0.000 HD
ENDBRANCH   9  12
ENDBRANCH   7  10
ENDBRANCH   1   7
BRANCH   4  22
ATOM     22  C   UNL     1      49.724   7.560  14.608  0.00  0.00    +0.000 C 
BRANCH  22  23
ATOM     23  N   UNL     1      50.478   8.702  14.102  0.00  0.00    +0.000 NA
ATOM     24  H   UNL     1      51.192   8.962  14.782  0.00  0.00    +0.000 HD
BRANCH  23  25
ATOM     25  C   UNL     1      51.114   8.416  12.821  0.00  0.00    +0.000 C 
BRANCH  25  26
ATOM     26  C   UNL     1      50.924   9.567  11.857  0.00  0.00    +0.000 A 
ATOM     27  C   UNL     1      49.640   9.975  11.467  0.00  0.00    +0.000 A 
ATOM     28  C   UNL     1      49.462  11.011  10.565  0.00  0.00    +0.000 A 
ATOM     29  C   UNL     1      50.561  11.696  10.062  0.00  0.00    +0.000 A 
ATOM     30  C   UNL     1      51.852  11.324  10.459  0.00  0.00    +0.000 A 
ATOM     31  C   UNL     1      52.021  10.268  11.350  0.00  0.00    +0.000 A 
ENDBRANCH  25  26
ENDBRANCH  23  25
ENDBRANCH  22  23
ENDBRANCH   4  22
TORSDOF 7
ENDMDL
MODEL 9
REMARK VINA RESULT:    -6.786      2.019      2.997
REMARK INTER + INTRA:         -10.864
REMARK INTER:                 -10.137
REMARK INTRA:                  -0.727
REMARK UNBOUND:                -1.301
REMARK  Name = 
REMARK  7 active torsions:
REMARK  status: ('A' for Active; 'I' for Inactive)
REMARK    1  A    between atoms: C_2  and  C_20
REMARK    2  A    between atoms: N_3  and  C_4
REMARK    3  A    between atoms: C_4  and  C_5
REMARK    4  A    between atoms: C_8  and  C_9
REMARK    5  A    between atoms: C_9  and  N_10
REMARK    6  A    between atoms: N_10  and  C_11
REMARK    7  A    between atoms: C_11  and  C_12
REMARK                            x       y       z     vdW  Elec       q    Type
REMARK                         _______ _______ _______ _____ _____    ______ ____
ROOT
ATOM      1  C   UNL     1      46.639   8.408  12.517  0.00  0.00    +0.000 A 
ATOM      2  C   UNL     1      47.415   7.322  12.101  0.00  0.00    +0.000 A 
ATOM      3  C   UNL     1      46.832   6.268  11.396  0.00  0.00    +0.000 A 
ATOM      4  C   UNL     1      45.465   6.282  11.084  0.00  0.00    +0.000 A 
ATOM      5  C   UNL     1      44.701   7.396  11.452  0.00  0.00    +0.000 A 
ATOM      6  C   UNL     1      45.284   8.453  12.158  0.00  0.00    +0.000 A 
ENDROOT
BRANCH   1   7
ATOM      7  C   UNL     1      47.264   9.524  13.307  0.00  0.00    +0.000 C 
BRANCH   7  10
ATOM      8  O   UNL     1      49.678   9.521  14.708  0.00  0.00    +0.000 OA
ATOM      9  C   UNL     1      48.669   9.083  15.251  0.00  0.00    +0.000 C 
ATOM     10  N   UNL     1      47.419   9.141  14.682  0.00  0.00    +0.000 N 
ATOM     11  H   UNL     1      46.709   8.536  15.066  0.00  0.00    +0.000 HD
BRANCH   9  12
ATOM     12  C   UNL     1      48.705   8.342  16.507  0.00  0.00    +0.000 A 
ATOM     13  C   UNL     1      48.892   6.971  16.586  0.00  0.00    +0.000 A 
ATOM     14  N   UNL     1      48.858   6.629  17.908  0.00  0.00    +0.000 N 
ATOM     15  C   UNL     1      48.244   7.640  18.608  0.00  0.00    +0.000 A 
ATOM     16  C   UNL     1      47.576   7.647  19.834  0.00  0.00    +0.000 A 
ATOM     17  C   UNL     1      47.185   8.892  20.335  0.00  0.00    +0.000 A 
ATOM     18  C   UNL     1      47.569  10.072  19.701  0.00  0.00    +0.000 A 
ATOM     19  C   UNL     1      48.214  10.038  18.461  0.00  0.00    +0.000 A 
ATOM     20  C   UNL     1      48.433   8.790  17.844  0.00  0.00    +0.000 A 
ATOM     21  H   UNL     1      49.178   5.754  18.302  0.00  0.00    +0.000 HD
ENDBRANCH   9  12
ENDBRANCH   7  10
ENDBRANCH   1   7
BRANCH   4  22
ATOM     22  C   UNL     1      44.834   5.104  10.376  0.00  0.00    +0.000 C 
BRANCH  22  23
ATOM     23  N   UNL     1      45.309   5.027   8.998  0.00  0.00    +0.000 NA
ATOM     24  H   UNL     1      46.321   4.898   8.997  0.00  0.00    +0.000 HD
BRANCH  23  25
ATOM     25  C   UNL     1      44.683   3.933   8.262  0.00  0.00    +0.000 C 
BRANCH  25  26
ATOM     26  C   UNL     1      45.730   3.014   7.672  0.00  0.00    +0.000 A 
ATOM     27  C   UNL     1      46.509   3.418   6.578  0.00  0.00    +0.000 A 
ATOM     28  C   UNL     1      47.450   2.570   6.018  0.00  0.00    +0.000 A 
ATOM     29  C   UNL     1      47.668   1.310   6.564  0.00  0.00    +0.000 A 
ATOM     30  C   UNL     1      46.921   0.896   7.674  0.00  0.00    +0.000 A 
ATOM     31  C   UNL     1      45.962   1.748   8.216  0.00  0.00    +0.000 A 
ENDBRANCH  25  26
ENDBRANCH  23  25
ENDBRANCH  22  23
ENDBRANCH   4  22
TORSDOF 7
ENDMDL
