MODEL 1
REMARK VINA RESULT:    -6.423      0.000      0.000
REMARK INTER + INTRA:         -10.115
REMARK INTER:                  -9.051
REMARK INTRA:                  -1.063
REMARK UNBOUND:                -1.063
REMARK  Name = 
REMARK  8 active torsions:
REMARK  status: ('A' for Active; 'I' for Inactive)
REMARK    1  A    between atoms: C_1  and  C_2
REMARK    2  A    between atoms: C_2  and  O_3
REMARK    3  A    between atoms: O_3  and  C_4
REMARK    4  A    between atoms: C_6  and  C_7
REMARK    5  A    between atoms: C_12  and  O_13
REMARK    6  A    between atoms: O_13  and  C_14
REMARK    7  A    between atoms: C_14  and  C_15
REMARK    8  A    between atoms: C_19  and  N_20
REMARK                            x       y       z     vdW  Elec       q    Type
REMARK                         _______ _______ _______ _____ _____    ______ ____
ROOT
ATOM      1  O   UNL     1      49.423   6.334  14.956  0.00  0.00    +0.000 OA
ENDROOT
BRANCH   1   7
ATOM      2  C   UNL     1      48.328   5.203  16.900  0.00  0.00    +0.000 A 
ATOM      3  C   UNL     1      47.859   5.386  18.210  0.00  0.00    +0.000 A 
ATOM      4  C   UNL     1      48.004   6.606  18.886  0.00  0.00    +0.000 A 
ATOM      5  C   UNL     1      48.624   7.670  18.231  0.00  0.00    +0.000 A 
ATOM      6  C   UNL     1      49.073   7.506  16.915  0.00  0.00    +0.000 A 
ATOM      7  C   UNL     1      48.927   6.286  16.235  0.00  0.00    +0.000 A 
BRANCH   4   8
ATOM      8  C   UNL     1      47.480   6.667  20.281  0.00  0.00    +0.000 C 
ATOM      9  N   UNL     1      47.089   5.511  20.891  0.00  0.00    +0.000 N 
ATOM     10  O   UNL     1      47.393   7.733  20.885  0.00  0.00    +0.000 OA
ATOM     11  H   UNL     1      47.116   4.593  20.478  0.00  0.00    +0.000 HD
ATOM     12  H   UNL     1      46.736   5.597  21.836  0.00  0.00    +0.000 HD
ENDBRANCH   4   8
BRANCH   2  13
ATOM     13  O   UNL     1      48.221   4.002  16.249  0.00  0.00    +0.000 OA
BRANCH  13  15
ATOM     14  C   UNL     1      49.825   2.485  17.156  0.00  0.00    +0.000 C 
ATOM     15  C   UNL     1      48.350   2.811  17.026  0.00  0.00    +0.000 C 
ENDBRANCH  13  15
ENDBRANCH   2  13
ENDBRANCH   1   7
BRANCH   1  16
ATOM     16  C   UNL     1      49.149   7.489  14.162  0.00  0.00    +0.000 C 
BRANCH  16  17
ATOM     17  C   UNL     1      47.802   7.379  13.496  0.00  0.00    +0.000 A 
ATOM     18  C   UNL     1      46.929   8.461  13.519  0.00  0.00    +0.000 A 
ATOM     19  N   UNL     1      45.688   8.439  12.995  0.00  0.00    +0.000 NA
ATOM     20  C   UNL     1      45.300   7.270  12.428  0.00  0.00    +0.000 A 
ATOM     21  C   UNL     1      46.065   6.101  12.346  0.00  0.00    +0.000 A 
ATOM     22  C   UNL     1      47.340   6.190  12.912  0.00  0.00    +0.000 A 
BRANCH  21  23
ATOM     23  N   UNL     1      45.587   4.947  11.756  0.00  0.00    +0.000 N 
ATOM     24  C   UNL     1      45.098   4.899  10.371  0.00  0.00    +0.000 C 
ATOM     25  C   UNL     1      43.627   4.433  10.312  0.00  0.00    +0.000 C 
ATOM     26  N   UNL     1      43.377   3.172  11.043  0.00  0.00    +0.000 NA
ATOM     27  C   UNL     1      43.822   3.347  12.442  0.00  0.00    +0.000 C 
ATOM     28  C   UNL     1      45.308   3.758  12.576  0.00  0.00    +0.000 C 
ATOM     29  H   UNL     1      43.956   2.445  10.621  0.00  0.00    +0.000 HD
ENDBRANCH  21  23
ENDBRANCH  16  17
ENDBRANCH   1  16
TORSDOF 7
ENDMDL
MODEL 2
REMARK VINA RESULT:    -6.253      2.157      3.834
REMARK INTER + INTRA:          -9.875
REMARK INTER:                  -9.107
REMARK INTRA:                  -0.768
REMARK UNBOUND:                -1.063
REMARK  Name = 
REMARK  8 active torsions:
REMARK  status: ('A' for Active; 'I' for Inactive)
REMARK    1  A    between atoms: C_1  and  C_2
REMARK    2  A    between atoms: C_2  and  O_3
REMARK    3  A    between atoms: O_3  and  C_4
REMARK    4  A    between atoms: C_6  and  C_7
REMARK    5  A    between atoms: C_12  and  O_13
REMARK    6  A    between atoms: O_13  and  C_14
REMARK    7  A    between atoms: C_14  and  C_15
REMARK    8  A    between atoms: C_19  and  N_20
REMARK                            x       y       z     vdW  Elec       q    Type
REMARK                         _______ _______ _______ _____ _____    ______ ____
ROOT
ATOM      1  O   UNL     1      47.294   4.669  13.993  0.00  0.00    +0.000 OA
ENDROOT
BRANCH   1   7
ATOM      2  C   UNL     1      48.606   5.716  15.849  0.00  0.00    +0.000 A 
ATOM      3  C   UNL     1      48.933   5.619  17.209  0.00  0.00    +0.000 A 
ATOM      4  C   UNL     1      48.376   4.636  18.038  0.00  0.00    +0.000 A 
ATOM      5  C   UNL     1      47.478   3.721  17.489  0.00  0.00    +0.000 A 
ATOM      6  C   UNL     1      47.164   3.792  16.126  0.00  0.00    +0.000 A 
ATOM      7  C   UNL     1      47.723   4.775  15.293  0.00  0.00    +0.000 A 
BRANCH   4   8
ATOM      8  C   UNL     1      48.790   4.651  19.471  0.00  0.00    +0.000 C 
ATOM      9  N   UNL     1      48.335   3.668  20.300  0.00  0.00    +0.000 N 
ATOM     10  O   UNL     1      49.526   5.528  19.915  0.00  0.00    +0.000 OA
ATOM     11  H   UNL     1      47.725   2.912  20.033  0.00  0.00    +0.000 HD
ATOM     12  H   UNL     1      48.636   3.717  21.265  0.00  0.00    +0.000 HD
ENDBRANCH   4   8
BRANCH   2  13
ATOM     13  O   UNL     1      49.120   6.698  15.043  0.00  0.00    +0.000 OA
BRANCH  13  15
ATOM     14  C   UNL     1      48.195   8.808  14.422  0.00  0.00    +0.000 C 
ATOM     15  C   UNL     1      48.982   8.052  15.475  0.00  0.00    +0.000 C 
ENDBRANCH  13  15
ENDBRANCH   2  13
ENDBRANCH   1   7
BRANCH   1  16
ATOM     16  C   UNL     1      46.407   5.666  13.485  0.00  0.00    +0.000 C 
BRANCH  16  17
ATOM     17  C   UNL     1      45.297   5.042  12.680  0.00  0.00    +0.000 A 
ATOM     18  C   UNL     1      44.037   4.883  13.246  0.00  0.00    +0.000 A 
ATOM     19  N   UNL     1      42.999   4.293  12.622  0.00  0.00    +0.000 NA
ATOM     20  C   UNL     1      43.241   3.829  11.371  0.00  0.00    +0.000 A 
ATOM     21  C   UNL     1      44.458   3.907  10.685  0.00  0.00    +0.000 A 
ATOM     22  C   UNL     1      45.493   4.527  11.390  0.00  0.00    +0.000 A 
BRANCH  21  23
ATOM     23  N   UNL     1      44.619   3.400   9.410  0.00  0.00    +0.000 N 
ATOM     24  C   UNL     1      44.674   1.959   9.122  0.00  0.00    +0.000 C 
ATOM     25  C   UNL     1      46.007   1.574   8.445  0.00  0.00    +0.000 C 
ATOM     26  N   UNL     1      46.328   2.400   7.259  0.00  0.00    +0.000 NA
ATOM     27  C   UNL     1      46.332   3.821   7.667  0.00  0.00    +0.000 C 
ATOM     28  C   UNL     1      45.001   4.290   8.303  0.00  0.00    +0.000 C 
ATOM     29  H   UNL     1      45.578   2.274   6.578  0.00  0.00    +0.000 HD
ENDBRANCH  21  23
ENDBRANCH  16  17
ENDBRANCH   1  16
TORSDOF 7
ENDMDL
MODEL 3
REMARK VINA RESULT:    -6.240      2.652      6.744
REMARK INTER + INTRA:          -9.857
REMARK INTER:                  -8.561
REMARK INTRA:                  -1.296
REMARK UNBOUND:                -1.063
REMARK  Name = 
REMARK  8 active torsions:
REMARK  status: ('A' for Active; 'I' for Inactive)
REMARK    1  A    between atoms: C_1  and  C_2
REMARK    2  A    between atoms: C_2  and  O_3
REMARK    3  A    between atoms: O_3  and  C_4
REMARK    4  A    between atoms: C_6  and  C_7
REMARK    5  A    between atoms: C_12  and  O_13
REMARK    6  A    between atoms: O_13  and  C_14
REMARK    7  A    between atoms: C_14  and  C_15
REMARK    8  A    between atoms: C_19  and  N_20
REMARK                            x       y       z     vdW  Elec       q    Type
REMARK                         _______ _______ _______ _____ _____    ______ ____
ROOT
ATOM      1  O   UNL     1      48.710   6.141  12.904  0.00  0.00    +0.000 OA
ENDROOT
BRANCH   1   7
ATOM      2  C   UNL     1      46.660   4.881  13.586  0.00  0.00    +0.000 A 
ATOM      3  C   UNL     1      45.271   4.781  13.410  0.00  0.00    +0.000 A 
ATOM      4  C   UNL     1      44.560   5.677  12.600  0.00  0.00    +0.000 A 
ATOM      5  C   UNL     1      45.258   6.689  11.941  0.00  0.00    +0.000 A 
ATOM      6  C   UNL     1      46.647   6.782  12.089  0.00  0.00    +0.000 A 
ATOM      7  C   UNL     1      47.361   5.885  12.899  0.00  0.00    +0.000 A 
BRANCH   4   8
ATOM      8  C   UNL     1      43.085   5.476  12.510  0.00  0.00    +0.000 C 
ATOM      9  N   UNL     1      42.374   6.203  11.601  0.00  0.00    +0.000 N 
ATOM     10  O   UNL     1      42.503   4.675  13.237  0.00  0.00    +0.000 OA
ATOM     11  H   UNL     1      42.758   6.886  10.967  0.00  0.00    +0.000 HD
ATOM     12  H   UNL     1      41.375   6.039  11.575  0.00  0.00    +0.000 HD
ENDBRANCH   4   8
BRANCH   2  13
ATOM     13  O   UNL     1      47.353   4.029  14.406  0.00  0.00    +0.000 OA
BRANCH  13  15
ATOM     14  C   UNL     1      48.035   3.149  16.517  0.00  0.00    +0.000 C 
ATOM     15  C   UNL     1      47.326   4.288  15.809  0.00  0.00    +0.000 C 
ENDBRANCH  13  15
ENDBRANCH   2  13
ENDBRANCH   1   7
BRANCH   1  16
ATOM     16  C   UNL     1      49.151   7.466  13.202  0.00  0.00    +0.000 C 
BRANCH  16  17
ATOM     17  C   UNL     1      49.135   7.720  14.687  0.00  0.00    +0.000 A 
ATOM     18  C   UNL     1      48.438   8.810  15.195  0.00  0.00    +0.000 A 
ATOM     19  N   UNL     1      48.408   9.144  16.500  0.00  0.00    +0.000 NA
ATOM     20  C   UNL     1      49.123   8.351  17.336  0.00  0.00    +0.000 A 
ATOM     21  C   UNL     1      49.880   7.234  16.964  0.00  0.00    +0.000 A 
ATOM     22  C   UNL     1      49.871   6.945  15.596  0.00  0.00    +0.000 A 
BRANCH  21  23
ATOM     23  N   UNL     1      50.587   6.483  17.882  0.00  0.00    +0.000 N 
ATOM     24  C   UNL     1      51.695   5.593  17.506  0.00  0.00    +0.000 C 
ATOM     25  C   UNL     1      51.407   4.135  17.922  0.00  0.00    +0.000 C 
ATOM     26  N   UNL     1      51.024   3.990  19.344  0.00  0.00    +0.000 NA
ATOM     27  C   UNL     1      49.853   4.855  19.603  0.00  0.00    +0.000 C 
ATOM     28  C   UNL     1      50.093   6.345  19.261  0.00  0.00    +0.000 C 
ATOM     29  H   UNL     1      51.798   4.335  19.914  0.00  0.00    +0.000 HD
ENDBRANCH  21  23
ENDBRANCH  16  17
ENDBRANCH   1  16
TORSDOF 7
ENDMDL
MODEL 4
REMARK VINA RESULT:    -6.193      4.623      6.560
REMARK INTER + INTRA:          -9.791
REMARK INTER:                  -8.898
REMARK INTRA:                  -0.893
REMARK UNBOUND:                -1.063
REMARK  Name = 
REMARK  8 active torsions:
REMARK  status: ('A' for Active; 'I' for Inactive)
REMARK    1  A    between atoms: C_1  and  C_2
REMARK    2  A    between atoms: C_2  and  O_3
REMARK    3  A    between atoms: O_3  and  C_4
REMARK    4  A    between atoms: C_6  and  C_7
REMARK    5  A    between atoms: C_12  and  O_13
REMARK    6  A    between atoms: O_13  and  C_14
REMARK    7  A    between atoms: C_14  and  C_15
REMARK    8  A    between atoms: C_19  and  N_20
REMARK                            x       y       z     vdW  Elec       q    Type
REMARK                         _______ _______ _______ _____ _____    ______ ____
ROOT
ATOM      1  O   UNL     1      46.410   6.426  12.358  0.00  0.00    +0.000 OA
ENDROOT
BRANCH   1   7
ATOM      2  C   UNL     1      47.317   8.757  12.381  0.00  0.00    +0.000 A 
ATOM      3  C   UNL     1      46.996  10.108  12.175  0.00  0.00    +0.000 A 
ATOM      4  C   UNL     1      45.725  10.511  11.744  0.00  0.00    +0.000 A 
ATOM      5  C   UNL     1      44.748   9.539  11.525  0.00  0.00    +0.000 A 
ATOM      6  C   UNL     1      45.049   8.191  11.753  0.00  0.00    +0.000 A 
ATOM      7  C   UNL     1      46.322   7.785  12.187  0.00  0.00    +0.000 A 
BRANCH   4   8
ATOM      8  C   UNL     1      45.516  11.973  11.542  0.00  0.00    +0.000 C 
ATOM      9  N   UNL     1      45.847  12.833  12.549  0.00  0.00    +0.000 N 
ATOM     10  O   UNL     1      45.052  12.415  10.494  0.00  0.00    +0.000 OA
ATOM     11  H   UNL     1      46.227  12.568  13.443  0.00  0.00    +0.000 HD
ATOM     12  H   UNL     1      45.687  13.817  12.373  0.00  0.00    +0.000 HD
ENDBRANCH   4   8
BRANCH   2  13
ATOM     13  O   UNL     1      48.569   8.357  12.768  0.00  0.00    +0.000 OA
BRANCH  13  15
ATOM     14  C   UNL     1      50.464   8.731  11.365  0.00  0.00    +0.000 C 
ATOM     15  C   UNL     1      49.400   7.735  11.787  0.00  0.00    +0.000 C 
ENDBRANCH  13  15
ENDBRANCH   2  13
ENDBRANCH   1   7
BRANCH   1  16
ATOM     16  C   UNL     1      45.458   5.783  13.207  0.00  0.00    +0.000 C 
BRANCH  16  17
ATOM     17  C   UNL     1      44.772   4.650  12.488  0.00  0.00    +0.000 A 
ATOM     18  C   UNL     1      43.892   3.825  13.179  0.00  0.00    +0.000 A 
ATOM     19  N   UNL     1      43.272   2.760  12.634  0.00  0.00    +0.000 NA
ATOM     20  C   UNL     1      43.558   2.504  11.334  0.00  0.00    +0.000 A 
ATOM     21  C   UNL     1      44.432   3.237  10.523  0.00  0.00    +0.000 A 
ATOM     22  C   UNL     1      45.044   4.326  11.151  0.00  0.00    +0.000 A 
BRANCH  21  23
ATOM     23  N   UNL     1      44.672   2.901   9.205  0.00  0.00    +0.000 N 
ATOM     24  C   UNL     1      44.977   1.530   8.771  0.00  0.00    +0.000 C 
ATOM     25  C   UNL     1      46.352   1.456   8.075  0.00  0.00    +0.000 C 
ATOM     26  N   UNL     1      46.517   2.443   6.984  0.00  0.00    +0.000 NA
ATOM     27  C   UNL     1      46.275   3.793   7.537  0.00  0.00    +0.000 C 
ATOM     28  C   UNL     1      44.887   3.954   8.201  0.00  0.00    +0.000 C 
ATOM     29  H   UNL     1      45.797   2.259   6.284  0.00  0.00    +0.000 HD
ENDBRANCH  21  23
ENDBRANCH  16  17
ENDBRANCH   1  16
TORSDOF 7
ENDMDL
MODEL 5
REMARK VINA RESULT:    -6.149      1.715      2.101
REMARK INTER + INTRA:          -9.729
REMARK INTER:                  -8.810
REMARK INTRA:                  -0.918
REMARK UNBOUND:                -1.063
REMARK  Name = 
REMARK  8 active torsions:
REMARK  status: ('A' for Active; 'I' for Inactive)
REMARK    1  A    between atoms: C_1  and  C_2
REMARK    2  A    between atoms: C_2  and  O_3
REMARK    3  A    between atoms: O_3  and  C_4
REMARK    4  A    between atoms: C_6  and  C_7
REMARK    5  A    between atoms: C_12  and  O_13
REMARK    6  A    between atoms: O_13  and  C_14
REMARK    7  A    between atoms: C_14  and  C_15
REMARK    8  A    between atoms: C_19  and  N_20
REMARK                            x       y       z     vdW  Elec       q    Type
REMARK                         _______ _______ _______ _____ _____    ______ ____
ROOT
ATOM      1  O   UNL     1      48.476   6.012  13.838  0.00  0.00    +0.000 OA
ENDROOT
BRANCH   1   7
ATOM      2  C   UNL     1      48.687   5.823  16.324  0.00  0.00    +0.000 A 
ATOM      3  C   UNL     1      48.790   6.552  17.519  0.00  0.00    +0.000 A 
ATOM      4  C   UNL     1      48.855   7.952  17.530  0.00  0.00    +0.000 A 
ATOM      5  C   UNL     1      48.806   8.639  16.317  0.00  0.00    +0.000 A 
ATOM      6  C   UNL     1      48.677   7.923  15.121  0.00  0.00    +0.000 A 
ATOM      7  C   UNL     1      48.609   6.520  15.107  0.00  0.00    +0.000 A 
BRANCH   4   8
ATOM      8  C   UNL     1      48.983   8.608  18.863  0.00  0.00    +0.000 C 
ATOM      9  N   UNL     1      49.919   9.586  19.031  0.00  0.00    +0.000 N 
ATOM     10  O   UNL     1      48.267   8.284  19.807  0.00  0.00    +0.000 OA
ATOM     11  H   UNL     1      50.554   9.917  18.322  0.00  0.00    +0.000 HD
ATOM     12  H   UNL     1      49.975  10.003  19.951  0.00  0.00    +0.000 HD
ENDBRANCH   4   8
BRANCH   2  13
ATOM     13  O   UNL     1      48.659   4.453  16.306  0.00  0.00    +0.000 OA
BRANCH  13  15
ATOM     14  C   UNL     1      47.375   2.914  17.603  0.00  0.00    +0.000 C 
ATOM     15  C   UNL     1      47.385   3.813  16.381  0.00  0.00    +0.000 C 
ENDBRANCH  13  15
ENDBRANCH   2  13
ENDBRANCH   1   7
BRANCH   1  16
ATOM     16  C   UNL     1      48.428   6.925  12.741  0.00  0.00    +0.000 C 
BRANCH  16  17
ATOM     17  C   UNL     1      47.022   7.066  12.216  0.00  0.00    +0.000 A 
ATOM     18  C   UNL     1      46.430   8.321  12.152  0.00  0.00    +0.000 A 
ATOM     19  N   UNL     1      45.164   8.538  11.745  0.00  0.00    +0.000 NA
ATOM     20  C   UNL     1      44.454   7.437  11.394  0.00  0.00    +0.000 A 
ATOM     21  C   UNL     1      44.914   6.116  11.422  0.00  0.00    +0.000 A 
ATOM     22  C   UNL     1      46.234   5.961  11.858  0.00  0.00    +0.000 A 
BRANCH  21  23
ATOM     23  N   UNL     1      44.119   5.049  11.054  0.00  0.00    +0.000 N 
ATOM     24  C   UNL     1      43.194   4.383  11.981  0.00  0.00    +0.000 C 
ATOM     25  C   UNL     1      43.533   2.884  12.129  0.00  0.00    +0.000 C 
ATOM     26  N   UNL     1      43.647   2.173  10.836  0.00  0.00    +0.000 NA
ATOM     27  C   UNL     1      44.658   2.866  10.010  0.00  0.00    +0.000 C 
ATOM     28  C   UNL     1      44.348   4.363   9.773  0.00  0.00    +0.000 C 
ATOM     29  H   UNL     1      42.749   2.248  10.357  0.00  0.00    +0.000 HD
ENDBRANCH  21  23
ENDBRANCH  16  17
ENDBRANCH   1  16
TORSDOF 7
ENDMDL
MODEL 6
REMARK VINA RESULT:    -6.144      2.556      7.001
REMARK INTER + INTRA:          -9.722
REMARK INTER:                  -8.655
REMARK INTRA:                  -1.068
REMARK UNBOUND:                -1.063
REMARK  Name = 
REMARK  8 active torsions:
REMARK  status: ('A' for Active; 'I' for Inactive)
REMARK    1  A    between atoms: C_1  and  C_2
REMARK    2  A    between atoms: C_2  and  O_3
REMARK    3  A    between atoms: O_3  and  C_4
REMARK    4  A    between atoms: C_6  and  C_7
REMARK    5  A    between atoms: C_12  and  O_13
REMARK    6  A    between atoms: O_13  and  C_14
REMARK    7  A    between atoms: C_14  and  C_15
REMARK    8  A    between atoms: C_19  and  N_20
REMARK                            x       y       z     vdW  Elec       q    Type
REMARK                         _______ _______ _______ _____ _____    ______ ____
ROOT
ATOM      1  O   UNL     1      48.514   6.029  13.284  0.00  0.00    +0.000 OA
ENDROOT
BRANCH   1   7
ATOM      2  C   UNL     1      46.513   4.535  13.431  0.00  0.00    +0.000 A 
ATOM      3  C   UNL     1      45.205   4.331  12.966  0.00  0.00    +0.000 A 
ATOM      4  C   UNL     1      44.578   5.234  12.096  0.00  0.00    +0.000 A 
ATOM      5  C   UNL     1      45.281   6.363  11.675  0.00  0.00    +0.000 A 
ATOM      6  C   UNL     1      46.596   6.562  12.112  0.00  0.00    +0.000 A 
ATOM      7  C   UNL     1      47.227   5.658  12.981  0.00  0.00    +0.000 A 
BRANCH   4   8
ATOM      8  C   UNL     1      43.179   4.915  11.690  0.00  0.00    +0.000 C 
ATOM      9  N   UNL     1      42.241   5.905  11.716  0.00  0.00    +0.000 N 
ATOM     10  O   UNL     1      42.858   3.783  11.337  0.00  0.00    +0.000 OA
ATOM     11  H   UNL     1      42.404   6.859  11.995  0.00  0.00    +0.000 HD
ATOM     12  H   UNL     1      41.304   5.645  11.436  0.00  0.00    +0.000 HD
ENDBRANCH   4   8
BRANCH   2  13
ATOM     13  O   UNL     1      47.116   3.674  14.309  0.00  0.00    +0.000 OA
BRANCH  13  15
ATOM     14  C   UNL     1      48.041   3.093  16.431  0.00  0.00    +0.000 C 
ATOM     15  C   UNL     1      47.074   4.002  15.698  0.00  0.00    +0.000 C 
ENDBRANCH  13  15
ENDBRANCH   2  13
ENDBRANCH   1   7
BRANCH   1  16
ATOM     16  C   UNL     1      48.751   7.369  13.720  0.00  0.00    +0.000 C 
BRANCH  16  17
ATOM     17  C   UNL     1      49.611   7.390  14.957  0.00  0.00    +0.000 A 
ATOM     18  C   UNL     1      50.961   7.704  14.855  0.00  0.00    +0.000 A 
ATOM     19  N   UNL     1      51.817   7.700  15.896  0.00  0.00    +0.000 NA
ATOM     20  C   UNL     1      51.293   7.353  17.098  0.00  0.00    +0.000 A 
ATOM     21  C   UNL     1      49.961   7.000  17.345  0.00  0.00    +0.000 A 
ATOM     22  C   UNL     1      49.129   7.021  16.221  0.00  0.00    +0.000 A 
BRANCH  21  23
ATOM     23  N   UNL     1      49.512   6.651  18.603  0.00  0.00    +0.000 N 
ATOM     24  C   UNL     1      50.077   5.534  19.373  0.00  0.00    +0.000 C 
ATOM     25  C   UNL     1      48.996   4.483  19.709  0.00  0.00    +0.000 C 
ATOM     26  N   UNL     1      47.791   5.057  20.347  0.00  0.00    +0.000 NA
ATOM     27  C   UNL     1      47.249   6.108  19.460  0.00  0.00    +0.000 C 
ATOM     28  C   UNL     1      48.265   7.228  19.129  0.00  0.00    +0.000 C 
ATOM     29  H   UNL     1      48.080   5.503  21.218  0.00  0.00    +0.000 HD
ENDBRANCH  21  23
ENDBRANCH  16  17
ENDBRANCH   1  16
TORSDOF 7
ENDMDL
MODEL 7
REMARK VINA RESULT:    -6.128      2.853      4.551
REMARK INTER + INTRA:          -9.699
REMARK INTER:                  -8.699
REMARK INTRA:                  -1.000
REMARK UNBOUND:                -1.063
REMARK  Name = 
REMARK  8 active torsions:
REMARK  status: ('A' for Active; 'I' for Inactive)
REMARK    1  A    between atoms: C_1  and  C_2
REMARK    2  A    between atoms: C_2  and  O_3
REMARK    3  A    between atoms: O_3  and  C_4
REMARK    4  A    between atoms: C_6  and  C_7
REMARK    5  A    between atoms: C_12  and  O_13
REMARK    6  A    between atoms: O_13  and  C_14
REMARK    7  A    between atoms: C_14  and  C_15
REMARK    8  A    between atoms: C_19  and  N_20
REMARK                            x       y       z     vdW  Elec       q    Type
REMARK                         _______ _______ _______ _____ _____    ______ ____
ROOT
ATOM      1  O   UNL     1      47.456   4.935  13.420  0.00  0.00    +0.000 OA
ENDROOT
BRANCH   1   7
ATOM      2  C   UNL     1      48.536   6.602  14.941  0.00  0.00    +0.000 A 
ATOM      3  C   UNL     1      48.797   7.967  15.135  0.00  0.00    +0.000 A 
ATOM      4  C   UNL     1      48.417   8.936  14.197  0.00  0.00    +0.000 A 
ATOM      5  C   UNL     1      47.749   8.529  13.042  0.00  0.00    +0.000 A 
ATOM      6  C   UNL     1      47.460   7.173  12.850  0.00  0.00    +0.000 A 
ATOM      7  C   UNL     1      47.838   6.201  13.790  0.00  0.00    +0.000 A 
BRANCH   4   8
ATOM      8  C   UNL     1      48.770  10.350  14.510  0.00  0.00    +0.000 C 
ATOM      9  N   UNL     1      48.430  11.329  13.622  0.00  0.00    +0.000 N 
ATOM     10  O   UNL     1      49.360  10.648  15.546  0.00  0.00    +0.000 OA
ATOM     11  H   UNL     1      47.952  11.185  12.747  0.00  0.00    +0.000 HD
ATOM     12  H   UNL     1      48.691  12.274  13.871  0.00  0.00    +0.000 HD
ENDBRANCH   4   8
BRANCH   2  13
ATOM     13  O   UNL     1      48.938   5.648  15.839  0.00  0.00    +0.000 OA
BRANCH  13  15
ATOM     14  C   UNL     1      47.561   4.516  17.426  0.00  0.00    +0.000 C 
ATOM     15  C   UNL     1      48.430   5.733  17.171  0.00  0.00    +0.000 C 
ENDBRANCH  13  15
ENDBRANCH   2  13
ENDBRANCH   1   7
BRANCH   1  16
ATOM     16  C   UNL     1      46.220   4.423  13.922  0.00  0.00    +0.000 C 
BRANCH  16  17
ATOM     17  C   UNL     1      45.163   4.415  12.849  0.00  0.00    +0.000 A 
ATOM     18  C   UNL     1      43.885   4.881  13.134  0.00  0.00    +0.000 A 
ATOM     19  N   UNL     1      42.863   4.866  12.255  0.00  0.00    +0.000 NA
ATOM     20  C   UNL     1      43.136   4.347  11.032  0.00  0.00    +0.000 A 
ATOM     21  C   UNL     1      44.367   3.830  10.613  0.00  0.00    +0.000 A 
ATOM     22  C   UNL     1      45.382   3.872  11.574  0.00  0.00    +0.000 A 
BRANCH  21  23
ATOM     23  N   UNL     1      44.557   3.312   9.347  0.00  0.00    +0.000 N 
ATOM     24  C   UNL     1      44.663   1.870   9.080  0.00  0.00    +0.000 C 
ATOM     25  C   UNL     1      46.013   1.521   8.418  0.00  0.00    +0.000 C 
ATOM     26  N   UNL     1      46.316   2.341   7.224  0.00  0.00    +0.000 NA
ATOM     27  C   UNL     1      46.269   3.767   7.613  0.00  0.00    +0.000 C 
ATOM     28  C   UNL     1      44.918   4.199   8.231  0.00  0.00    +0.000 C 
ATOM     29  H   UNL     1      45.577   2.180   6.539  0.00  0.00    +0.000 HD
ENDBRANCH  21  23
ENDBRANCH  16  17
ENDBRANCH   1  16
TORSDOF 7
ENDMDL
MODEL 8
REMARK VINA RESULT:    -5.999      3.131      8.245
REMARK INTER + INTRA:          -9.517
REMARK INTER:                  -8.727
REMARK INTRA:                  -0.790
REMARK UNBOUND:                -1.063
REMARK  Name = 
REMARK  8 active torsions:
REMARK  status: ('A' for Active; 'I' for Inactive)
REMARK    1  A    between atoms: C_1  and  C_2
REMARK    2  A    between atoms: C_2  and  O_3
REMARK    3  A    between atoms: O_3  and  C_4
REMARK    4  A    between atoms: C_6  and  C_7
REMARK    5  A    between atoms: C_12  and  O_13
REMARK    6  A    between atoms: O_13  and  C_14
REMARK    7  A    between atoms: C_14  and  C_15
REMARK    8  A    between atoms: C_19  and  N_20
REMARK                            x       y       z     vdW  Elec       q    Type
REMARK                         _______ _______ _______ _____ _____    ______ ____
ROOT
ATOM      1  O   UNL     1      47.211   3.746  14.726  0.00  0.00    +0.000 OA
ENDROOT
BRANCH   1   7
ATOM      2  C   UNL     1      45.431   4.824  13.337  0.00  0.00    +0.000 A 
ATOM      3  C   UNL     1      45.069   5.996  12.657  0.00  0.00    +0.000 A 
ATOM      4  C   UNL     1      45.873   7.144  12.678  0.00  0.00    +0.000 A 
ATOM      5  C   UNL     1      47.074   7.113  13.387  0.00  0.00    +0.000 A 
ATOM      6  C   UNL     1      47.458   5.940  14.048  0.00  0.00    +0.000 A 
ATOM      7  C   UNL     1      46.654   4.788  14.027  0.00  0.00    +0.000 A 
BRANCH   4   8
ATOM      8  C   UNL     1      45.368   8.332  11.932  0.00  0.00    +0.000 C 
ATOM      9  N   UNL     1      44.196   8.230  11.241  0.00  0.00    +0.000 N 
ATOM     10  O   UNL     1      45.986   9.394  11.925  0.00  0.00    +0.000 OA
ATOM     11  H   UNL     1      43.622   7.404  11.181  0.00  0.00    +0.000 HD
ATOM     12  H   UNL     1      43.890   9.058  10.746  0.00  0.00    +0.000 HD
ENDBRANCH   4   8
BRANCH   2  13
ATOM     13  O   UNL     1      44.630   3.712  13.349  0.00  0.00    +0.000 OA
BRANCH  13  15
ATOM     14  C   UNL     1      43.488   2.877  11.427  0.00  0.00    +0.000 C 
ATOM     15  C   UNL     1      43.391   3.777  12.643  0.00  0.00    +0.000 C 
ENDBRANCH  13  15
ENDBRANCH   2  13
ENDBRANCH   1   7
BRANCH   1  16
ATOM     16  C   UNL     1      47.311   3.856  16.147  0.00  0.00    +0.000 C 
BRANCH  16  17
ATOM     17  C   UNL     1      48.659   3.391  16.632  0.00  0.00    +0.000 A 
ATOM     18  C   UNL     1      49.122   2.128  16.283  0.00  0.00    +0.000 A 
ATOM     19  N   UNL     1      50.290   1.608  16.709  0.00  0.00    +0.000 NA
ATOM     20  C   UNL     1      51.025   2.392  17.536  0.00  0.00    +0.000 A 
ATOM     21  C   UNL     1      50.679   3.673  17.981  0.00  0.00    +0.000 A 
ATOM     22  C   UNL     1      49.453   4.150  17.505  0.00  0.00    +0.000 A 
BRANCH  21  23
ATOM     23  N   UNL     1      51.486   4.402  18.832  0.00  0.00    +0.000 N 
ATOM     24  C   UNL     1      52.922   4.138  18.994  0.00  0.00    +0.000 C 
ATOM     25  C   UNL     1      53.266   3.794  20.460  0.00  0.00    +0.000 C 
ATOM     26  N   UNL     1      52.760   4.787  21.434  0.00  0.00    +0.000 NA
ATOM     27  C   UNL     1      51.299   4.919  21.249  0.00  0.00    +0.000 C 
ATOM     28  C   UNL     1      50.887   5.320  19.812  0.00  0.00    +0.000 C 
ATOM     29  H   UNL     1      53.185   5.688  21.212  0.00  0.00    +0.000 HD
ENDBRANCH  21  23
ENDBRANCH  16  17
ENDBRANCH   1  16
TORSDOF 7
ENDMDL
MODEL 9
REMARK VINA RESULT:    -5.994      3.556      6.156
REMARK INTER + INTRA:          -9.510
REMARK INTER:                  -8.701
REMARK INTRA:                  -0.809
REMARK UNBOUND:                -1.063
REMARK  Name = 
REMARK  8 active torsions:
REMARK  status: ('A' for Active; 'I' for Inactive)
REMARK    1  A    between atoms: C_1  and  C_2
REMARK    2  A    between atoms: C_2  and  O_3
REMARK    3  A    between atoms: O_3  and  C_4
REMARK    4  A    between atoms: C_6  and  C_7
REMARK    5  A    between atoms: C_12  and  O_13
REMARK    6  A    between atoms: O_13  and  C_14
REMARK    7  A    between atoms: C_14  and  C_15
REMARK    8  A    between atoms: C_19  and  N_20
REMARK                            x       y       z     vdW  Elec       q    Type
REMARK                         _______ _______ _______ _____ _____    ______ ____
ROOT
ATOM      1  O   UNL     1      44.827   7.111  11.206  0.00  0.00    +0.000 OA
ENDROOT
BRANCH   1   7
ATOM      2  C   UNL     1      46.168   8.395  12.883  0.00  0.00    +0.000 A 
ATOM      3  C   UNL     1      47.339   8.386  13.655  0.00  0.00    +0.000 A 
ATOM      4  C   UNL     1      48.218   7.294  13.654  0.00  0.00    +0.000 A 
ATOM      5  C   UNL     1      47.923   6.191  12.853  0.00  0.00    +0.000 A 
ATOM      6  C   UNL     1      46.771   6.201  12.059  0.00  0.00    +0.000 A 
ATOM      7  C   UNL     1      45.889   7.294  12.056  0.00  0.00    +0.000 A 
BRANCH   4   8
ATOM      8  C   UNL     1      49.419   7.398  14.533  0.00  0.00    +0.000 C 
ATOM      9  N   UNL     1      50.625   7.699  13.971  0.00  0.00    +0.000 N 
ATOM     10  O   UNL     1      49.342   7.216  15.746  0.00  0.00    +0.000 OA
ATOM     11  H   UNL     1      50.790   7.859  12.990  0.00  0.00    +0.000 HD
ATOM     12  H   UNL     1      51.415   7.756  14.602  0.00  0.00    +0.000 HD
ENDBRANCH   4   8
BRANCH   2  13
ATOM     13  O   UNL     1      45.287   9.445  12.908  0.00  0.00    +0.000 OA
BRANCH  13  15
ATOM     14  C   UNL     1      43.829  10.720  11.514  0.00  0.00    +0.000 C 
ATOM     15  C   UNL     1      45.268  10.324  11.783  0.00  0.00    +0.000 C 
ENDBRANCH  13  15
ENDBRANCH   2  13
ENDBRANCH   1   7
BRANCH   1  16
ATOM     16  C   UNL     1      43.678   6.415  11.692  0.00  0.00    +0.000 C 
BRANCH  16  17
ATOM     17  C   UNL     1      43.733   4.956  11.321  0.00  0.00    +0.000 A 
ATOM     18  C   UNL     1      43.348   3.992  12.246  0.00  0.00    +0.000 A 
ATOM     19  N   UNL     1      43.410   2.665  12.022  0.00  0.00    +0.000 NA
ATOM     20  C   UNL     1      43.892   2.286  10.813  0.00  0.00    +0.000 A 
ATOM     21  C   UNL     1      44.328   3.142   9.795  0.00  0.00    +0.000 A 
ATOM     22  C   UNL     1      44.241   4.505  10.094  0.00  0.00    +0.000 A 
BRANCH  21  23
ATOM     23  N   UNL     1      44.814   2.670   8.592  0.00  0.00    +0.000 N 
ATOM     24  C   UNL     1      45.260   1.282   8.397  0.00  0.00    +0.000 C 
ATOM     25  C   UNL     1      46.739   1.226   7.958  0.00  0.00    +0.000 C 
ATOM     26  N   UNL     1      47.043   2.085   6.792  0.00  0.00    +0.000 NA
ATOM     27  C   UNL     1      46.639   3.470   7.116  0.00  0.00    +0.000 C 
ATOM     28  C   UNL     1      45.148   3.608   7.509  0.00  0.00    +0.000 C 
ATOM     29  H   UNL     1      46.468   1.768   6.011  0.00  0.00    +0.000 HD
ENDBRANCH  21  23
ENDBRANCH  16  17
ENDBRANCH   1  16
TORSDOF 7
ENDMDL
