MODEL 1
REMARK VINA RESULT:    -7.786      0.000      0.000
REMARK INTER + INTRA:         -12.314
REMARK INTER:                 -11.200
REMARK INTRA:                  -1.113
REMARK UNBOUND:                -1.113
REMARK  Name = 
REMARK  8 active torsions:
REMARK  status: ('A' for Active; 'I' for Inactive)
REMARK    1  A    between atoms: N_1  and  S_2
REMARK    2  A    between atoms: S_2  and  C_5
REMARK    3  A    between atoms: C_8  and  O_9
REMARK    4  A    between atoms: O_9  and  C_10
REMARK    5  A    between atoms: C_10  and  C_11
REMARK    6  A    between atoms: C_11  and  C_12
REMARK    7  A    between atoms: C_16  and  O_17
REMARK    8  A    between atoms: O_17  and  C_18
REMARK                            x       y       z     vdW  Elec       q    Type
REMARK                         _______ _______ _______ _____ _____    ______ ____
ROOT
ATOM      1  O   UNL     1      43.446   3.569  10.406  0.00  0.00    +0.000 OA
ENDROOT
BRANCH   1   5
ATOM      2  C   UNL     1      46.295   2.462   7.576  0.00  0.00    +0.000 A 
ATOM      3  C   UNL     1      45.883   3.790   7.596  0.00  0.00    +0.000 A 
ATOM      4  C   UNL     1      44.930   4.194   8.537  0.00  0.00    +0.000 A 
ATOM      5  C   UNL     1      44.388   3.278   9.449  0.00  0.00    +0.000 A 
ATOM      6  C   UNL     1      44.812   1.945   9.411  0.00  0.00    +0.000 A 
ATOM      7  C   UNL     1      45.760   1.530   8.472  0.00  0.00    +0.000 A 
BRANCH   2   8
ATOM      8  S   UNL     1      47.477   1.926   6.372  0.00  0.00    +0.000 S 
ATOM      9  O   UNL     1      47.065   0.649   5.837  0.00  0.00    +0.000 OA
ATOM     10  O   UNL     1      48.808   2.155   6.880  0.00  0.00    +0.000 OA
BRANCH   8  11
ATOM     11  N   UNL     1      47.247   3.044   5.141  0.00  0.00    +0.000 NA
ATOM     12  H   UNL     1      47.593   2.659   4.261  0.00  0.00    +0.000 HD
ATOM     13  H   UNL     1      47.670   3.937   5.395  0.00  0.00    +0.000 HD
ENDBRANCH   8  11
ENDBRANCH   2   8
ENDBRANCH   1   5
BRANCH   1  14
ATOM     14  C   UNL     1      43.809   3.214  11.744  0.00  0.00    +0.000 C 
BRANCH  14  15
ATOM     15  C   UNL     1      43.804   4.441  12.656  0.00  0.00    +0.000 C 
BRANCH  15  16
ATOM     16  C   UNL     1      45.200   5.012  12.745  0.00  0.00    +0.000 A 
ATOM     17  C   UNL     1      45.659   5.916  11.779  0.00  0.00    +0.000 A 
ATOM     18  C   UNL     1      46.902   6.534  11.925  0.00  0.00    +0.000 A 
ATOM     19  C   UNL     1      47.704   6.251  13.033  0.00  0.00    +0.000 A 
ATOM     20  C   UNL     1      47.269   5.337  13.989  0.00  0.00    +0.000 A 
ATOM     21  C   UNL     1      46.017   4.729  13.849  0.00  0.00    +0.000 A 
BRANCH  20  22
ATOM     22  O   UNL     1      47.970   5.006  15.122  0.00  0.00    +0.000 OA
BRANCH  22  23
ATOM     23  C   UNL     1      47.327   4.179  16.118  0.00  0.00    +0.000 C 
ATOM     24  C   UNL     1      47.482   4.615  17.595  0.00  0.00    +0.000 C 
ATOM     25  C   UNL     1      47.891   3.184  17.962  0.00  0.00    +0.000 C 
ATOM     26  C   UNL     1      48.104   2.888  16.472  0.00  0.00    +0.000 C 
ENDBRANCH  22  23
ENDBRANCH  20  22
ENDBRANCH  15  16
ENDBRANCH  14  15
ENDBRANCH   1  14
TORSDOF 8
ENDMDL
MODEL 2
REMARK VINA RESULT:    -7.102      3.908      8.293
REMARK INTER + INTRA:         -11.329
REMARK INTER:                 -10.517
REMARK INTRA:                  -0.812
REMARK UNBOUND:                -1.113
REMARK  Name = 
REMARK  8 active torsions:
REMARK  status: ('A' for Active; 'I' for Inactive)
REMARK    1  A    between atoms: N_1  and  S_2
REMARK    2  A    between atoms: S_2  and  C_5
REMARK    3  A    between atoms: C_8  and  O_9
REMARK    4  A    between atoms: O_9  and  C_10
REMARK    5  A    between atoms: C_10  and  C_11
REMARK    6  A    between atoms: C_11  and  C_12
REMARK    7  A    between atoms: C_16  and  O_17
REMARK    8  A    between atoms: O_17  and  C_18
REMARK                            x       y       z     vdW  Elec       q    Type
REMARK                         _______ _______ _______ _____ _____    ______ ____
ROOT
ATOM      1  O   UNL     1      47.379   7.215  13.023  0.00  0.00    +0.000 OA
ENDROOT
BRANCH   1   5
ATOM      2  C   UNL     1      47.963   4.568  16.187  0.00  0.00    +0.000 A 
ATOM      3  C   UNL     1      48.647   5.779  16.219  0.00  0.00    +0.000 A 
ATOM      4  C   UNL     1      48.469   6.690  15.173  0.00  0.00    +0.000 A 
ATOM      5  C   UNL     1      47.619   6.394  14.099  0.00  0.00    +0.000 A 
ATOM      6  C   UNL     1      46.942   5.170  14.081  0.00  0.00    +0.000 A 
ATOM      7  C   UNL     1      47.116   4.250  15.119  0.00  0.00    +0.000 A 
BRANCH   2   8
ATOM      8  S   UNL     1      48.199   3.389  17.486  0.00  0.00    +0.000 S 
ATOM      9  O   UNL     1      48.555   4.086  18.700  0.00  0.00    +0.000 OA
ATOM     10  O   UNL     1      48.967   2.277  16.983  0.00  0.00    +0.000 OA
BRANCH   8  11
ATOM     11  N   UNL     1      46.639   2.814  17.717  0.00  0.00    +0.000 NA
ATOM     12  H   UNL     1      46.504   1.963  17.170  0.00  0.00    +0.000 HD
ATOM     13  H   UNL     1      45.961   3.547  17.513  0.00  0.00    +0.000 HD
ENDBRANCH   8  11
ENDBRANCH   2   8
ENDBRANCH   1   5
BRANCH   1  14
ATOM     14  C   UNL     1      47.227   6.543  11.768  0.00  0.00    +0.000 C 
BRANCH  14  15
ATOM     15  C   UNL     1      45.791   6.659  11.256  0.00  0.00    +0.000 C 
BRANCH  15  16
ATOM     16  C   UNL     1      45.372   5.352  10.625  0.00  0.00    +0.000 A 
ATOM     17  C   UNL     1      44.610   4.428  11.349  0.00  0.00    +0.000 A 
ATOM     18  C   UNL     1      44.122   3.276  10.730  0.00  0.00    +0.000 A 
ATOM     19  C   UNL     1      44.395   3.030   9.382  0.00  0.00    +0.000 A 
ATOM     20  C   UNL     1      45.171   3.930   8.657  0.00  0.00    +0.000 A 
ATOM     21  C   UNL     1      45.647   5.091   9.274  0.00  0.00    +0.000 A 
BRANCH  20  22
ATOM     22  O   UNL     1      45.478   3.793   7.326  0.00  0.00    +0.000 OA
BRANCH  22  23
ATOM     23  C   UNL     1      46.789   3.303   6.964  0.00  0.00    +0.000 C 
ATOM     24  C   UNL     1      46.992   2.869   5.493  0.00  0.00    +0.000 C 
ATOM     25  C   UNL     1      47.616   1.556   5.979  0.00  0.00    +0.000 C 
ATOM     26  C   UNL     1      47.058   1.836   7.379  0.00  0.00    +0.000 C 
ENDBRANCH  22  23
ENDBRANCH  20  22
ENDBRANCH  15  16
ENDBRANCH  14  15
ENDBRANCH   1  14
TORSDOF 8
ENDMDL
MODEL 3
REMARK VINA RESULT:    -6.882      2.024      3.559
REMARK INTER + INTRA:         -11.012
REMARK INTER:                  -9.995
REMARK INTRA:                  -1.017
REMARK UNBOUND:                -1.113
REMARK  Name = 
REMARK  8 active torsions:
REMARK  status: ('A' for Active; 'I' for Inactive)
REMARK    1  A    between atoms: N_1  and  S_2
REMARK    2  A    between atoms: S_2  and  C_5
REMARK    3  A    between atoms: C_8  and  O_9
REMARK    4  A    between atoms: O_9  and  C_10
REMARK    5  A    between atoms: C_10  and  C_11
REMARK    6  A    between atoms: C_11  and  C_12
REMARK    7  A    between atoms: C_16  and  O_17
REMARK    8  A    between atoms: O_17  and  C_18
REMARK                            x       y       z     vdW  Elec       q    Type
REMARK                         _______ _______ _______ _____ _____    ______ ____
ROOT
ATOM      1  O   UNL     1      43.566   4.640  10.218  0.00  0.00    +0.000 OA
ENDROOT
BRANCH   1   5
ATOM      2  C   UNL     1      46.199   2.391   7.901  0.00  0.00    +0.000 A 
ATOM      3  C   UNL     1      46.283   3.778   7.818  0.00  0.00    +0.000 A 
ATOM      4  C   UNL     1      45.415   4.560   8.587  0.00  0.00    +0.000 A 
ATOM      5  C   UNL     1      44.465   3.965   9.428  0.00  0.00    +0.000 A 
ATOM      6  C   UNL     1      44.393   2.569   9.495  0.00  0.00    +0.000 A 
ATOM      7  C   UNL     1      45.252   1.778   8.728  0.00  0.00    +0.000 A 
BRANCH   2   8
ATOM      8  S   UNL     1      47.268   1.385   6.913  0.00  0.00    +0.000 S 
ATOM      9  O   UNL     1      48.628   1.845   7.065  0.00  0.00    +0.000 OA
ATOM     10  O   UNL     1      46.664   1.180   5.619  0.00  0.00    +0.000 OA
BRANCH   8  11
ATOM     11  N   UNL     1      47.183  -0.092   7.707  0.00  0.00    +0.000 NA
ATOM     12  H   UNL     1      48.016  -0.642   7.494  0.00  0.00    +0.000 HD
ATOM     13  H   UNL     1      46.308  -0.563   7.479  0.00  0.00    +0.000 HD
ENDBRANCH   8  11
ENDBRANCH   2   8
ENDBRANCH   1   5
BRANCH   1  14
ATOM     14  C   UNL     1      43.222   3.986  11.443  0.00  0.00    +0.000 C 
BRANCH  14  15
ATOM     15  C   UNL     1      43.306   4.955  12.623  0.00  0.00    +0.000 C 
BRANCH  15  16
ATOM     16  C   UNL     1      44.755   5.271  12.915  0.00  0.00    +0.000 A 
ATOM     17  C   UNL     1      45.575   4.324  13.540  0.00  0.00    +0.000 A 
ATOM     18  C   UNL     1      46.939   4.569  13.702  0.00  0.00    +0.000 A 
ATOM     19  C   UNL     1      47.500   5.765  13.248  0.00  0.00    +0.000 A 
ATOM     20  C   UNL     1      46.691   6.725  12.646  0.00  0.00    +0.000 A 
ATOM     21  C   UNL     1      45.327   6.472  12.470  0.00  0.00    +0.000 A 
BRANCH  20  22
ATOM     22  O   UNL     1      47.146   7.920  12.147  0.00  0.00    +0.000 OA
BRANCH  22  23
ATOM     23  C   UNL     1      48.496   8.333  12.459  0.00  0.00    +0.000 C 
ATOM     24  C   UNL     1      48.863   9.806  12.159  0.00  0.00    +0.000 C 
ATOM     25  C   UNL     1      50.128   9.330  11.437  0.00  0.00    +0.000 C 
ATOM     26  C   UNL     1      49.550   7.911  11.409  0.00  0.00    +0.000 C 
ENDBRANCH  22  23
ENDBRANCH  20  22
ENDBRANCH  15  16
ENDBRANCH  14  15
ENDBRANCH   1  14
TORSDOF 8
ENDMDL
MODEL 4
REMARK VINA RESULT:    -6.873      3.970      7.880
REMARK INTER + INTRA:         -11.000
REMARK INTER:                  -9.959
REMARK INTRA:                  -1.041
REMARK UNBOUND:                -1.113
REMARK  Name = 
REMARK  8 active torsions:
REMARK  status: ('A' for Active; 'I' for Inactive)
REMARK    1  A    between atoms: N_1  and  S_2
REMARK    2  A    between atoms: S_2  and  C_5
REMARK    3  A    between atoms: C_8  and  O_9
REMARK    4  A    between atoms: O_9  and  C_10
REMARK    5  A    between atoms: C_10  and  C_11
REMARK    6  A    between atoms: C_11  and  C_12
REMARK    7  A    between atoms: C_16  and  O_17
REMARK    8  A    between atoms: O_17  and  C_18
REMARK                            x       y       z     vdW  Elec       q    Type
REMARK                         _______ _______ _______ _____ _____    ______ ____
ROOT
ATOM      1  O   UNL     1      46.960   6.462  12.453  0.00  0.00    +0.000 OA
ENDROOT
BRANCH   1   5
ATOM      2  C   UNL     1      47.805   4.607  16.086  0.00  0.00    +0.000 A 
ATOM      3  C   UNL     1      48.362   5.861  15.853  0.00  0.00    +0.000 A 
ATOM      4  C   UNL     1      48.093   6.511  14.644  0.00  0.00    +0.000 A 
ATOM      5  C   UNL     1      47.280   5.913  13.671  0.00  0.00    +0.000 A 
ATOM      6  C   UNL     1      46.732   4.650  13.922  0.00  0.00    +0.000 A 
ATOM      7  C   UNL     1      46.997   3.990  15.125  0.00  0.00    +0.000 A 
BRANCH   2   8
ATOM      8  S   UNL     1      48.158   3.756  17.597  0.00  0.00    +0.000 S 
ATOM      9  O   UNL     1      48.168   4.705  18.686  0.00  0.00    +0.000 OA
ATOM     10  O   UNL     1      49.238   2.826  17.377  0.00  0.00    +0.000 OA
BRANCH   8  11
ATOM     11  N   UNL     1      46.775   2.826  17.801  0.00  0.00    +0.000 NA
ATOM     12  H   UNL     1      46.372   2.609  16.888  0.00  0.00    +0.000 HD
ATOM     13  H   UNL     1      46.129   3.293  18.437  0.00  0.00    +0.000 HD
ENDBRANCH   8  11
ENDBRANCH   2   8
ENDBRANCH   1   5
BRANCH   1  14
ATOM     14  C   UNL     1      45.933   7.458  12.486  0.00  0.00    +0.000 C 
BRANCH  14  15
ATOM     15  C   UNL     1      44.900   7.216  11.386  0.00  0.00    +0.000 C 
BRANCH  15  16
ATOM     16  C   UNL     1      44.470   5.768  11.406  0.00  0.00    +0.000 A 
ATOM     17  C   UNL     1      43.731   5.263  12.483  0.00  0.00    +0.000 A 
ATOM     18  C   UNL     1      43.232   3.959  12.447  0.00  0.00    +0.000 A 
ATOM     19  C   UNL     1      43.470   3.143  11.339  0.00  0.00    +0.000 A 
ATOM     20  C   UNL     1      44.223   3.626  10.271  0.00  0.00    +0.000 A 
ATOM     21  C   UNL     1      44.710   4.937  10.301  0.00  0.00    +0.000 A 
BRANCH  20  22
ATOM     22  O   UNL     1      44.495   2.914   9.129  0.00  0.00    +0.000 OA
BRANCH  22  23
ATOM     23  C   UNL     1      45.862   2.846   8.664  0.00  0.00    +0.000 C 
ATOM     24  C   UNL     1      46.162   3.475   7.283  0.00  0.00    +0.000 C 
ATOM     25  C   UNL     1      46.900   2.196   6.874  0.00  0.00    +0.000 C 
ATOM     26  C   UNL     1      46.265   1.476   8.069  0.00  0.00    +0.000 C 
ENDBRANCH  22  23
ENDBRANCH  20  22
ENDBRANCH  15  16
ENDBRANCH  14  15
ENDBRANCH   1  14
TORSDOF 8
ENDMDL
MODEL 5
REMARK VINA RESULT:    -6.388      3.657      7.500
REMARK INTER + INTRA:         -10.302
REMARK INTER:                  -9.838
REMARK INTRA:                  -0.465
REMARK UNBOUND:                -1.113
REMARK  Name = 
REMARK  8 active torsions:
REMARK  status: ('A' for Active; 'I' for Inactive)
REMARK    1  A    between atoms: N_1  and  S_2
REMARK    2  A    between atoms: S_2  and  C_5
REMARK    3  A    between atoms: C_8  and  O_9
REMARK    4  A    between atoms: O_9  and  C_10
REMARK    5  A    between atoms: C_10  and  C_11
REMARK    6  A    between atoms: C_11  and  C_12
REMARK    7  A    between atoms: C_16  and  O_17
REMARK    8  A    between atoms: O_17  and  C_18
REMARK                            x       y       z     vdW  Elec       q    Type
REMARK                         _______ _______ _______ _____ _____    ______ ____
ROOT
ATOM      1  O   UNL     1      44.011   3.336  13.291  0.00  0.00    +0.000 OA
ENDROOT
BRANCH   1   5
ATOM      2  C   UNL     1      46.253   6.833  12.968  0.00  0.00    +0.000 A 
ATOM      3  C   UNL     1      44.878   6.924  12.780  0.00  0.00    +0.000 A 
ATOM      4  C   UNL     1      44.097   5.768  12.886  0.00  0.00    +0.000 A 
ATOM      5  C   UNL     1      44.685   4.528  13.172  0.00  0.00    +0.000 A 
ATOM      6  C   UNL     1      46.070   4.455  13.354  0.00  0.00    +0.000 A 
ATOM      7  C   UNL     1      46.860   5.603  13.246  0.00  0.00    +0.000 A 
BRANCH   2   8
ATOM      8  S   UNL     1      47.261   8.279  12.808  0.00  0.00    +0.000 S 
ATOM      9  O   UNL     1      46.628   9.200  11.892  0.00  0.00    +0.000 OA
ATOM     10  O   UNL     1      48.641   7.883  12.671  0.00  0.00    +0.000 OA
BRANCH   8  11
ATOM     11  N   UNL     1      47.122   8.967  14.333  0.00  0.00    +0.000 NA
ATOM     12  H   UNL     1      46.772   8.270  14.992  0.00  0.00    +0.000 HD
ATOM     13  H   UNL     1      46.552   9.812  14.286  0.00  0.00    +0.000 HD
ENDBRANCH   8  11
ENDBRANCH   2   8
ENDBRANCH   1   5
BRANCH   1  14
ATOM     14  C   UNL     1      43.962   2.545  12.100  0.00  0.00    +0.000 C 
BRANCH  14  15
ATOM     15  C   UNL     1      43.319   3.323  10.952  0.00  0.00    +0.000 C 
BRANCH  15  16
ATOM     16  C   UNL     1      44.333   3.530   9.852  0.00  0.00    +0.000 A 
ATOM     17  C   UNL     1      44.789   4.817   9.541  0.00  0.00    +0.000 A 
ATOM     18  C   UNL     1      45.812   4.998   8.608  0.00  0.00    +0.000 A 
ATOM     19  C   UNL     1      46.387   3.896   7.970  0.00  0.00    +0.000 A 
ATOM     20  C   UNL     1      45.928   2.613   8.255  0.00  0.00    +0.000 A 
ATOM     21  C   UNL     1      44.913   2.432   9.200  0.00  0.00    +0.000 A 
BRANCH  20  22
ATOM     22  O   UNL     1      46.440   1.466   7.701  0.00  0.00    +0.000 OA
BRANCH  22  23
ATOM     23  C   UNL     1      47.309   1.578   6.551  0.00  0.00    +0.000 C 
ATOM     24  C   UNL     1      46.865   2.550   5.432  0.00  0.00    +0.000 C 
ATOM     25  C   UNL     1      47.116   1.450   4.395  0.00  0.00    +0.000 C 
ATOM     26  C   UNL     1      47.170   0.423   5.531  0.00  0.00    +0.000 C 
ENDBRANCH  22  23
ENDBRANCH  20  22
ENDBRANCH  15  16
ENDBRANCH  14  15
ENDBRANCH   1  14
TORSDOF 8
ENDMDL
MODEL 6
REMARK VINA RESULT:    -6.325      4.152      5.857
REMARK INTER + INTRA:         -10.212
REMARK INTER:                  -8.945
REMARK INTRA:                  -1.267
REMARK UNBOUND:                -1.113
REMARK  Name = 
REMARK  8 active torsions:
REMARK  status: ('A' for Active; 'I' for Inactive)
REMARK    1  A    between atoms: N_1  and  S_2
REMARK    2  A    between atoms: S_2  and  C_5
REMARK    3  A    between atoms: C_8  and  O_9
REMARK    4  A    between atoms: O_9  and  C_10
REMARK    5  A    between atoms: C_10  and  C_11
REMARK    6  A    between atoms: C_11  and  C_12
REMARK    7  A    between atoms: C_16  and  O_17
REMARK    8  A    between atoms: O_17  and  C_18
REMARK                            x       y       z     vdW  Elec       q    Type
REMARK                         _______ _______ _______ _____ _____    ______ ____
ROOT
ATOM      1  O   UNL     1      49.018   6.465  13.150  0.00  0.00    +0.000 OA
ENDROOT
BRANCH   1   5
ATOM      2  C   UNL     1      45.177   4.971  12.539  0.00  0.00    +0.000 A 
ATOM      3  C   UNL     1      45.613   6.000  11.710  0.00  0.00    +0.000 A 
ATOM      4  C   UNL     1      46.899   6.520  11.888  0.00  0.00    +0.000 A 
ATOM      5  C   UNL     1      47.743   6.022  12.890  0.00  0.00    +0.000 A 
ATOM      6  C   UNL     1      47.287   4.989  13.716  0.00  0.00    +0.000 A 
ATOM      7  C   UNL     1      46.002   4.465  13.549  0.00  0.00    +0.000 A 
BRANCH   2   8
ATOM      8  S   UNL     1      43.542   4.320  12.349  0.00  0.00    +0.000 S 
ATOM      9  O   UNL     1      43.487   2.998  12.928  0.00  0.00    +0.000 OA
ATOM     10  O   UNL     1      43.075   4.596  11.013  0.00  0.00    +0.000 OA
BRANCH   8  11
ATOM     11  N   UNL     1      42.654   5.315  13.369  0.00  0.00    +0.000 NA
ATOM     12  H   UNL     1      43.226   5.577  14.173  0.00  0.00    +0.000 HD
ATOM     13  H   UNL     1      41.774   4.865  13.618  0.00  0.00    +0.000 HD
ENDBRANCH   8  11
ENDBRANCH   2   8
ENDBRANCH   1   5
BRANCH   1  14
ATOM     14  C   UNL     1      49.120   7.849  13.498  0.00  0.00    +0.000 C 
BRANCH  14  15
ATOM     15  C   UNL     1      48.796   8.067  14.976  0.00  0.00    +0.000 C 
BRANCH  15  16
ATOM     16  C   UNL     1      49.626   7.128  15.820  0.00  0.00    +0.000 A 
ATOM     17  C   UNL     1      51.023   7.146  15.734  0.00  0.00    +0.000 A 
ATOM     18  C   UNL     1      51.794   6.365  16.598  0.00  0.00    +0.000 A 
ATOM     19  C   UNL     1      51.177   5.553  17.553  0.00  0.00    +0.000 A 
ATOM     20  C   UNL     1      49.788   5.509  17.633  0.00  0.00    +0.000 A 
ATOM     21  C   UNL     1      49.017   6.303  16.777  0.00  0.00    +0.000 A 
BRANCH  20  22
ATOM     22  O   UNL     1      49.087   4.763  18.547  0.00  0.00    +0.000 OA
BRANCH  22  23
ATOM     23  C   UNL     1      48.729   3.405  18.205  0.00  0.00    +0.000 C 
ATOM     24  C   UNL     1      49.673   2.656  17.234  0.00  0.00    +0.000 C 
ATOM     25  C   UNL     1      48.460   2.241  16.394  0.00  0.00    +0.000 C 
ATOM     26  C   UNL     1      47.620   3.290  17.132  0.00  0.00    +0.000 C 
ENDBRANCH  22  23
ENDBRANCH  20  22
ENDBRANCH  15  16
ENDBRANCH  14  15
ENDBRANCH   1  14
TORSDOF 8
ENDMDL
MODEL 7
REMARK VINA RESULT:    -6.290      4.182      5.935
REMARK INTER + INTRA:         -10.161
REMARK INTER:                  -8.761
REMARK INTRA:                  -1.400
REMARK UNBOUND:                -1.113
REMARK  Name = 
REMARK  8 active torsions:
REMARK  status: ('A' for Active; 'I' for Inactive)
REMARK    1  A    between atoms: N_1  and  S_2
REMARK    2  A    between atoms: S_2  and  C_5
REMARK    3  A    between atoms: C_8  and  O_9
REMARK    4  A    between atoms: O_9  and  C_10
REMARK    5  A    between atoms: C_10  and  C_11
REMARK    6  A    between atoms: C_11  and  C_12
REMARK    7  A    between atoms: C_16  and  O_17
REMARK    8  A    between atoms: O_17  and  C_18
REMARK                            x       y       z     vdW  Elec       q    Type
REMARK                         _______ _______ _______ _____ _____    ______ ____
ROOT
ATOM      1  O   UNL     1      48.859   7.180  12.621  0.00  0.00    +0.000 OA
ENDROOT
BRANCH   1   5
ATOM      2  C   UNL     1      45.183   5.221  12.520  0.00  0.00    +0.000 A 
ATOM      3  C   UNL     1      46.036   4.947  13.585  0.00  0.00    +0.000 A 
ATOM      4  C   UNL     1      47.275   5.592  13.649  0.00  0.00    +0.000 A 
ATOM      5  C   UNL     1      47.665   6.500  12.655  0.00  0.00    +0.000 A 
ATOM      6  C   UNL     1      46.796   6.760  11.590  0.00  0.00    +0.000 A 
ATOM      7  C   UNL     1      45.557   6.118  11.514  0.00  0.00    +0.000 A 
BRANCH   2   8
ATOM      8  S   UNL     1      43.623   4.393  12.407  0.00  0.00    +0.000 S 
ATOM      9  O   UNL     1      43.712   3.119  13.082  0.00  0.00    +0.000 OA
ATOM     10  O   UNL     1      43.116   4.518  11.062  0.00  0.00    +0.000 OA
BRANCH   8  11
ATOM     11  N   UNL     1      42.646   5.363  13.367  0.00  0.00    +0.000 NA
ATOM     12  H   UNL     1      42.646   6.316  13.001  0.00  0.00    +0.000 HD
ATOM     13  H   UNL     1      42.935   5.295  14.342  0.00  0.00    +0.000 HD
ENDBRANCH   8  11
ENDBRANCH   2   8
ENDBRANCH   1   5
BRANCH   1  14
ATOM     14  C   UNL     1      49.483   7.376  13.893  0.00  0.00    +0.000 C 
BRANCH  14  15
ATOM     15  C   UNL     1      49.014   8.680  14.537  0.00  0.00    +0.000 C 
BRANCH  15  16
ATOM     16  C   UNL     1      48.732   8.447  16.003  0.00  0.00    +0.000 A 
ATOM     17  C   UNL     1      48.138   9.451  16.779  0.00  0.00    +0.000 A 
ATOM     18  C   UNL     1      47.769   9.195  18.101  0.00  0.00    +0.000 A 
ATOM     19  C   UNL     1      47.994   7.937  18.665  0.00  0.00    +0.000 A 
ATOM     20  C   UNL     1      48.603   6.938  17.911  0.00  0.00    +0.000 A 
ATOM     21  C   UNL     1      48.960   7.190  16.582  0.00  0.00    +0.000 A 
BRANCH  20  22
ATOM     22  O   UNL     1      48.848   5.665  18.363  0.00  0.00    +0.000 OA
BRANCH  22  23
ATOM     23  C   UNL     1      48.588   4.552  17.477  0.00  0.00    +0.000 C 
ATOM     24  C   UNL     1      47.106   4.243  17.160  0.00  0.00    +0.000 C 
ATOM     25  C   UNL     1      47.356   2.767  17.488  0.00  0.00    +0.000 C 
ATOM     26  C   UNL     1      48.679   3.164  18.155  0.00  0.00    +0.000 C 
ENDBRANCH  22  23
ENDBRANCH  20  22
ENDBRANCH  15  16
ENDBRANCH  14  15
ENDBRANCH   1  14
TORSDOF 8
ENDMDL
MODEL 8
REMARK VINA RESULT:    -6.134      4.231      7.788
REMARK INTER + INTRA:          -9.937
REMARK INTER:                  -8.960
REMARK INTRA:                  -0.978
REMARK UNBOUND:                -1.113
REMARK  Name = 
REMARK  8 active torsions:
REMARK  status: ('A' for Active; 'I' for Inactive)
REMARK    1  A    between atoms: N_1  and  S_2
REMARK    2  A    between atoms: S_2  and  C_5
REMARK    3  A    between atoms: C_8  and  O_9
REMARK    4  A    between atoms: O_9  and  C_10
REMARK    5  A    between atoms: C_10  and  C_11
REMARK    6  A    between atoms: C_11  and  C_12
REMARK    7  A    between atoms: C_16  and  O_17
REMARK    8  A    between atoms: O_17  and  C_18
REMARK                            x       y       z     vdW  Elec       q    Type
REMARK                         _______ _______ _______ _____ _____    ______ ____
ROOT
ATOM      1  O   UNL     1      45.816   5.955  13.247  0.00  0.00    +0.000 OA
ENDROOT
BRANCH   1   5
ATOM      2  C   UNL     1      48.324   9.044  12.013  0.00  0.00    +0.000 A 
ATOM      3  C   UNL     1      47.224   9.375  12.799  0.00  0.00    +0.000 A 
ATOM      4  C   UNL     1      46.366   8.360  13.232  0.00  0.00    +0.000 A 
ATOM      5  C   UNL     1      46.598   7.023  12.880  0.00  0.00    +0.000 A 
ATOM      6  C   UNL     1      47.707   6.709  12.086  0.00  0.00    +0.000 A 
ATOM      7  C   UNL     1      48.569   7.717  11.644  0.00  0.00    +0.000 A 
BRANCH   2   8
ATOM      8  S   UNL     1      49.405  10.319  11.430  0.00  0.00    +0.000 S 
ATOM      9  O   UNL     1      48.718  11.103  10.431  0.00  0.00    +0.000 OA
ATOM     10  O   UNL     1      50.716   9.762  11.205  0.00  0.00    +0.000 OA
BRANCH   8  11
ATOM     11  N   UNL     1      49.541  11.302  12.784  0.00  0.00    +0.000 NA
ATOM     12  H   UNL     1      50.419  11.821  12.742  0.00  0.00    +0.000 HD
ATOM     13  H   UNL     1      49.429  10.747  13.633  0.00  0.00    +0.000 HD
ENDBRANCH   8  11
ENDBRANCH   2   8
ENDBRANCH   1   5
BRANCH   1  14
ATOM     14  C   UNL     1      44.430   6.073  12.913  0.00  0.00    +0.000 C 
BRANCH  14  15
ATOM     15  C   UNL     1      44.247   6.299  11.411  0.00  0.00    +0.000 C 
BRANCH  15  16
ATOM     16  C   UNL     1      44.503   5.006  10.671  0.00  0.00    +0.000 A 
ATOM     17  C   UNL     1      43.895   3.817  11.091  0.00  0.00    +0.000 A 
ATOM     18  C   UNL     1      44.034   2.649  10.340  0.00  0.00    +0.000 A 
ATOM     19  C   UNL     1      44.788   2.654   9.163  0.00  0.00    +0.000 A 
ATOM     20  C   UNL     1      45.416   3.825   8.747  0.00  0.00    +0.000 A 
ATOM     21  C   UNL     1      45.263   4.998   9.492  0.00  0.00    +0.000 A 
BRANCH  20  22
ATOM     22  O   UNL     1      46.158   3.940   7.598  0.00  0.00    +0.000 OA
BRANCH  22  23
ATOM     23  C   UNL     1      46.332   2.772   6.764  0.00  0.00    +0.000 C 
ATOM     24  C   UNL     1      47.620   1.943   6.981  0.00  0.00    +0.000 C 
ATOM     25  C   UNL     1      47.870   1.959   5.469  0.00  0.00    +0.000 C 
ATOM     26  C   UNL     1      46.833   3.080   5.333  0.00  0.00    +0.000 C 
ENDBRANCH  22  23
ENDBRANCH  20  22
ENDBRANCH  15  16
ENDBRANCH  14  15
ENDBRANCH   1  14
TORSDOF 8
ENDMDL
MODEL 9
REMARK VINA RESULT:    -5.801      4.213      7.987
REMARK INTER + INTRA:          -9.457
REMARK INTER:                  -8.642
REMARK INTRA:                  -0.815
REMARK UNBOUND:                -1.113
REMARK  Name = 
REMARK  8 active torsions:
REMARK  status: ('A' for Active; 'I' for Inactive)
REMARK    1  A    between atoms: N_1  and  S_2
REMARK    2  A    between atoms: S_2  and  C_5
REMARK    3  A    between atoms: C_8  and  O_9
REMARK    4  A    between atoms: O_9  and  C_10
REMARK    5  A    between atoms: C_10  and  C_11
REMARK    6  A    between atoms: C_11  and  C_12
REMARK    7  A    between atoms: C_16  and  O_17
REMARK    8  A    between atoms: O_17  and  C_18
REMARK                            x       y       z     vdW  Elec       q    Type
REMARK                         _______ _______ _______ _____ _____    ______ ____
ROOT
ATOM      1  O   UNL     1      47.709   5.189  13.410  0.00  0.00    +0.000 OA
ENDROOT
BRANCH   1   5
ATOM      2  C   UNL     1      48.967   9.151  13.132  0.00  0.00    +0.000 A 
ATOM      3  C   UNL     1      48.648   8.487  11.952  0.00  0.00    +0.000 A 
ATOM      4  C   UNL     1      48.218   7.157  12.013  0.00  0.00    +0.000 A 
ATOM      5  C   UNL     1      48.114   6.491  13.242  0.00  0.00    +0.000 A 
ATOM      6  C   UNL     1      48.443   7.174  14.418  0.00  0.00    +0.000 A 
ATOM      7  C   UNL     1      48.877   8.501  14.368  0.00  0.00    +0.000 A 
BRANCH   2   8
ATOM      8  S   UNL     1      49.542  10.824  13.073  0.00  0.00    +0.000 S 
ATOM      9  O   UNL     1      49.689  11.227  11.693  0.00  0.00    +0.000 OA
ATOM     10  O   UNL     1      50.595  10.999  14.043  0.00  0.00    +0.000 OA
BRANCH   8  11
ATOM     11  N   UNL     1      48.215  11.665  13.666  0.00  0.00    +0.000 NA
ATOM     12  H   UNL     1      48.140  12.564  13.189  0.00  0.00    +0.000 HD
ATOM     13  H   UNL     1      48.274  11.741  14.681  0.00  0.00    +0.000 HD
ENDBRANCH   8  11
ENDBRANCH   2   8
ENDBRANCH   1   5
BRANCH   1  14
ATOM     14  C   UNL     1      46.449   5.025  14.068  0.00  0.00    +0.000 C 
BRANCH  14  15
ATOM     15  C   UNL     1      45.318   5.642  13.245  0.00  0.00    +0.000 C 
BRANCH  15  16
ATOM     16  C   UNL     1      44.933   4.700  12.128  0.00  0.00    +0.000 A 
ATOM     17  C   UNL     1      44.018   3.665  12.357  0.00  0.00    +0.000 A 
ATOM     18  C   UNL     1      43.572   2.871  11.299  0.00  0.00    +0.000 A 
ATOM     19  C   UNL     1      44.039   3.096  10.002  0.00  0.00    +0.000 A 
ATOM     20  C   UNL     1      44.966   4.108   9.765  0.00  0.00    +0.000 A 
ATOM     21  C   UNL     1      45.401   4.913  10.823  0.00  0.00    +0.000 A 
BRANCH  20  22
ATOM     22  O   UNL     1      45.469   4.424   8.528  0.00  0.00    +0.000 OA
BRANCH  22  23
ATOM     23  C   UNL     1      45.589   3.376   7.539  0.00  0.00    +0.000 C 
ATOM     24  C   UNL     1      46.352   2.098   7.964  0.00  0.00    +0.000 C 
ATOM     25  C   UNL     1      47.180   2.180   6.677  0.00  0.00    +0.000 C 
ATOM     26  C   UNL     1      46.693   3.621   6.483  0.00  0.00    +0.000 C 
ENDBRANCH  22  23
ENDBRANCH  20  22
ENDBRANCH  15  16
ENDBRANCH  14  15
ENDBRANCH   1  14
TORSDOF 8
ENDMDL
