MODEL 1
REMARK VINA RESULT:    -7.342      0.000      0.000
REMARK INTER + INTRA:         -12.114
REMARK INTER:                 -10.775
REMARK INTRA:                  -1.339
REMARK UNBOUND:                -1.339
REMARK  Name = 
REMARK  9 active torsions:
REMARK  status: ('A' for Active; 'I' for Inactive)
REMARK    1  A    between atoms: C_1  and  O_2
REMARK    2  A    between atoms: O_2  and  C_3
REMARK    3  A    between atoms: C_8  and  C_9
REMARK    4  A    between atoms: C_9  and  C_11
REMARK    5  A    between atoms: C_11  and  C_12
REMARK    6  A    between atoms: C_12  and  C_13
REMARK    7  A    between atoms: C_16  and  C_17
REMARK    8  A    between atoms: C_17  and  N_18
REMARK    9  A    between atoms: C_19  and  C_21
REMARK                            x       y       z     vdW  Elec       q    Type
REMARK                         _______ _______ _______ _____ _____    ______ ____
ROOT
ATOM      1  C   UNL     1      47.734   6.168  14.525  0.00  0.00    +0.000 A 
ATOM      2  C   UNL     1      47.116   4.919  14.375  0.00  0.00    +0.000 A 
ATOM      3  C   UNL     1      47.231   3.937  15.369  0.00  0.00    +0.000 A 
ATOM      4  C   UNL     1      47.964   4.187  16.535  0.00  0.00    +0.000 A 
ATOM      5  C   UNL     1      48.620   5.414  16.666  0.00  0.00    +0.000 A 
ATOM      6  C   UNL     1      48.509   6.389  15.672  0.00  0.00    +0.000 A 
ENDROOT
BRANCH   1   7
ATOM      7  C   UNL     1      47.595   7.210  13.430  0.00  0.00    +0.000 C 
BRANCH   7   8
ATOM      8  C   UNL     1      47.442   6.608  12.032  0.00  0.00    +0.000 C 
BRANCH   8   9
ATOM      9  C   UNL     1      46.043   6.713  11.469  0.00  0.00    +0.000 C 
ATOM     10  O   UNL     1      45.411   7.769  11.519  0.00  0.00    +0.000 OA
BRANCH   9  16
ATOM     11  C   UNL     1      44.594   4.566  11.482  0.00  0.00    +0.000 A 
ATOM     12  C   UNL     1      44.136   3.442  10.776  0.00  0.00    +0.000 A 
ATOM     13  C   UNL     1      44.461   3.258   9.430  0.00  0.00    +0.000 A 
ATOM     14  C   UNL     1      45.231   4.202   8.766  0.00  0.00    +0.000 A 
ATOM     15  C   UNL     1      45.705   5.318   9.457  0.00  0.00    +0.000 A 
ATOM     16  C   UNL     1      45.412   5.507  10.819  0.00  0.00    +0.000 A 
BRANCH  11  18
ATOM     17  C   UNL     1      42.827   4.967  13.044  0.00  0.00    +0.000 C 
ATOM     18  O   UNL     1      44.215   4.815  12.772  0.00  0.00    +0.000 OA
ENDBRANCH  11  18
ENDBRANCH   9  16
ENDBRANCH   8   9
ENDBRANCH   7   8
ENDBRANCH   1   7
BRANCH   4  19
ATOM     19  C   UNL     1      48.100   3.151  17.618  0.00  0.00    +0.000 C 
BRANCH  19  20
ATOM     20  N   UNL     1      49.486   2.898  17.916  0.00  0.00    +0.000 N 
ATOM     21  C   UNL     1      50.259   2.106  17.108  0.00  0.00    +0.000 C 
ATOM     22  O   UNL     1      49.827   1.611  16.071  0.00  0.00    +0.000 OA
ATOM     23  H   UNL     1      49.787   3.080  18.868  0.00  0.00    +0.000 HD
BRANCH  21  24
ATOM     24  C   UNL     1      51.657   1.929  17.518  0.00  0.00    +0.000 A 
ATOM     25  C   UNL     1      52.170   0.651  17.695  0.00  0.00    +0.000 A 
ATOM     26  S   UNL     1      53.820   0.630  18.128  0.00  0.00    +0.000 S 
ATOM     27  C   UNL     1      53.894   2.329  18.138  0.00  0.00    +0.000 A 
ATOM     28  N   UNL     1      55.045   2.979  18.466  0.00  0.00    +0.000 NA
ATOM     29  C   UNL     1      54.953   4.265  18.455  0.00  0.00    +0.000 A 
ATOM     30  N   UNL     1      53.814   4.966  18.147  0.00  0.00    +0.000 N 
ATOM     31  C   UNL     1      52.639   4.355  17.793  0.00  0.00    +0.000 A 
ATOM     32  O   UNL     1      51.646   5.008  17.488  0.00  0.00    +0.000 OA
ATOM     33  C   UNL     1      52.685   2.904  17.797  0.00  0.00    +0.000 A 
ATOM     34  H   UNL     1      53.812   5.975  18.146  0.00  0.00    +0.000 HD
ENDBRANCH  21  24
ENDBRANCH  19  20
ENDBRANCH   4  19
TORSDOF 8
ENDMDL
MODEL 2
REMARK VINA RESULT:    -7.282      3.998      9.040
REMARK INTER + INTRA:         -12.026
REMARK INTER:                  -9.971
REMARK INTRA:                  -2.055
REMARK UNBOUND:                -1.339
REMARK  Name = 
REMARK  9 active torsions:
REMARK  status: ('A' for Active; 'I' for Inactive)
REMARK    1  A    between atoms: C_1  and  O_2
REMARK    2  A    between atoms: O_2  and  C_3
REMARK    3  A    between atoms: C_8  and  C_9
REMARK    4  A    between atoms: C_9  and  C_11
REMARK    5  A    between atoms: C_11  and  C_12
REMARK    6  A    between atoms: C_12  and  C_13
REMARK    7  A    between atoms: C_16  and  C_17
REMARK    8  A    between atoms: C_17  and  N_18
REMARK    9  A    between atoms: C_19  and  C_21
REMARK                            x       y       z     vdW  Elec       q    Type
REMARK                         _______ _______ _______ _____ _____    ______ ____
ROOT
ATOM      1  C   UNL     1      48.856   7.873  16.416  0.00  0.00    +0.000 A 
ATOM      2  C   UNL     1      48.885   6.667  15.702  0.00  0.00    +0.000 A 
ATOM      3  C   UNL     1      48.473   6.616  14.362  0.00  0.00    +0.000 A 
ATOM      4  C   UNL     1      48.026   7.771  13.710  0.00  0.00    +0.000 A 
ATOM      5  C   UNL     1      47.952   8.964  14.434  0.00  0.00    +0.000 A 
ATOM      6  C   UNL     1      48.358   9.012  15.769  0.00  0.00    +0.000 A 
ENDROOT
BRANCH   1   7
ATOM      7  C   UNL     1      49.305   7.897  17.865  0.00  0.00    +0.000 C 
BRANCH   7   8
ATOM      8  C   UNL     1      48.213   7.471  18.849  0.00  0.00    +0.000 C 
BRANCH   8   9
ATOM      9  C   UNL     1      48.461   6.128  19.498  0.00  0.00    +0.000 C 
ATOM     10  O   UNL     1      48.571   6.020  20.719  0.00  0.00    +0.000 OA
BRANCH   9  16
ATOM     11  C   UNL     1      49.763   4.222  18.323  0.00  0.00    +0.000 A 
ATOM     12  C   UNL     1      49.725   3.131  17.440  0.00  0.00    +0.000 A 
ATOM     13  C   UNL     1      48.518   2.695  16.889  0.00  0.00    +0.000 A 
ATOM     14  C   UNL     1      47.331   3.330  17.226  0.00  0.00    +0.000 A 
ATOM     15  C   UNL     1      47.354   4.424  18.091  0.00  0.00    +0.000 A 
ATOM     16  C   UNL     1      48.562   4.896  18.636  0.00  0.00    +0.000 A 
BRANCH  11  18
ATOM     17  C   UNL     1      52.104   3.875  18.675  0.00  0.00    +0.000 C 
ATOM     18  O   UNL     1      50.917   4.611  18.946  0.00  0.00    +0.000 OA
ENDBRANCH  11  18
ENDBRANCH   9  16
ENDBRANCH   8   9
ENDBRANCH   7   8
ENDBRANCH   1   7
BRANCH   4  19
ATOM     19  C   UNL     1      47.582   7.742  12.272  0.00  0.00    +0.000 C 
BRANCH  19  20
ATOM     20  N   UNL     1      46.881   6.520  11.976  0.00  0.00    +0.000 N 
ATOM     21  C   UNL     1      45.516   6.435  12.074  0.00  0.00    +0.000 C 
ATOM     22  O   UNL     1      44.821   7.403  12.372  0.00  0.00    +0.000 OA
ATOM     23  H   UNL     1      47.432   5.668  11.976  0.00  0.00    +0.000 HD
BRANCH  21  24
ATOM     24  C   UNL     1      44.921   5.136  11.742  0.00  0.00    +0.000 A 
ATOM     25  C   UNL     1      44.224   4.427  12.709  0.00  0.00    +0.000 A 
ATOM     26  S   UNL     1      43.562   2.961  12.140  0.00  0.00    +0.000 S 
ATOM     27  C   UNL     1      44.223   3.202  10.592  0.00  0.00    +0.000 A 
ATOM     28  N   UNL     1      44.052   2.279   9.605  0.00  0.00    +0.000 NA
ATOM     29  C   UNL     1      44.626   2.579   8.489  0.00  0.00    +0.000 A 
ATOM     30  N   UNL     1      45.357   3.719   8.267  0.00  0.00    +0.000 N 
ATOM     31  C   UNL     1      45.539   4.683   9.224  0.00  0.00    +0.000 A 
ATOM     32  O   UNL     1      46.169   5.709   8.986  0.00  0.00    +0.000 OA
ATOM     33  C   UNL     1      44.920   4.392  10.504  0.00  0.00    +0.000 A 
ATOM     34  H   UNL     1      45.772   3.900   7.365  0.00  0.00    +0.000 HD
ENDBRANCH  21  24
ENDBRANCH  19  20
ENDBRANCH   4  19
TORSDOF 8
ENDMDL
MODEL 3
REMARK VINA RESULT:    -7.110      3.743      5.708
REMARK INTER + INTRA:         -11.774
REMARK INTER:                 -10.962
REMARK INTRA:                  -0.812
REMARK UNBOUND:                -1.339
REMARK  Name = 
REMARK  9 active torsions:
REMARK  status: ('A' for Active; 'I' for Inactive)
REMARK    1  A    between atoms: C_1  and  O_2
REMARK    2  A    between atoms: O_2  and  C_3
REMARK    3  A    between atoms: C_8  and  C_9
REMARK    4  A    between atoms: C_9  and  C_11
REMARK    5  A    between atoms: C_11  and  C_12
REMARK    6  A    between atoms: C_12  and  C_13
REMARK    7  A    between atoms: C_16  and  C_17
REMARK    8  A    between atoms: C_17  and  N_18
REMARK    9  A    between atoms: C_19  and  C_21
REMARK                            x       y       z     vdW  Elec       q    Type
REMARK                         _______ _______ _______ _____ _____    ______ ____
ROOT
ATOM      1  C   UNL     1      45.106   4.888  11.335  0.00  0.00    +0.000 A 
ATOM      2  C   UNL     1      45.562   4.288  12.517  0.00  0.00    +0.000 A 
ATOM      3  C   UNL     1      46.535   4.912  13.310  0.00  0.00    +0.000 A 
ATOM      4  C   UNL     1      47.068   6.151  12.939  0.00  0.00    +0.000 A 
ATOM      5  C   UNL     1      46.649   6.730  11.737  0.00  0.00    +0.000 A 
ATOM      6  C   UNL     1      45.684   6.105  10.946  0.00  0.00    +0.000 A 
ENDROOT
BRANCH   1   7
ATOM      7  C   UNL     1      44.054   4.188  10.495  0.00  0.00    +0.000 C 
BRANCH   7   8
ATOM      8  C   UNL     1      44.492   3.946   9.048  0.00  0.00    +0.000 C 
BRANCH   8   9
ATOM      9  C   UNL     1      45.203   2.629   8.835  0.00  0.00    +0.000 C 
ATOM     10  O   UNL     1      45.076   1.698   9.631  0.00  0.00    +0.000 OA
BRANCH   9  16
ATOM     11  C   UNL     1      46.799   1.274   7.310  0.00  0.00    +0.000 A 
ATOM     12  C   UNL     1      47.636   1.264   6.183  0.00  0.00    +0.000 A 
ATOM     13  C   UNL     1      47.741   2.385   5.357  0.00  0.00    +0.000 A 
ATOM     14  C   UNL     1      46.997   3.523   5.634  0.00  0.00    +0.000 A 
ATOM     15  C   UNL     1      46.171   3.554   6.757  0.00  0.00    +0.000 A 
ATOM     16  C   UNL     1      46.072   2.445   7.617  0.00  0.00    +0.000 A 
BRANCH  11  18
ATOM     17  C   UNL     1      46.724  -1.113   7.459  0.00  0.00    +0.000 C 
ATOM     18  O   UNL     1      46.609   0.160   8.082  0.00  0.00    +0.000 OA
ENDBRANCH  11  18
ENDBRANCH   9  16
ENDBRANCH   8   9
ENDBRANCH   7   8
ENDBRANCH   1   7
BRANCH   4  19
ATOM     19  C   UNL     1      48.111   6.843  13.775  0.00  0.00    +0.000 C 
BRANCH  19  20
ATOM     20  N   UNL     1      47.980   6.481  15.162  0.00  0.00    +0.000 N 
ATOM     21  C   UNL     1      49.078   6.323  15.968  0.00  0.00    +0.000 C 
ATOM     22  O   UNL     1      50.220   6.525  15.564  0.00  0.00    +0.000 OA
ATOM     23  H   UNL     1      47.094   6.073  15.444  0.00  0.00    +0.000 HD
BRANCH  21  24
ATOM     24  C   UNL     1      48.811   5.956  17.364  0.00  0.00    +0.000 A 
ATOM     25  C   UNL     1      49.034   4.655  17.792  0.00  0.00    +0.000 A 
ATOM     26  S   UNL     1      48.715   4.416  19.451  0.00  0.00    +0.000 S 
ATOM     27  C   UNL     1      48.224   6.033  19.644  0.00  0.00    +0.000 A 
ATOM     28  N   UNL     1      47.786   6.495  20.848  0.00  0.00    +0.000 NA
ATOM     29  C   UNL     1      47.424   7.733  20.845  0.00  0.00    +0.000 A 
ATOM     30  N   UNL     1      47.458   8.556  19.748  0.00  0.00    +0.000 N 
ATOM     31  C   UNL     1      47.908   8.140  18.521  0.00  0.00    +0.000 A 
ATOM     32  O   UNL     1      47.960   8.909  17.566  0.00  0.00    +0.000 OA
ATOM     33  C   UNL     1      48.321   6.750  18.466  0.00  0.00    +0.000 A 
ATOM     34  H   UNL     1      47.171   9.520  19.816  0.00  0.00    +0.000 HD
ENDBRANCH  21  24
ENDBRANCH  19  20
ENDBRANCH   4  19
TORSDOF 8
ENDMDL
MODEL 4
REMARK VINA RESULT:    -7.012      4.065      8.945
REMARK INTER + INTRA:         -11.631
REMARK INTER:                  -9.857
REMARK INTRA:                  -1.773
REMARK UNBOUND:                -1.339
REMARK  Name = 
REMARK  9 active torsions:
REMARK  status: ('A' for Active; 'I' for Inactive)
REMARK    1  A    between atoms: C_1  and  O_2
REMARK    2  A    between atoms: O_2  and  C_3
REMARK    3  A    between atoms: C_8  and  C_9
REMARK    4  A    between atoms: C_9  and  C_11
REMARK    5  A    between atoms: C_11  and  C_12
REMARK    6  A    between atoms: C_12  and  C_13
REMARK    7  A    between atoms: C_16  and  C_17
REMARK    8  A    between atoms: C_17  and  N_18
REMARK    9  A    between atoms: C_19  and  C_21
REMARK                            x       y       z     vdW  Elec       q    Type
REMARK                         _______ _______ _______ _____ _____    ______ ____
ROOT
ATOM      1  C   UNL     1      50.389   7.312  15.540  0.00  0.00    +0.000 A 
ATOM      2  C   UNL     1      49.101   6.760  15.537  0.00  0.00    +0.000 A 
ATOM      3  C   UNL     1      48.275   6.870  14.410  0.00  0.00    +0.000 A 
ATOM      4  C   UNL     1      48.722   7.533  13.262  0.00  0.00    +0.000 A 
ATOM      5  C   UNL     1      49.988   8.126  13.278  0.00  0.00    +0.000 A 
ATOM      6  C   UNL     1      50.808   8.019  14.403  0.00  0.00    +0.000 A 
ENDROOT
BRANCH   1   7
ATOM      7  C   UNL     1      51.260   7.180  16.775  0.00  0.00    +0.000 C 
BRANCH   7   8
ATOM      8  C   UNL     1      51.827   5.772  16.973  0.00  0.00    +0.000 C 
BRANCH   8   9
ATOM      9  C   UNL     1      51.167   4.997  18.091  0.00  0.00    +0.000 C 
ATOM     10  O   UNL     1      51.700   4.890  19.196  0.00  0.00    +0.000 OA
BRANCH   9  16
ATOM     11  C   UNL     1      48.594   4.841  18.351  0.00  0.00    +0.000 A 
ATOM     12  C   UNL     1      47.424   4.100  18.126  0.00  0.00    +0.000 A 
ATOM     13  C   UNL     1      47.460   2.904  17.405  0.00  0.00    +0.000 A 
ATOM     14  C   UNL     1      48.660   2.443  16.883  0.00  0.00    +0.000 A 
ATOM     15  C   UNL     1      49.834   3.162  17.109  0.00  0.00    +0.000 A 
ATOM     16  C   UNL     1      49.824   4.354  17.856  0.00  0.00    +0.000 A 
BRANCH  11  18
ATOM     17  C   UNL     1      47.582   6.283  19.970  0.00  0.00    +0.000 C 
ATOM     18  O   UNL     1      48.572   6.060  18.974  0.00  0.00    +0.000 OA
ENDBRANCH  11  18
ENDBRANCH   9  16
ENDBRANCH   8   9
ENDBRANCH   7   8
ENDBRANCH   1   7
BRANCH   4  19
ATOM     19  C   UNL     1      47.855   7.662  12.038  0.00  0.00    +0.000 C 
BRANCH  19  20
ATOM     20  N   UNL     1      47.089   6.463  11.823  0.00  0.00    +0.000 N 
ATOM     21  C   UNL     1      45.718   6.475  11.842  0.00  0.00    +0.000 C 
ATOM     22  O   UNL     1      45.076   7.510  11.997  0.00  0.00    +0.000 OA
ATOM     23  H   UNL     1      47.579   5.582  11.943  0.00  0.00    +0.000 HD
BRANCH  21  24
ATOM     24  C   UNL     1      45.054   5.188  11.606  0.00  0.00    +0.000 A 
ATOM     25  C   UNL     1      44.354   4.571  12.633  0.00  0.00    +0.000 A 
ATOM     26  S   UNL     1      43.609   3.108  12.172  0.00  0.00    +0.000 S 
ATOM     27  C   UNL     1      44.234   3.225  10.594  0.00  0.00    +0.000 A 
ATOM     28  N   UNL     1      43.991   2.255   9.669  0.00  0.00    +0.000 NA
ATOM     29  C   UNL     1      44.544   2.461   8.523  0.00  0.00    +0.000 A 
ATOM     30  N   UNL     1      45.320   3.549   8.212  0.00  0.00    +0.000 N 
ATOM     31  C   UNL     1      45.575   4.558   9.104  0.00  0.00    +0.000 A 
ATOM     32  O   UNL     1      46.244   5.537   8.787  0.00  0.00    +0.000 OA
ATOM     33  C   UNL     1      44.982   4.373  10.416  0.00  0.00    +0.000 A 
ATOM     34  H   UNL     1      45.715   3.656   7.290  0.00  0.00    +0.000 HD
ENDBRANCH  21  24
ENDBRANCH  19  20
ENDBRANCH   4  19
TORSDOF 8
ENDMDL
MODEL 5
REMARK VINA RESULT:    -7.002      3.478      5.638
REMARK INTER + INTRA:         -11.615
REMARK INTER:                 -10.895
REMARK INTRA:                  -0.720
REMARK UNBOUND:                -1.339
REMARK  Name = 
REMARK  9 active torsions:
REMARK  status: ('A' for Active; 'I' for Inactive)
REMARK    1  A    between atoms: C_1  and  O_2
REMARK    2  A    between atoms: O_2  and  C_3
REMARK    3  A    between atoms: C_8  and  C_9
REMARK    4  A    between atoms: C_9  and  C_11
REMARK    5  A    between atoms: C_11  and  C_12
REMARK    6  A    between atoms: C_12  and  C_13
REMARK    7  A    between atoms: C_16  and  C_17
REMARK    8  A    between atoms: C_17  and  N_18
REMARK    9  A    between atoms: C_19  and  C_21
REMARK                            x       y       z     vdW  Elec       q    Type
REMARK                         _______ _______ _______ _____ _____    ______ ____
ROOT
ATOM      1  C   UNL     1      45.190   5.015  11.435  0.00  0.00    +0.000 A 
ATOM      2  C   UNL     1      45.684   4.761  12.722  0.00  0.00    +0.000 A 
ATOM      3  C   UNL     1      46.433   5.728  13.407  0.00  0.00    +0.000 A 
ATOM      4  C   UNL     1      46.699   6.970  12.820  0.00  0.00    +0.000 A 
ATOM      5  C   UNL     1      46.248   7.208  11.519  0.00  0.00    +0.000 A 
ATOM      6  C   UNL     1      45.507   6.242  10.836  0.00  0.00    +0.000 A 
ENDROOT
BRANCH   1   7
ATOM      7  C   UNL     1      44.385   3.948  10.716  0.00  0.00    +0.000 C 
BRANCH   7   8
ATOM      8  C   UNL     1      44.667   3.882   9.213  0.00  0.00    +0.000 C 
BRANCH   8   9
ATOM      9  C   UNL     1      45.039   2.502   8.719  0.00  0.00    +0.000 C 
ATOM     10  O   UNL     1      44.565   1.490   9.234  0.00  0.00    +0.000 OA
BRANCH   9  16
ATOM     11  C   UNL     1      46.810   1.233   7.319  0.00  0.00    +0.000 A 
ATOM     12  C   UNL     1      47.721   1.266   6.251  0.00  0.00    +0.000 A 
ATOM     13  C   UNL     1      47.818   2.386   5.424  0.00  0.00    +0.000 A 
ATOM     14  C   UNL     1      46.993   3.481   5.639  0.00  0.00    +0.000 A 
ATOM     15  C   UNL     1      46.092   3.470   6.703  0.00  0.00    +0.000 A 
ATOM     16  C   UNL     1      45.999   2.362   7.565  0.00  0.00    +0.000 A 
BRANCH  11  18
ATOM     17  C   UNL     1      46.707  -1.154   7.447  0.00  0.00    +0.000 C 
ATOM     18  O   UNL     1      46.633   0.114   8.086  0.00  0.00    +0.000 OA
ENDBRANCH  11  18
ENDBRANCH   9  16
ENDBRANCH   8   9
ENDBRANCH   7   8
ENDBRANCH   1   7
BRANCH   4  19
ATOM     19  C   UNL     1      47.498   8.026  13.536  0.00  0.00    +0.000 C 
BRANCH  19  20
ATOM     20  N   UNL     1      47.737   7.649  14.905  0.00  0.00    +0.000 N 
ATOM     21  C   UNL     1      48.897   7.023  15.283  0.00  0.00    +0.000 C 
ATOM     22  O   UNL     1      49.806   6.796  14.490  0.00  0.00    +0.000 OA
ATOM     23  H   UNL     1      46.925   7.597  15.511  0.00  0.00    +0.000 HD
BRANCH  21  24
ATOM     24  C   UNL     1      49.022   6.693  16.708  0.00  0.00    +0.000 A 
ATOM     25  C   UNL     1      49.434   7.664  17.609  0.00  0.00    +0.000 A 
ATOM     26  S   UNL     1      49.481   7.121  19.226  0.00  0.00    +0.000 S 
ATOM     27  C   UNL     1      48.995   5.556  18.771  0.00  0.00    +0.000 A 
ATOM     28  N   UNL     1      48.864   4.565  19.696  0.00  0.00    +0.000 NA
ATOM     29  C   UNL     1      48.511   3.425  19.209  0.00  0.00    +0.000 A 
ATOM     30  N   UNL     1      48.276   3.180  17.880  0.00  0.00    +0.000 N 
ATOM     31  C   UNL     1      48.377   4.150  16.916  0.00  0.00    +0.000 A 
ATOM     32  O   UNL     1      48.127   3.910  15.739  0.00  0.00    +0.000 OA
ATOM     33  C   UNL     1      48.780   5.454  17.409  0.00  0.00    +0.000 A 
ATOM     34  H   UNL     1      47.991   2.264  17.565  0.00  0.00    +0.000 HD
ENDBRANCH  21  24
ENDBRANCH  19  20
ENDBRANCH   4  19
TORSDOF 8
ENDMDL
MODEL 6
REMARK VINA RESULT:    -6.921      4.691      9.131
REMARK INTER + INTRA:         -11.497
REMARK INTER:                  -9.356
REMARK INTRA:                  -2.141
REMARK UNBOUND:                -1.339
REMARK  Name = 
REMARK  9 active torsions:
REMARK  status: ('A' for Active; 'I' for Inactive)
REMARK    1  A    between atoms: C_1  and  O_2
REMARK    2  A    between atoms: O_2  and  C_3
REMARK    3  A    between atoms: C_8  and  C_9
REMARK    4  A    between atoms: C_9  and  C_11
REMARK    5  A    between atoms: C_11  and  C_12
REMARK    6  A    between atoms: C_12  and  C_13
REMARK    7  A    between atoms: C_16  and  C_17
REMARK    8  A    between atoms: C_17  and  N_18
REMARK    9  A    between atoms: C_19  and  C_21
REMARK                            x       y       z     vdW  Elec       q    Type
REMARK                         _______ _______ _______ _____ _____    ______ ____
ROOT
ATOM      1  C   UNL     1      48.462   5.501  20.250  0.00  0.00    +0.000 A 
ATOM      2  C   UNL     1      47.269   5.811  19.583  0.00  0.00    +0.000 A 
ATOM      3  C   UNL     1      46.950   5.202  18.361  0.00  0.00    +0.000 A 
ATOM      4  C   UNL     1      47.817   4.267  17.784  0.00  0.00    +0.000 A 
ATOM      5  C   UNL     1      49.028   3.991  18.424  0.00  0.00    +0.000 A 
ATOM      6  C   UNL     1      49.347   4.602  19.638  0.00  0.00    +0.000 A 
ENDROOT
BRANCH   1   7
ATOM      7  C   UNL     1      48.781   6.179  21.570  0.00  0.00    +0.000 C 
BRANCH   7   8
ATOM      8  C   UNL     1      50.144   6.877  21.581  0.00  0.00    +0.000 C 
BRANCH   8   9
ATOM      9  C   UNL     1      50.113   8.291  21.047  0.00  0.00    +0.000 C 
ATOM     10  O   UNL     1      50.574   9.229  21.698  0.00  0.00    +0.000 OA
BRANCH   9  16
ATOM     11  C   UNL     1      48.280   9.192  19.454  0.00  0.00    +0.000 A 
ATOM     12  C   UNL     1      47.807   9.305  18.137  0.00  0.00    +0.000 A 
ATOM     13  C   UNL     1      48.553   8.818  17.062  0.00  0.00    +0.000 A 
ATOM     14  C   UNL     1      49.790   8.230  17.285  0.00  0.00    +0.000 A 
ATOM     15  C   UNL     1      50.269   8.099  18.588  0.00  0.00    +0.000 A 
ATOM     16  C   UNL     1      49.520   8.557  19.687  0.00  0.00    +0.000 A 
BRANCH  11  18
ATOM     17  C   UNL     1      46.535  10.628  20.239  0.00  0.00    +0.000 C 
ATOM     18  O   UNL     1      47.611   9.741  20.514  0.00  0.00    +0.000 OA
ENDBRANCH  11  18
ENDBRANCH   9  16
ENDBRANCH   8   9
ENDBRANCH   7   8
ENDBRANCH   1   7
BRANCH   4  19
ATOM     19  C   UNL     1      47.496   3.597  16.475  0.00  0.00    +0.000 C 
BRANCH  19  20
ATOM     20  N   UNL     1      46.871   4.521  15.565  0.00  0.00    +0.000 N 
ATOM     21  C   UNL     1      46.782   4.255  14.223  0.00  0.00    +0.000 C 
ATOM     22  O   UNL     1      47.186   3.202  13.738  0.00  0.00    +0.000 OA
ATOM     23  H   UNL     1      46.763   5.476  15.890  0.00  0.00    +0.000 HD
BRANCH  21  24
ATOM     24  C   UNL     1      46.120   5.274  13.402  0.00  0.00    +0.000 A 
ATOM     25  C   UNL     1      46.761   6.477  13.140  0.00  0.00    +0.000 A 
ATOM     26  S   UNL     1      45.867   7.525  12.135  0.00  0.00    +0.000 S 
ATOM     27  C   UNL     1      44.571   6.427  12.051  0.00  0.00    +0.000 A 
ATOM     28  N   UNL     1      43.441   6.727  11.353  0.00  0.00    +0.000 NA
ATOM     29  C   UNL     1      42.532   5.814  11.393  0.00  0.00    +0.000 A 
ATOM     30  N   UNL     1      42.645   4.624  12.068  0.00  0.00    +0.000 N 
ATOM     31  C   UNL     1      43.771   4.272  12.767  0.00  0.00    +0.000 A 
ATOM     32  O   UNL     1      43.858   3.186  13.332  0.00  0.00    +0.000 OA
ATOM     33  C   UNL     1      44.825   5.269  12.762  0.00  0.00    +0.000 A 
ATOM     34  H   UNL     1      41.899   3.946  12.050  0.00  0.00    +0.000 HD
ENDBRANCH  21  24
ENDBRANCH  19  20
ENDBRANCH   4  19
TORSDOF 8
ENDMDL
MODEL 7
REMARK VINA RESULT:    -6.900      4.405      9.587
REMARK INTER + INTRA:         -11.466
REMARK INTER:                  -9.391
REMARK INTRA:                  -2.074
REMARK UNBOUND:                -1.339
REMARK  Name = 
REMARK  9 active torsions:
REMARK  status: ('A' for Active; 'I' for Inactive)
REMARK    1  A    between atoms: C_1  and  O_2
REMARK    2  A    between atoms: O_2  and  C_3
REMARK    3  A    between atoms: C_8  and  C_9
REMARK    4  A    between atoms: C_9  and  C_11
REMARK    5  A    between atoms: C_11  and  C_12
REMARK    6  A    between atoms: C_12  and  C_13
REMARK    7  A    between atoms: C_16  and  C_17
REMARK    8  A    between atoms: C_17  and  N_18
REMARK    9  A    between atoms: C_19  and  C_21
REMARK                            x       y       z     vdW  Elec       q    Type
REMARK                         _______ _______ _______ _____ _____    ______ ____
ROOT
ATOM      1  C   UNL     1      50.874   5.355  18.164  0.00  0.00    +0.000 A 
ATOM      2  C   UNL     1      49.880   6.152  17.578  0.00  0.00    +0.000 A 
ATOM      3  C   UNL     1      48.735   5.572  17.015  0.00  0.00    +0.000 A 
ATOM      4  C   UNL     1      48.558   4.184  17.031  0.00  0.00    +0.000 A 
ATOM      5  C   UNL     1      49.569   3.384  17.572  0.00  0.00    +0.000 A 
ATOM      6  C   UNL     1      50.712   3.963  18.128  0.00  0.00    +0.000 A 
ENDROOT
BRANCH   1   7
ATOM      7  C   UNL     1      52.105   6.010  18.763  0.00  0.00    +0.000 C 
BRANCH   7   8
ATOM      8  C   UNL     1      52.456   5.487  20.158  0.00  0.00    +0.000 C 
BRANCH   8   9
ATOM      9  C   UNL     1      51.697   6.165  21.276  0.00  0.00    +0.000 C 
ATOM     10  O   UNL     1      52.284   6.657  22.240  0.00  0.00    +0.000 OA
BRANCH   9  16
ATOM     11  C   UNL     1      49.464   7.426  20.911  0.00  0.00    +0.000 A 
ATOM     12  C   UNL     1      48.062   7.388  20.957  0.00  0.00    +0.000 A 
ATOM     13  C   UNL     1      47.385   6.207  21.265  0.00  0.00    +0.000 A 
ATOM     14  C   UNL     1      48.098   5.043  21.514  0.00  0.00    +0.000 A 
ATOM     15  C   UNL     1      49.493   5.067  21.486  0.00  0.00    +0.000 A 
ATOM     16  C   UNL     1      50.194   6.253  21.204  0.00  0.00    +0.000 A 
BRANCH  11  18
ATOM     17  C   UNL     1      49.555   9.381  19.535  0.00  0.00    +0.000 C 
ATOM     18  O   UNL     1      50.147   8.547  20.523  0.00  0.00    +0.000 OA
ENDBRANCH  11  18
ENDBRANCH   9  16
ENDBRANCH   8   9
ENDBRANCH   7   8
ENDBRANCH   1   7
BRANCH   4  19
ATOM     19  C   UNL     1      47.336   3.537  16.436  0.00  0.00    +0.000 C 
BRANCH  19  20
ATOM     20  N   UNL     1      46.662   4.440  15.540  0.00  0.00    +0.000 N 
ATOM     21  C   UNL     1      46.862   4.386  14.185  0.00  0.00    +0.000 C 
ATOM     22  O   UNL     1      47.584   3.540  13.664  0.00  0.00    +0.000 OA
ATOM     23  H   UNL     1      46.273   5.283  15.951  0.00  0.00    +0.000 HD
BRANCH  21  24
ATOM     24  C   UNL     1      46.115   5.358  13.378  0.00  0.00    +0.000 A 
ATOM     25  C   UNL     1      46.663   6.605  13.115  0.00  0.00    +0.000 A 
ATOM     26  S   UNL     1      45.680   7.591  12.129  0.00  0.00    +0.000 S 
ATOM     27  C   UNL     1      44.466   6.401  12.057  0.00  0.00    +0.000 A 
ATOM     28  N   UNL     1      43.307   6.621  11.377  0.00  0.00    +0.000 NA
ATOM     29  C   UNL     1      42.468   5.643  11.425  0.00  0.00    +0.000 A 
ATOM     30  N   UNL     1      42.678   4.462  12.091  0.00  0.00    +0.000 N 
ATOM     31  C   UNL     1      43.836   4.190  12.772  0.00  0.00    +0.000 A 
ATOM     32  O   UNL     1      44.010   3.111  13.329  0.00  0.00    +0.000 OA
ATOM     33  C   UNL     1      44.815   5.261  12.757  0.00  0.00    +0.000 A 
ATOM     34  H   UNL     1      41.983   3.731  12.080  0.00  0.00    +0.000 HD
ENDBRANCH  21  24
ENDBRANCH  19  20
ENDBRANCH   4  19
TORSDOF 8
ENDMDL
MODEL 8
REMARK VINA RESULT:    -6.867      3.982      8.909
REMARK INTER + INTRA:         -11.417
REMARK INTER:                 -10.122
REMARK INTRA:                  -1.295
REMARK UNBOUND:                -1.339
REMARK  Name = 
REMARK  9 active torsions:
REMARK  status: ('A' for Active; 'I' for Inactive)
REMARK    1  A    between atoms: C_1  and  O_2
REMARK    2  A    between atoms: O_2  and  C_3
REMARK    3  A    between atoms: C_8  and  C_9
REMARK    4  A    between atoms: C_9  and  C_11
REMARK    5  A    between atoms: C_11  and  C_12
REMARK    6  A    between atoms: C_12  and  C_13
REMARK    7  A    between atoms: C_16  and  C_17
REMARK    8  A    between atoms: C_17  and  N_18
REMARK    9  A    between atoms: C_19  and  C_21
REMARK                            x       y       z     vdW  Elec       q    Type
REMARK                         _______ _______ _______ _____ _____    ______ ____
ROOT
ATOM      1  C   UNL     1      50.154   7.003  15.791  0.00  0.00    +0.000 A 
ATOM      2  C   UNL     1      50.887   7.657  14.790  0.00  0.00    +0.000 A 
ATOM      3  C   UNL     1      50.281   8.020  13.579  0.00  0.00    +0.000 A 
ATOM      4  C   UNL     1      48.930   7.740  13.346  0.00  0.00    +0.000 A 
ATOM      5  C   UNL     1      48.210   7.048  14.324  0.00  0.00    +0.000 A 
ATOM      6  C   UNL     1      48.816   6.682  15.527  0.00  0.00    +0.000 A 
ENDROOT
BRANCH   1   7
ATOM      7  C   UNL     1      50.837   6.619  17.091  0.00  0.00    +0.000 C 
BRANCH   7   8
ATOM      8  C   UNL     1      49.909   6.675  18.306  0.00  0.00    +0.000 C 
BRANCH   8   9
ATOM      9  C   UNL     1      49.685   5.335  18.969  0.00  0.00    +0.000 C 
ATOM     10  O   UNL     1      49.153   5.251  20.076  0.00  0.00    +0.000 OA
BRANCH   9  16
ATOM     11  C   UNL     1      49.236   3.202  17.570  0.00  0.00    +0.000 A 
ATOM     12  C   UNL     1      49.749   2.018  17.018  0.00  0.00    +0.000 A 
ATOM     13  C   UNL     1      51.107   1.708  17.121  0.00  0.00    +0.000 A 
ATOM     14  C   UNL     1      51.973   2.584  17.760  0.00  0.00    +0.000 A 
ATOM     15  C   UNL     1      51.476   3.758  18.326  0.00  0.00    +0.000 A 
ATOM     16  C   UNL     1      50.107   4.076  18.256  0.00  0.00    +0.000 A 
BRANCH  11  18
ATOM     17  C   UNL     1      47.432   3.694  16.076  0.00  0.00    +0.000 C 
ATOM     18  O   UNL     1      47.929   3.572  17.403  0.00  0.00    +0.000 OA
ENDBRANCH  11  18
ENDBRANCH   9  16
ENDBRANCH   8   9
ENDBRANCH   7   8
ENDBRANCH   1   7
BRANCH   4  19
ATOM     19  C   UNL     1      48.256   8.123  12.056  0.00  0.00    +0.000 C 
BRANCH  19  20
ATOM     20  N   UNL     1      47.573   6.994  11.479  0.00  0.00    +0.000 N 
ATOM     21  C   UNL     1      46.205   6.942  11.414  0.00  0.00    +0.000 C 
ATOM     22  O   UNL     1      45.496   7.868  11.798  0.00  0.00    +0.000 OA
ATOM     23  H   UNL     1      48.108   6.136  11.391  0.00  0.00    +0.000 HD
BRANCH  21  24
ATOM     24  C   UNL     1      45.630   5.739  10.800  0.00  0.00    +0.000 A 
ATOM     25  C   UNL     1      45.818   5.495   9.447  0.00  0.00    +0.000 A 
ATOM     26  S   UNL     1      45.120   4.034   8.912  0.00  0.00    +0.000 S 
ATOM     27  C   UNL     1      44.503   3.698  10.461  0.00  0.00    +0.000 A 
ATOM     28  N   UNL     1      43.761   2.580  10.693  0.00  0.00    +0.000 NA
ATOM     29  C   UNL     1      43.339   2.464  11.906  0.00  0.00    +0.000 A 
ATOM     30  N   UNL     1      43.590   3.362  12.912  0.00  0.00    +0.000 N 
ATOM     31  C   UNL     1      44.347   4.490  12.729  0.00  0.00    +0.000 A 
ATOM     32  O   UNL     1      44.584   5.258  13.657  0.00  0.00    +0.000 OA
ATOM     33  C   UNL     1      44.842   4.675  11.378  0.00  0.00    +0.000 A 
ATOM     34  H   UNL     1      43.239   3.205  13.845  0.00  0.00    +0.000 HD
ENDBRANCH  21  24
ENDBRANCH  19  20
ENDBRANCH   4  19
TORSDOF 8
ENDMDL
MODEL 9
REMARK VINA RESULT:    -6.789      1.903      3.112
REMARK INTER + INTRA:         -11.304
REMARK INTER:                 -10.198
REMARK INTRA:                  -1.105
REMARK UNBOUND:                -1.339
REMARK  Name = 
REMARK  9 active torsions:
REMARK  status: ('A' for Active; 'I' for Inactive)
REMARK    1  A    between atoms: C_1  and  O_2
REMARK    2  A    between atoms: O_2  and  C_3
REMARK    3  A    between atoms: C_8  and  C_9
REMARK    4  A    between atoms: C_9  and  C_11
REMARK    5  A    between atoms: C_11  and  C_12
REMARK    6  A    between atoms: C_12  and  C_13
REMARK    7  A    between atoms: C_16  and  C_17
REMARK    8  A    between atoms: C_17  and  N_18
REMARK    9  A    between atoms: C_19  and  C_21
REMARK                            x       y       z     vdW  Elec       q    Type
REMARK                         _______ _______ _______ _____ _____    ______ ____
ROOT
ATOM      1  C   UNL     1      47.637   7.608  13.567  0.00  0.00    +0.000 A 
ATOM      2  C   UNL     1      47.659   8.861  14.195  0.00  0.00    +0.000 A 
ATOM      3  C   UNL     1      48.314   9.038  15.422  0.00  0.00    +0.000 A 
ATOM      4  C   UNL     1      48.964   7.966  16.043  0.00  0.00    +0.000 A 
ATOM      5  C   UNL     1      48.904   6.705  15.442  0.00  0.00    +0.000 A 
ATOM      6  C   UNL     1      48.247   6.529  14.223  0.00  0.00    +0.000 A 
ENDROOT
BRANCH   1   7
ATOM      7  C   UNL     1      46.916   7.445  12.242  0.00  0.00    +0.000 C 
BRANCH   7   8
ATOM      8  C   UNL     1      46.379   6.031  12.010  0.00  0.00    +0.000 C 
BRANCH   8   9
ATOM      9  C   UNL     1      45.168   5.975  11.106  0.00  0.00    +0.000 C 
ATOM     10  O   UNL     1      44.228   6.756  11.249  0.00  0.00    +0.000 OA
BRANCH   9  16
ATOM     11  C   UNL     1      44.248   3.841   9.963  0.00  0.00    +0.000 A 
ATOM     12  C   UNL     1      44.359   2.920   8.910  0.00  0.00    +0.000 A 
ATOM     13  C   UNL     1      45.299   3.102   7.893  0.00  0.00    +0.000 A 
ATOM     14  C   UNL     1      46.127   4.215   7.904  0.00  0.00    +0.000 A 
ATOM     15  C   UNL     1      46.038   5.133   8.951  0.00  0.00    +0.000 A 
ATOM     16  C   UNL     1      45.116   4.953   9.999  0.00  0.00    +0.000 A 
BRANCH  11  18
ATOM     17  C   UNL     1      43.471   2.796  11.970  0.00  0.00    +0.000 C 
ATOM     18  O   UNL     1      43.275   3.734  10.920  0.00  0.00    +0.000 OA
ENDBRANCH  11  18
ENDBRANCH   9  16
ENDBRANCH   8   9
ENDBRANCH   7   8
ENDBRANCH   1   7
BRANCH   4  19
ATOM     19  C   UNL     1      49.678   8.131  17.358  0.00  0.00    +0.000 C 
BRANCH  19  20
ATOM     20  N   UNL     1      50.585   7.037  17.591  0.00  0.00    +0.000 N 
ATOM     21  C   UNL     1      50.317   6.072  18.527  0.00  0.00    +0.000 C 
ATOM     22  O   UNL     1      49.277   6.065  19.179  0.00  0.00    +0.000 OA
ATOM     23  H   UNL     1      51.537   7.157  17.259  0.00  0.00    +0.000 HD
BRANCH  21  24
ATOM     24  C   UNL     1      51.318   5.008  18.667  0.00  0.00    +0.000 A 
ATOM     25  C   UNL     1      52.485   5.246  19.379  0.00  0.00    +0.000 A 
ATOM     26  S   UNL     1      53.514   3.889  19.479  0.00  0.00    +0.000 S 
ATOM     27  C   UNL     1      52.456   2.950  18.535  0.00  0.00    +0.000 A 
ATOM     28  N   UNL     1      52.760   1.663  18.210  0.00  0.00    +0.000 NA
ATOM     29  C   UNL     1      51.880   1.077  17.472  0.00  0.00    +0.000 A 
ATOM     30  N   UNL     1      50.721   1.659  17.025  0.00  0.00    +0.000 N 
ATOM     31  C   UNL     1      50.365   2.945  17.342  0.00  0.00    +0.000 A 
ATOM     32  O   UNL     1      49.305   3.427  16.956  0.00  0.00    +0.000 OA
ATOM     33  C   UNL     1      51.325   3.654  18.166  0.00  0.00    +0.000 A 
ATOM     34  H   UNL     1      50.067   1.141  16.457  0.00  0.00    +0.000 HD
ENDBRANCH  21  24
ENDBRANCH  19  20
ENDBRANCH   4  19
TORSDOF 8
ENDMDL
