MODEL 1
REMARK VINA RESULT:    -7.896      0.000      0.000
REMARK INTER + INTRA:         -10.318
REMARK INTER:                  -9.743
REMARK INTRA:                  -0.576
REMARK UNBOUND:                -0.576
REMARK  Name = 
REMARK  4 active torsions:
REMARK  status: ('A' for Active; 'I' for Inactive)
REMARK    1  A    between atoms: C_4  and  C_5
REMARK    2  A    between atoms: C_5  and  O_6
REMARK    3  A    between atoms: O_6  and  C_7
REMARK    4  A    between atoms: C_14  and  C_15
REMARK                            x       y       z     vdW  Elec       q    Type
REMARK                         _______ _______ _______ _____ _____    ______ ____
ROOT
ATOM      1  F   UNL     1      42.485   4.950  13.312  0.00  0.00    +0.000 F 
ATOM      2  C   UNL     1      43.498   5.063  12.442  0.00  0.00    +0.000 A 
ATOM      3  C   UNL     1      43.333   4.608  11.143  0.00  0.00    +0.000 A 
ATOM      4  C   UNL     1      44.394   4.702  10.240  0.00  0.00    +0.000 A 
ATOM      5  C   UNL     1      45.604   5.283  10.667  0.00  0.00    +0.000 A 
ATOM      6  C   UNL     1      45.786   5.755  11.984  0.00  0.00    +0.000 A 
ATOM      7  C   UNL     1      44.699   5.630  12.864  0.00  0.00    +0.000 A 
ENDROOT
BRANCH   6   8
ATOM      8  C   UNL     1      47.073   6.344  12.421  0.00  0.00    +0.000 A 
ATOM      9  C   UNL     1      47.780   7.270  11.636  0.00  0.00    +0.000 A 
ATOM     10  C   UNL     1      48.986   7.812  12.082  0.00  0.00    +0.000 A 
ATOM     11  C   UNL     1      49.465   7.423  13.319  0.00  0.00    +0.000 A 
ATOM     12  N   UNL     1      48.832   6.540  14.115  0.00  0.00    +0.000 NA
ATOM     13  C   UNL     1      47.668   6.023  13.645  0.00  0.00    +0.000 A 
ENDBRANCH   6   8
BRANCH   4  14
ATOM     14  C   UNL     1      44.248   4.195   8.827  0.00  0.00    +0.000 C 
BRANCH  14  15
ATOM     15  O   UNL     1      45.470   4.415   8.125  0.00  0.00    +0.000 OA
BRANCH  15  16
ATOM     16  C   UNL     1      46.095   3.302   7.637  0.00  0.00    +0.000 A 
ATOM     17  C   UNL     1      46.860   3.226   6.475  0.00  0.00    +0.000 A 
ATOM     18  C   UNL     1      47.440   2.012   6.108  0.00  0.00    +0.000 A 
ATOM     19  C   UNL     1      47.234   0.909   6.917  0.00  0.00    +0.000 A 
ATOM     20  N   UNL     1      46.498   0.938   8.047  0.00  0.00    +0.000 NA
ATOM     21  C   UNL     1      45.946   2.132   8.376  0.00  0.00    +0.000 A 
ENDBRANCH  15  16
ENDBRANCH  14  15
ENDBRANCH   4  14
TORSDOF 4
ENDMDL
MODEL 2
REMARK VINA RESULT:    -7.498      2.119      2.460
REMARK INTER + INTRA:          -9.827
REMARK INTER:                  -9.153
REMARK INTRA:                  -0.674
REMARK UNBOUND:                -0.576
REMARK  Name = 
REMARK  4 active torsions:
REMARK  status: ('A' for Active; 'I' for Inactive)
REMARK    1  A    between atoms: C_4  and  C_5
REMARK    2  A    between atoms: C_5  and  O_6
REMARK    3  A    between atoms: O_6  and  C_7
REMARK    4  A    between atoms: C_14  and  C_15
REMARK                            x       y       z     vdW  Elec       q    Type
REMARK                         _______ _______ _______ _____ _____    ______ ____
ROOT
ATOM      1  F   UNL     1      47.136   3.238  14.208  0.00  0.00    +0.000 F 
ATOM      2  C   UNL     1      46.522   4.027  13.315  0.00  0.00    +0.000 A 
ATOM      3  C   UNL     1      45.527   3.496  12.508  0.00  0.00    +0.000 A 
ATOM      4  C   UNL     1      44.902   4.309  11.560  0.00  0.00    +0.000 A 
ATOM      5  C   UNL     1      45.282   5.661  11.464  0.00  0.00    +0.000 A 
ATOM      6  C   UNL     1      46.289   6.219  12.281  0.00  0.00    +0.000 A 
ATOM      7  C   UNL     1      46.902   5.364  13.212  0.00  0.00    +0.000 A 
ENDROOT
BRANCH   6   8
ATOM      8  C   UNL     1      46.690   7.638  12.151  0.00  0.00    +0.000 A 
ATOM      9  C   UNL     1      48.028   8.028  11.973  0.00  0.00    +0.000 A 
ATOM     10  C   UNL     1      48.369   9.375  11.845  0.00  0.00    +0.000 A 
ATOM     11  C   UNL     1      47.358  10.317  11.887  0.00  0.00    +0.000 A 
ATOM     12  N   UNL     1      46.060  10.004  12.055  0.00  0.00    +0.000 NA
ATOM     13  C   UNL     1      45.764   8.685  12.189  0.00  0.00    +0.000 A 
ENDBRANCH   6   8
BRANCH   4  14
ATOM     14  C   UNL     1      43.833   3.750  10.655  0.00  0.00    +0.000 C 
BRANCH  14  15
ATOM     15  O   UNL     1      44.113   4.136   9.311  0.00  0.00    +0.000 OA
BRANCH  15  16
ATOM     16  C   UNL     1      45.078   3.414   8.664  0.00  0.00    +0.000 A 
ATOM     17  C   UNL     1      46.022   3.911   7.769  0.00  0.00    +0.000 A 
ATOM     18  C   UNL     1      46.948   3.044   7.189  0.00  0.00    +0.000 A 
ATOM     19  C   UNL     1      46.900   1.703   7.525  0.00  0.00    +0.000 A 
ATOM     20  N   UNL     1      46.000   1.180   8.384  0.00  0.00    +0.000 NA
ATOM     21  C   UNL     1      45.112   2.048   8.929  0.00  0.00    +0.000 A 
ENDBRANCH  15  16
ENDBRANCH  14  15
ENDBRANCH   4  14
TORSDOF 4
ENDMDL
MODEL 3
REMARK VINA RESULT:    -7.250      1.889      2.568
REMARK INTER + INTRA:          -9.521
REMARK INTER:                  -8.851
REMARK INTRA:                  -0.670
REMARK UNBOUND:                -0.576
REMARK  Name = 
REMARK  4 active torsions:
REMARK  status: ('A' for Active; 'I' for Inactive)
REMARK    1  A    between atoms: C_4  and  C_5
REMARK    2  A    between atoms: C_5  and  O_6
REMARK    3  A    between atoms: O_6  and  C_7
REMARK    4  A    between atoms: C_14  and  C_15
REMARK                            x       y       z     vdW  Elec       q    Type
REMARK                         _______ _______ _______ _____ _____    ______ ____
ROOT
ATOM      1  F   UNL     1      44.520   8.031  11.462  0.00  0.00    +0.000 F 
ATOM      2  C   UNL     1      44.906   6.795  11.808  0.00  0.00    +0.000 A 
ATOM      3  C   UNL     1      44.455   5.711  11.071  0.00  0.00    +0.000 A 
ATOM      4  C   UNL     1      44.835   4.419  11.443  0.00  0.00    +0.000 A 
ATOM      5  C   UNL     1      45.692   4.252  12.548  0.00  0.00    +0.000 A 
ATOM      6  C   UNL     1      46.164   5.346  13.305  0.00  0.00    +0.000 A 
ATOM      7  C   UNL     1      45.747   6.626  12.906  0.00  0.00    +0.000 A 
ENDROOT
BRANCH   6   8
ATOM      8  C   UNL     1      47.047   5.148  14.477  0.00  0.00    +0.000 A 
ATOM      9  C   UNL     1      46.941   4.027  15.317  0.00  0.00    +0.000 A 
ATOM     10  C   UNL     1      47.796   3.868  16.408  0.00  0.00    +0.000 A 
ATOM     11  C   UNL     1      48.757   4.835  16.638  0.00  0.00    +0.000 A 
ATOM     12  N   UNL     1      48.907   5.929  15.868  0.00  0.00    +0.000 NA
ATOM     13  C   UNL     1      48.051   6.059  14.822  0.00  0.00    +0.000 A 
ENDBRANCH   6   8
BRANCH   4  14
ATOM     14  C   UNL     1      44.341   3.221  10.672  0.00  0.00    +0.000 C 
BRANCH  14  15
ATOM     15  O   UNL     1      44.322   3.539   9.282  0.00  0.00    +0.000 OA
BRANCH  15  16
ATOM     16  C   UNL     1      45.302   2.969   8.518  0.00  0.00    +0.000 A 
ATOM     17  C   UNL     1      46.088   3.613   7.565  0.00  0.00    +0.000 A 
ATOM     18  C   UNL     1      47.054   2.892   6.864  0.00  0.00    +0.000 A 
ATOM     19  C   UNL     1      47.204   1.545   7.141  0.00  0.00    +0.000 A 
ATOM     20  N   UNL     1      46.463   0.882   8.052  0.00  0.00    +0.000 NA
ATOM     21  C   UNL     1      45.530   1.610   8.714  0.00  0.00    +0.000 A 
ENDBRANCH  15  16
ENDBRANCH  14  15
ENDBRANCH   4  14
TORSDOF 4
ENDMDL
MODEL 4
REMARK VINA RESULT:    -7.224      1.467      1.740
REMARK INTER + INTRA:          -9.489
REMARK INTER:                  -8.901
REMARK INTRA:                  -0.588
REMARK UNBOUND:                -0.576
REMARK  Name = 
REMARK  4 active torsions:
REMARK  status: ('A' for Active; 'I' for Inactive)
REMARK    1  A    between atoms: C_4  and  C_5
REMARK    2  A    between atoms: C_5  and  O_6
REMARK    3  A    between atoms: O_6  and  C_7
REMARK    4  A    between atoms: C_14  and  C_15
REMARK                            x       y       z     vdW  Elec       q    Type
REMARK                         _______ _______ _______ _____ _____    ______ ____
ROOT
ATOM      1  F   UNL     1      42.611   7.482  11.062  0.00  0.00    +0.000 F 
ATOM      2  C   UNL     1      43.610   6.605  11.237  0.00  0.00    +0.000 A 
ATOM      3  C   UNL     1      43.404   5.270  10.924  0.00  0.00    +0.000 A 
ATOM      4  C   UNL     1      44.434   4.349  11.127  0.00  0.00    +0.000 A 
ATOM      5  C   UNL     1      45.670   4.806  11.624  0.00  0.00    +0.000 A 
ATOM      6  C   UNL     1      45.896   6.162  11.944  0.00  0.00    +0.000 A 
ATOM      7  C   UNL     1      44.830   7.053  11.737  0.00  0.00    +0.000 A 
ENDROOT
BRANCH   6   8
ATOM      8  C   UNL     1      47.196   6.620  12.486  0.00  0.00    +0.000 A 
ATOM      9  C   UNL     1      48.009   7.544  11.808  0.00  0.00    +0.000 A 
ATOM     10  C   UNL     1      49.224   7.961  12.352  0.00  0.00    +0.000 A 
ATOM     11  C   UNL     1      49.606   7.451  13.579  0.00  0.00    +0.000 A 
ATOM     12  N   UNL     1      48.869   6.564  14.274  0.00  0.00    +0.000 NA
ATOM     13  C   UNL     1      47.698   6.170  13.711  0.00  0.00    +0.000 A 
ENDBRANCH   6   8
BRANCH   4  14
ATOM     14  C   UNL     1      44.231   2.888  10.815  0.00  0.00    +0.000 C 
BRANCH  14  15
ATOM     15  O   UNL     1      43.986   2.741   9.418  0.00  0.00    +0.000 OA
BRANCH  15  16
ATOM     16  C   UNL     1      45.091   2.672   8.615  0.00  0.00    +0.000 A 
ATOM     17  C   UNL     1      45.885   1.549   8.396  0.00  0.00    +0.000 A 
ATOM     18  C   UNL     1      46.985   1.637   7.542  0.00  0.00    +0.000 A 
ATOM     19  C   UNL     1      47.255   2.849   6.933  0.00  0.00    +0.000 A 
ATOM     20  N   UNL     1      46.514   3.960   7.121  0.00  0.00    +0.000 NA
ATOM     21  C   UNL     1      45.454   3.844   7.958  0.00  0.00    +0.000 A 
ENDBRANCH  15  16
ENDBRANCH  14  15
ENDBRANCH   4  14
TORSDOF 4
ENDMDL
MODEL 5
REMARK VINA RESULT:    -6.674      3.108      6.996
REMARK INTER + INTRA:          -8.810
REMARK INTER:                  -8.153
REMARK INTRA:                  -0.657
REMARK UNBOUND:                -0.576
REMARK  Name = 
REMARK  4 active torsions:
REMARK  status: ('A' for Active; 'I' for Inactive)
REMARK    1  A    between atoms: C_4  and  C_5
REMARK    2  A    between atoms: C_5  and  O_6
REMARK    3  A    between atoms: O_6  and  C_7
REMARK    4  A    between atoms: C_14  and  C_15
REMARK                            x       y       z     vdW  Elec       q    Type
REMARK                         _______ _______ _______ _____ _____    ______ ____
ROOT
ATOM      1  F   UNL     1      44.454   9.624  11.980  0.00  0.00    +0.000 F 
ATOM      2  C   UNL     1      45.142   8.479  12.087  0.00  0.00    +0.000 A 
ATOM      3  C   UNL     1      46.206   8.406  12.973  0.00  0.00    +0.000 A 
ATOM      4  C   UNL     1      46.941   7.222  13.070  0.00  0.00    +0.000 A 
ATOM      5  C   UNL     1      46.566   6.120  12.279  0.00  0.00    +0.000 A 
ATOM      6  C   UNL     1      45.482   6.177  11.376  0.00  0.00    +0.000 A 
ATOM      7  C   UNL     1      44.778   7.389  11.300  0.00  0.00    +0.000 A 
ENDROOT
BRANCH   6   8
ATOM      8  C   UNL     1      45.116   5.013  10.537  0.00  0.00    +0.000 A 
ATOM      9  C   UNL     1      45.558   4.873   9.211  0.00  0.00    +0.000 A 
ATOM     10  C   UNL     1      45.201   3.759   8.451  0.00  0.00    +0.000 A 
ATOM     11  C   UNL     1      44.409   2.789   9.038  0.00  0.00    +0.000 A 
ATOM     12  N   UNL     1      43.955   2.868  10.303  0.00  0.00    +0.000 NA
ATOM     13  C   UNL     1      44.311   3.971  11.010  0.00  0.00    +0.000 A 
ENDBRANCH   6   8
BRANCH   4  14
ATOM     14  C   UNL     1      48.116   7.123  14.010  0.00  0.00    +0.000 C 
BRANCH  14  15
ATOM     15  O   UNL     1      48.363   5.749  14.301  0.00  0.00    +0.000 OA
BRANCH  15  16
ATOM     16  C   UNL     1      48.089   5.343  15.577  0.00  0.00    +0.000 A 
ATOM     17  C   UNL     1      48.609   5.888  16.749  0.00  0.00    +0.000 A 
ATOM     18  C   UNL     1      48.230   5.363  17.984  0.00  0.00    +0.000 A 
ATOM     19  C   UNL     1      47.339   4.305  18.007  0.00  0.00    +0.000 A 
ATOM     20  N   UNL     1      46.815   3.745  16.898  0.00  0.00    +0.000 NA
ATOM     21  C   UNL     1      47.205   4.276  15.712  0.00  0.00    +0.000 A 
ENDBRANCH  15  16
ENDBRANCH  14  15
ENDBRANCH   4  14
TORSDOF 4
ENDMDL
MODEL 6
REMARK VINA RESULT:    -6.624      2.877      4.028
REMARK INTER + INTRA:          -8.749
REMARK INTER:                  -8.227
REMARK INTRA:                  -0.522
REMARK UNBOUND:                -0.576
REMARK  Name = 
REMARK  4 active torsions:
REMARK  status: ('A' for Active; 'I' for Inactive)
REMARK    1  A    between atoms: C_4  and  C_5
REMARK    2  A    between atoms: C_5  and  O_6
REMARK    3  A    between atoms: O_6  and  C_7
REMARK    4  A    between atoms: C_14  and  C_15
REMARK                            x       y       z     vdW  Elec       q    Type
REMARK                         _______ _______ _______ _____ _____    ______ ____
ROOT
ATOM      1  F   UNL     1      47.555   7.728  12.141  0.00  0.00    +0.000 F 
ATOM      2  C   UNL     1      47.129   6.596  12.718  0.00  0.00    +0.000 A 
ATOM      3  C   UNL     1      46.180   5.819  12.071  0.00  0.00    +0.000 A 
ATOM      4  C   UNL     1      45.715   4.651  12.679  0.00  0.00    +0.000 A 
ATOM      5  C   UNL     1      46.242   4.277  13.930  0.00  0.00    +0.000 A 
ATOM      6  C   UNL     1      47.212   5.055  14.600  0.00  0.00    +0.000 A 
ATOM      7  C   UNL     1      47.642   6.228  13.960  0.00  0.00    +0.000 A 
ENDROOT
BRANCH   6   8
ATOM      8  C   UNL     1      47.739   4.656  15.925  0.00  0.00    +0.000 A 
ATOM      9  C   UNL     1      47.369   3.453  16.550  0.00  0.00    +0.000 A 
ATOM     10  C   UNL     1      47.892   3.104  17.795  0.00  0.00    +0.000 A 
ATOM     11  C   UNL     1      48.791   3.965  18.396  0.00  0.00    +0.000 A 
ATOM     12  N   UNL     1      49.183   5.130  17.847  0.00  0.00    +0.000 NA
ATOM     13  C   UNL     1      48.646   5.445  16.640  0.00  0.00    +0.000 A 
ENDBRANCH   6   8
BRANCH   4  14
ATOM     14  C   UNL     1      44.668   3.799  12.007  0.00  0.00    +0.000 C 
BRANCH  14  15
ATOM     15  O   UNL     1      44.388   4.339  10.717  0.00  0.00    +0.000 OA
BRANCH  15  16
ATOM     16  C   UNL     1      45.004   3.729   9.660  0.00  0.00    +0.000 A 
ATOM     17  C   UNL     1      45.154   2.357   9.468  0.00  0.00    +0.000 A 
ATOM     18  C   UNL     1      45.808   1.885   8.331  0.00  0.00    +0.000 A 
ATOM     19  C   UNL     1      46.294   2.804   7.418  0.00  0.00    +0.000 A 
ATOM     20  N   UNL     1      46.173   4.140   7.566  0.00  0.00    +0.000 NA
ATOM     21  C   UNL     1      45.535   4.567   8.683  0.00  0.00    +0.000 A 
ENDBRANCH  15  16
ENDBRANCH  14  15
ENDBRANCH   4  14
TORSDOF 4
ENDMDL
MODEL 7
REMARK VINA RESULT:    -6.286      2.934      4.413
REMARK INTER + INTRA:          -8.332
REMARK INTER:                  -7.626
REMARK INTRA:                  -0.706
REMARK UNBOUND:                -0.576
REMARK  Name = 
REMARK  4 active torsions:
REMARK  status: ('A' for Active; 'I' for Inactive)
REMARK    1  A    between atoms: C_4  and  C_5
REMARK    2  A    between atoms: C_5  and  O_6
REMARK    3  A    between atoms: O_6  and  C_7
REMARK    4  A    between atoms: C_14  and  C_15
REMARK                            x       y       z     vdW  Elec       q    Type
REMARK                         _______ _______ _______ _____ _____    ______ ____
ROOT
ATOM      1  F   UNL     1      49.908   8.104  11.951  0.00  0.00    +0.000 F 
ATOM      2  C   UNL     1      48.816   7.449  12.369  0.00  0.00    +0.000 A 
ATOM      3  C   UNL     1      47.671   7.469  11.588  0.00  0.00    +0.000 A 
ATOM      4  C   UNL     1      46.524   6.807  12.032  0.00  0.00    +0.000 A 
ATOM      5  C   UNL     1      46.567   6.112  13.255  0.00  0.00    +0.000 A 
ATOM      6  C   UNL     1      47.727   6.079  14.060  0.00  0.00    +0.000 A 
ATOM      7  C   UNL     1      48.854   6.768  13.583  0.00  0.00    +0.000 A 
ENDROOT
BRANCH   6   8
ATOM      8  C   UNL     1      47.747   5.360  15.354  0.00  0.00    +0.000 A 
ATOM      9  C   UNL     1      48.538   5.782  16.436  0.00  0.00    +0.000 A 
ATOM     10  C   UNL     1      48.526   5.086  17.645  0.00  0.00    +0.000 A 
ATOM     11  C   UNL     1      47.709   3.976  17.757  0.00  0.00    +0.000 A 
ATOM     12  N   UNL     1      46.930   3.524  16.757  0.00  0.00    +0.000 NA
ATOM     13  C   UNL     1      46.975   4.218  15.590  0.00  0.00    +0.000 A 
ENDBRANCH   6   8
BRANCH   4  14
ATOM     14  C   UNL     1      45.258   6.831  11.212  0.00  0.00    +0.000 C 
BRANCH  14  15
ATOM     15  O   UNL     1      44.547   5.612  11.420  0.00  0.00    +0.000 OA
BRANCH  15  16
ATOM     16  C   UNL     1      44.674   4.664  10.443  0.00  0.00    +0.000 A 
ATOM     17  C   UNL     1      45.354   4.806   9.236  0.00  0.00    +0.000 A 
ATOM     18  C   UNL     1      45.396   3.741   8.337  0.00  0.00    +0.000 A 
ATOM     19  C   UNL     1      44.755   2.563   8.676  0.00  0.00    +0.000 A 
ATOM     20  N   UNL     1      44.082   2.385   9.831  0.00  0.00    +0.000 NA
ATOM     21  C   UNL     1      44.057   3.440  10.683  0.00  0.00    +0.000 A 
ENDBRANCH  15  16
ENDBRANCH  14  15
ENDBRANCH   4  14
TORSDOF 4
ENDMDL
MODEL 8
REMARK VINA RESULT:    -6.263      3.952      7.319
REMARK INTER + INTRA:          -8.303
REMARK INTER:                  -7.646
REMARK INTRA:                  -0.657
REMARK UNBOUND:                -0.576
REMARK  Name = 
REMARK  4 active torsions:
REMARK  status: ('A' for Active; 'I' for Inactive)
REMARK    1  A    between atoms: C_4  and  C_5
REMARK    2  A    between atoms: C_5  and  O_6
REMARK    3  A    between atoms: O_6  and  C_7
REMARK    4  A    between atoms: C_14  and  C_15
REMARK                            x       y       z     vdW  Elec       q    Type
REMARK                         _______ _______ _______ _____ _____    ______ ____
ROOT
ATOM      1  F   UNL     1      48.890   8.418  11.238  0.00  0.00    +0.000 F 
ATOM      2  C   UNL     1      48.317   7.570  12.103  0.00  0.00    +0.000 A 
ATOM      3  C   UNL     1      48.800   7.492  13.401  0.00  0.00    +0.000 A 
ATOM      4  C   UNL     1      48.221   6.592  14.298  0.00  0.00    +0.000 A 
ATOM      5  C   UNL     1      47.140   5.800  13.868  0.00  0.00    +0.000 A 
ATOM      6  C   UNL     1      46.633   5.871  12.553  0.00  0.00    +0.000 A 
ATOM      7  C   UNL     1      47.252   6.778  11.678  0.00  0.00    +0.000 A 
ENDROOT
BRANCH   6   8
ATOM      8  C   UNL     1      45.508   5.014  12.113  0.00  0.00    +0.000 A 
ATOM      9  C   UNL     1      45.020   5.032  10.796  0.00  0.00    +0.000 A 
ATOM     10  C   UNL     1      43.964   4.205  10.413  0.00  0.00    +0.000 A 
ATOM     11  C   UNL     1      43.414   3.359  11.358  0.00  0.00    +0.000 A 
ATOM     12  N   UNL     1      43.839   3.297  12.634  0.00  0.00    +0.000 NA
ATOM     13  C   UNL     1      44.861   4.124  12.976  0.00  0.00    +0.000 A 
ENDBRANCH   6   8
BRANCH   4  14
ATOM     14  C   UNL     1      48.742   6.472  15.709  0.00  0.00    +0.000 C 
BRANCH  14  15
ATOM     15  O   UNL     1      48.093   5.377  16.352  0.00  0.00    +0.000 OA
BRANCH  15  16
ATOM     16  C   UNL     1      48.880   4.300  16.651  0.00  0.00    +0.000 A 
ATOM     17  C   UNL     1      50.035   4.309  17.429  0.00  0.00    +0.000 A 
ATOM     18  C   UNL     1      50.732   3.121  17.646  0.00  0.00    +0.000 A 
ATOM     19  C   UNL     1      50.250   1.957  17.075  0.00  0.00    +0.000 A 
ATOM     20  N   UNL     1      49.139   1.904  16.312  0.00  0.00    +0.000 NA
ATOM     21  C   UNL     1      48.485   3.076  16.117  0.00  0.00    +0.000 A 
ENDBRANCH  15  16
ENDBRANCH  14  15
ENDBRANCH   4  14
TORSDOF 4
ENDMDL
MODEL 9
REMARK VINA RESULT:    -5.925      3.842      7.297
REMARK INTER + INTRA:          -7.886
REMARK INTER:                  -7.210
REMARK INTRA:                  -0.676
REMARK UNBOUND:                -0.576
REMARK  Name = 
REMARK  4 active torsions:
REMARK  status: ('A' for Active; 'I' for Inactive)
REMARK    1  A    between atoms: C_4  and  C_5
REMARK    2  A    between atoms: C_5  and  O_6
REMARK    3  A    between atoms: O_6  and  C_7
REMARK    4  A    between atoms: C_14  and  C_15
REMARK                            x       y       z     vdW  Elec       q    Type
REMARK                         _______ _______ _______ _____ _____    ______ ____
ROOT
ATOM      1  F   UNL     1      46.141  10.019  12.486  0.00  0.00    +0.000 F 
ATOM      2  C   UNL     1      46.425   8.758  12.838  0.00  0.00    +0.000 A 
ATOM      3  C   UNL     1      47.501   8.512  13.676  0.00  0.00    +0.000 A 
ATOM      4  C   UNL     1      47.815   7.197  14.026  0.00  0.00    +0.000 A 
ATOM      5  C   UNL     1      47.011   6.150  13.535  0.00  0.00    +0.000 A 
ATOM      6  C   UNL     1      45.909   6.384  12.685  0.00  0.00    +0.000 A 
ATOM      7  C   UNL     1      45.636   7.719  12.347  0.00  0.00    +0.000 A 
ENDROOT
BRANCH   6   8
ATOM      8  C   UNL     1      45.088   5.268  12.162  0.00  0.00    +0.000 A 
ATOM      9  C   UNL     1      44.829   5.104  10.791  0.00  0.00    +0.000 A 
ATOM     10  C   UNL     1      44.058   4.036  10.332  0.00  0.00    +0.000 A 
ATOM     11  C   UNL     1      43.563   3.136  11.257  0.00  0.00    +0.000 A 
ATOM     12  N   UNL     1      43.777   3.241  12.582  0.00  0.00    +0.000 NA
ATOM     13  C   UNL     1      44.521   4.299  12.996  0.00  0.00    +0.000 A 
ENDBRANCH   6   8
BRANCH   4  14
ATOM     14  C   UNL     1      48.994   6.900  14.919  0.00  0.00    +0.000 C 
BRANCH  14  15
ATOM     15  O   UNL     1      48.522   6.643  16.240  0.00  0.00    +0.000 OA
BRANCH  15  16
ATOM     16  C   UNL     1      48.579   5.343  16.660  0.00  0.00    +0.000 A 
ATOM     17  C   UNL     1      47.519   4.441  16.704  0.00  0.00    +0.000 A 
ATOM     18  C   UNL     1      47.736   3.140  17.158  0.00  0.00    +0.000 A 
ATOM     19  C   UNL     1      49.012   2.783  17.555  0.00  0.00    +0.000 A 
ATOM     20  N   UNL     1      50.066   3.625  17.531  0.00  0.00    +0.000 NA
ATOM     21  C   UNL     1      49.822   4.883  17.087  0.00  0.00    +0.000 A 
ENDBRANCH  15  16
ENDBRANCH  14  15
ENDBRANCH   4  14
TORSDOF 4
ENDMDL
