MODEL 1
REMARK VINA RESULT:    -8.045      0.000      0.000
REMARK INTER + INTRA:         -12.611
REMARK INTER:                 -11.337
REMARK INTRA:                  -1.274
REMARK UNBOUND:                -1.274
REMARK  Name = 
REMARK  7 active torsions:
REMARK  status: ('A' for Active; 'I' for Inactive)
REMARK    1  A    between atoms: C_2  and  C_3
REMARK    2  A    between atoms: C_3  and  N_4
REMARK    3  A    between atoms: C_3  and  C_17
REMARK    4  A    between atoms: C_5  and  C_7
REMARK    5  A    between atoms: C_20  and  C_21
REMARK    6  A    between atoms: C_21  and  N_22
REMARK    7  A    between atoms: C_23  and  C_25
REMARK                            x       y       z     vdW  Elec       q    Type
REMARK                         _______ _______ _______ _____ _____    ______ ____
ROOT
ATOM      1  C   UNL     1      47.597   5.007  14.880  0.00  0.00    +0.000 C 
ENDROOT
BRANCH   1   2
ATOM      2  C   UNL     1      46.657   4.831  13.686  0.00  0.00    +0.000 A 
ATOM      3  C   UNL     1      46.276   5.942  12.910  0.00  0.00    +0.000 A 
ATOM      4  C   UNL     1      45.485   5.781  11.762  0.00  0.00    +0.000 A 
ATOM      5  C   UNL     1      45.042   4.510  11.371  0.00  0.00    +0.000 A 
ATOM      6  C   UNL     1      45.377   3.412  12.172  0.00  0.00    +0.000 A 
ATOM      7  C   UNL     1      46.143   3.575  13.330  0.00  0.00    +0.000 A 
BRANCH   5   8
ATOM      8  C   UNL     1      44.214   4.302  10.128  0.00  0.00    +0.000 C 
BRANCH   8   9
ATOM      9  N   UNL     1      44.849   3.437   9.165  0.00  0.00    +0.000 N 
ATOM     10  C   UNL     1      45.794   3.922   8.281  0.00  0.00    +0.000 C 
ATOM     11  O   UNL     1      46.163   5.091   8.257  0.00  0.00    +0.000 OA
ATOM     12  H   UNL     1      44.719   2.430   9.193  0.00  0.00    +0.000 HD
BRANCH  10  13
ATOM     13  C   UNL     1      46.359   2.902   7.335  0.00  0.00    +0.000 A 
ATOM     14  C   UNL     1      46.561   3.233   5.999  0.00  0.00    +0.000 A 
ATOM     15  C   UNL     1      47.078   2.257   5.150  0.00  0.00    +0.000 A 
ATOM     16  C   UNL     1      47.366   0.995   5.660  0.00  0.00    +0.000 A 
ATOM     17  C   UNL     1      47.127   0.755   7.005  0.00  0.00    +0.000 A 
ATOM     18  N   UNL     1      46.637   1.677   7.863  0.00  0.00    +0.000 NA
ENDBRANCH  10  13
ENDBRANCH   8   9
ENDBRANCH   5   8
ENDBRANCH   1   2
BRANCH   1  19
ATOM     19  N   UNL     1      47.695   6.417  15.204  0.00  0.00    +0.000 N 
ATOM     20  C   UNL     1      48.903   7.022  15.434  0.00  0.00    +0.000 C 
ATOM     21  O   UNL     1      49.971   6.457  15.225  0.00  0.00    +0.000 OA
ATOM     22  H   UNL     1      46.858   6.829  15.604  0.00  0.00    +0.000 HD
BRANCH  20  23
ATOM     23  C   UNL     1      48.840   8.405  15.911  0.00  0.00    +0.000 A 
ATOM     24  C   UNL     1      49.172   9.466  15.081  0.00  0.00    +0.000 A 
ATOM     25  S   UNL     1      49.111  10.983  15.868  0.00  0.00    +0.000 S 
ATOM     26  C   UNL     1      48.673  10.265  17.349  0.00  0.00    +0.000 A 
ATOM     27  N   UNL     1      48.537  10.997  18.484  0.00  0.00    +0.000 NA
ATOM     28  C   UNL     1      48.239  10.306  19.536  0.00  0.00    +0.000 A 
ATOM     29  N   UNL     1      48.029   8.949  19.545  0.00  0.00    +0.000 N 
ATOM     30  C   UNL     1      48.084   8.182  18.410  0.00  0.00    +0.000 A 
ATOM     31  O   UNL     1      47.753   7.000  18.420  0.00  0.00    +0.000 OA
ATOM     32  C   UNL     1      48.504   8.899  17.222  0.00  0.00    +0.000 A 
ATOM     33  H   UNL     1      47.742   8.473  20.387  0.00  0.00    +0.000 HD
ENDBRANCH  20  23
ENDBRANCH   1  19
BRANCH   1  35
ATOM     34  N   UNL     1      46.833   3.598  16.992  0.00  0.00    +0.000 NA
ATOM     35  C   UNL     1      47.185   4.203  16.069  0.00  0.00    +0.000 C 
ENDBRANCH   1  35
TORSDOF 7
ENDMDL
MODEL 2
REMARK VINA RESULT:    -7.941      1.425      2.256
REMARK INTER + INTRA:         -12.465
REMARK INTER:                 -11.373
REMARK INTRA:                  -1.092
REMARK UNBOUND:                -1.274
REMARK  Name = 
REMARK  7 active torsions:
REMARK  status: ('A' for Active; 'I' for Inactive)
REMARK    1  A    between atoms: C_2  and  C_3
REMARK    2  A    between atoms: C_3  and  N_4
REMARK    3  A    between atoms: C_3  and  C_17
REMARK    4  A    between atoms: C_5  and  C_7
REMARK    5  A    between atoms: C_20  and  C_21
REMARK    6  A    between atoms: C_21  and  N_22
REMARK    7  A    between atoms: C_23  and  C_25
REMARK                            x       y       z     vdW  Elec       q    Type
REMARK                         _______ _______ _______ _____ _____    ______ ____
ROOT
ATOM      1  C   UNL     1      47.543   4.868  14.892  0.00  0.00    +0.000 C 
ENDROOT
BRANCH   1   2
ATOM      2  C   UNL     1      46.615   4.712  13.685  0.00  0.00    +0.000 A 
ATOM      3  C   UNL     1      46.226   5.837  12.936  0.00  0.00    +0.000 A 
ATOM      4  C   UNL     1      45.446   5.696  11.777  0.00  0.00    +0.000 A 
ATOM      5  C   UNL     1      45.022   4.430  11.349  0.00  0.00    +0.000 A 
ATOM      6  C   UNL     1      45.365   3.317  12.125  0.00  0.00    +0.000 A 
ATOM      7  C   UNL     1      46.119   3.459  13.293  0.00  0.00    +0.000 A 
BRANCH   5   8
ATOM      8  C   UNL     1      44.208   4.244  10.095  0.00  0.00    +0.000 C 
BRANCH   8   9
ATOM      9  N   UNL     1      44.850   3.394   9.125  0.00  0.00    +0.000 N 
ATOM     10  C   UNL     1      45.797   3.892   8.251  0.00  0.00    +0.000 C 
ATOM     11  O   UNL     1      46.162   5.062   8.242  0.00  0.00    +0.000 OA
ATOM     12  H   UNL     1      44.724   2.386   9.141  0.00  0.00    +0.000 HD
BRANCH  10  13
ATOM     13  C   UNL     1      46.370   2.885   7.296  0.00  0.00    +0.000 A 
ATOM     14  C   UNL     1      46.570   3.228   5.963  0.00  0.00    +0.000 A 
ATOM     15  C   UNL     1      47.094   2.264   5.106  0.00  0.00    +0.000 A 
ATOM     16  C   UNL     1      47.393   1.000   5.605  0.00  0.00    +0.000 A 
ATOM     17  C   UNL     1      47.156   0.747   6.948  0.00  0.00    +0.000 A 
ATOM     18  N   UNL     1      46.659   1.657   7.813  0.00  0.00    +0.000 NA
ENDBRANCH  10  13
ENDBRANCH   8   9
ENDBRANCH   5   8
ENDBRANCH   1   2
BRANCH   1  19
ATOM     19  N   UNL     1      47.740   6.279  15.160  0.00  0.00    +0.000 N 
ATOM     20  C   UNL     1      48.895   6.751  15.727  0.00  0.00    +0.000 C 
ATOM     21  O   UNL     1      49.882   6.042  15.892  0.00  0.00    +0.000 OA
ATOM     22  H   UNL     1      46.890   6.825  15.256  0.00  0.00    +0.000 HD
BRANCH  20  23
ATOM     23  C   UNL     1      48.890   8.169  16.091  0.00  0.00    +0.000 A 
ATOM     24  C   UNL     1      48.505   8.582  17.358  0.00  0.00    +0.000 A 
ATOM     25  S   UNL     1      48.491  10.283  17.538  0.00  0.00    +0.000 S 
ATOM     26  C   UNL     1      48.966  10.518  15.920  0.00  0.00    +0.000 A 
ATOM     27  N   UNL     1      49.067  11.760  15.380  0.00  0.00    +0.000 NA
ATOM     28  C   UNL     1      49.400  11.775  14.130  0.00  0.00    +0.000 A 
ATOM     29  N   UNL     1      49.677  10.658  13.382  0.00  0.00    +0.000 N 
ATOM     30  C   UNL     1      49.660   9.391  13.905  0.00  0.00    +0.000 A 
ATOM     31  O   UNL     1      50.049   8.425  13.256  0.00  0.00    +0.000 OA
ATOM     32  C   UNL     1      49.203   9.317  15.279  0.00  0.00    +0.000 A 
ATOM     33  H   UNL     1      49.989  10.737  12.425  0.00  0.00    +0.000 HD
ENDBRANCH  20  23
ENDBRANCH   1  19
BRANCH   1  35
ATOM     34  N   UNL     1      46.697   3.600  17.061  0.00  0.00    +0.000 NA
ATOM     35  C   UNL     1      47.049   4.148  16.104  0.00  0.00    +0.000 C 
ENDBRANCH   1  35
TORSDOF 7
ENDMDL
MODEL 3
REMARK VINA RESULT:    -7.745      2.475      3.910
REMARK INTER + INTRA:         -12.188
REMARK INTER:                 -10.921
REMARK INTRA:                  -1.267
REMARK UNBOUND:                -1.274
REMARK  Name = 
REMARK  7 active torsions:
REMARK  status: ('A' for Active; 'I' for Inactive)
REMARK    1  A    between atoms: C_2  and  C_3
REMARK    2  A    between atoms: C_3  and  N_4
REMARK    3  A    between atoms: C_3  and  C_17
REMARK    4  A    between atoms: C_5  and  C_7
REMARK    5  A    between atoms: C_20  and  C_21
REMARK    6  A    between atoms: C_21  and  N_22
REMARK    7  A    between atoms: C_23  and  C_25
REMARK                            x       y       z     vdW  Elec       q    Type
REMARK                         _______ _______ _______ _____ _____    ______ ____
ROOT
ATOM      1  C   UNL     1      47.589   8.070  14.126  0.00  0.00    +0.000 C 
ENDROOT
BRANCH   1   2
ATOM      2  C   UNL     1      46.641   7.297  13.206  0.00  0.00    +0.000 A 
ATOM      3  C   UNL     1      45.760   7.985  12.351  0.00  0.00    +0.000 A 
ATOM      4  C   UNL     1      44.949   7.288  11.442  0.00  0.00    +0.000 A 
ATOM      5  C   UNL     1      44.985   5.889  11.376  0.00  0.00    +0.000 A 
ATOM      6  C   UNL     1      45.823   5.203  12.264  0.00  0.00    +0.000 A 
ATOM      7  C   UNL     1      46.612   5.894  13.188  0.00  0.00    +0.000 A 
BRANCH   5   8
ATOM      8  C   UNL     1      44.147   5.114  10.392  0.00  0.00    +0.000 C 
BRANCH   8   9
ATOM      9  N   UNL     1      44.928   4.481   9.359  0.00  0.00    +0.000 N 
ATOM     10  C   UNL     1      44.949   3.106   9.219  0.00  0.00    +0.000 C 
ATOM     11  O   UNL     1      44.314   2.342   9.937  0.00  0.00    +0.000 OA
ATOM     12  H   UNL     1      45.376   5.024   8.628  0.00  0.00    +0.000 HD
BRANCH  10  13
ATOM     13  C   UNL     1      45.814   2.596   8.103  0.00  0.00    +0.000 A 
ATOM     14  C   UNL     1      46.058   3.398   6.993  0.00  0.00    +0.000 A 
ATOM     15  C   UNL     1      46.858   2.887   5.974  0.00  0.00    +0.000 A 
ATOM     16  C   UNL     1      47.376   1.601   6.097  0.00  0.00    +0.000 A 
ATOM     17  C   UNL     1      47.076   0.873   7.239  0.00  0.00    +0.000 A 
ATOM     18  N   UNL     1      46.314   1.337   8.253  0.00  0.00    +0.000 NA
ENDBRANCH  10  13
ENDBRANCH   8   9
ENDBRANCH   5   8
ENDBRANCH   1   2
BRANCH   1  19
ATOM     19  N   UNL     1      48.394   7.128  14.878  0.00  0.00    +0.000 N 
ATOM     20  C   UNL     1      48.811   7.396  16.156  0.00  0.00    +0.000 C 
ATOM     21  O   UNL     1      48.402   8.362  16.791  0.00  0.00    +0.000 OA
ATOM     22  H   UNL     1      48.924   6.468  14.320  0.00  0.00    +0.000 HD
BRANCH  20  23
ATOM     23  C   UNL     1      49.752   6.433  16.732  0.00  0.00    +0.000 A 
ATOM     24  C   UNL     1      51.041   6.810  17.080  0.00  0.00    +0.000 A 
ATOM     25  S   UNL     1      51.994   5.510  17.651  0.00  0.00    +0.000 S 
ATOM     26  C   UNL     1      50.725   4.398  17.417  0.00  0.00    +0.000 A 
ATOM     27  N   UNL     1      50.892   3.069  17.635  0.00  0.00    +0.000 NA
ATOM     28  C   UNL     1      49.850   2.348  17.376  0.00  0.00    +0.000 A 
ATOM     29  N   UNL     1      48.641   2.845  16.954  0.00  0.00    +0.000 N 
ATOM     30  C   UNL     1      48.406   4.186  16.792  0.00  0.00    +0.000 A 
ATOM     31  O   UNL     1      47.281   4.613  16.552  0.00  0.00    +0.000 OA
ATOM     32  C   UNL     1      49.573   5.025  16.982  0.00  0.00    +0.000 A 
ATOM     33  H   UNL     1      47.846   2.237  16.824  0.00  0.00    +0.000 HD
ENDBRANCH  20  23
ENDBRANCH   1  19
BRANCH   1  35
ATOM     34  N   UNL     1      49.088   9.801  12.789  0.00  0.00    +0.000 NA
ATOM     35  C   UNL     1      48.442   9.050  13.391  0.00  0.00    +0.000 C 
ENDBRANCH   1  35
TORSDOF 7
ENDMDL
MODEL 4
REMARK VINA RESULT:    -7.576      5.056      7.587
REMARK INTER + INTRA:         -11.950
REMARK INTER:                 -10.829
REMARK INTRA:                  -1.121
REMARK UNBOUND:                -1.274
REMARK  Name = 
REMARK  7 active torsions:
REMARK  status: ('A' for Active; 'I' for Inactive)
REMARK    1  A    between atoms: C_2  and  C_3
REMARK    2  A    between atoms: C_3  and  N_4
REMARK    3  A    between atoms: C_3  and  C_17
REMARK    4  A    between atoms: C_5  and  C_7
REMARK    5  A    between atoms: C_20  and  C_21
REMARK    6  A    between atoms: C_21  and  N_22
REMARK    7  A    between atoms: C_23  and  C_25
REMARK                            x       y       z     vdW  Elec       q    Type
REMARK                         _______ _______ _______ _____ _____    ______ ____
ROOT
ATOM      1  C   UNL     1      45.774   5.166  12.901  0.00  0.00    +0.000 C 
ENDROOT
BRANCH   1   2
ATOM      2  C   UNL     1      45.401   6.577  12.442  0.00  0.00    +0.000 A 
ATOM      3  C   UNL     1      44.428   6.767  11.444  0.00  0.00    +0.000 A 
ATOM      4  C   UNL     1      44.016   8.057  11.078  0.00  0.00    +0.000 A 
ATOM      5  C   UNL     1      44.577   9.188  11.686  0.00  0.00    +0.000 A 
ATOM      6  C   UNL     1      45.584   9.000  12.640  0.00  0.00    +0.000 A 
ATOM      7  C   UNL     1      46.013   7.715  12.988  0.00  0.00    +0.000 A 
BRANCH   5   8
ATOM      8  C   UNL     1      44.136  10.586  11.333  0.00  0.00    +0.000 C 
BRANCH   8   9
ATOM      9  N   UNL     1      42.948  10.998  12.037  0.00  0.00    +0.000 N 
ATOM     10  C   UNL     1      41.700  10.911  11.450  0.00  0.00    +0.000 C 
ATOM     11  O   UNL     1      41.512  10.477  10.319  0.00  0.00    +0.000 OA
ATOM     12  H   UNL     1      42.976  11.239  13.024  0.00  0.00    +0.000 HD
BRANCH  10  13
ATOM     13  C   UNL     1      40.562  11.385  12.307  0.00  0.00    +0.000 A 
ATOM     14  C   UNL     1      39.251  11.115  11.930  0.00  0.00    +0.000 A 
ATOM     15  C   UNL     1      38.222  11.578  12.746  0.00  0.00    +0.000 A 
ATOM     16  C   UNL     1      38.537  12.296  13.896  0.00  0.00    +0.000 A 
ATOM     17  C   UNL     1      39.874  12.522  14.189  0.00  0.00    +0.000 A 
ATOM     18  N   UNL     1      40.900  12.079  13.430  0.00  0.00    +0.000 NA
ENDBRANCH  10  13
ENDBRANCH   8   9
ENDBRANCH   5   8
ENDBRANCH   1   2
BRANCH   1  19
ATOM     19  N   UNL     1      46.462   5.246  14.174  0.00  0.00    +0.000 N 
ATOM     20  C   UNL     1      47.145   4.177  14.694  0.00  0.00    +0.000 C 
ATOM     21  O   UNL     1      47.349   3.153  14.051  0.00  0.00    +0.000 OA
ATOM     22  H   UNL     1      46.121   5.962  14.807  0.00  0.00    +0.000 HD
BRANCH  20  23
ATOM     23  C   UNL     1      47.650   4.348  16.058  0.00  0.00    +0.000 A 
ATOM     24  C   UNL     1      47.298   3.465  17.069  0.00  0.00    +0.000 A 
ATOM     25  S   UNL     1      47.928   3.903  18.597  0.00  0.00    +0.000 S 
ATOM     26  C   UNL     1      48.661   5.302  17.961  0.00  0.00    +0.000 A 
ATOM     27  N   UNL     1      49.308   6.192  18.756  0.00  0.00    +0.000 NA
ATOM     28  C   UNL     1      49.778   7.225  18.134  0.00  0.00    +0.000 A 
ATOM     29  N   UNL     1      49.689   7.427  16.779  0.00  0.00    +0.000 N 
ATOM     30  C   UNL     1      49.110   6.520  15.929  0.00  0.00    +0.000 A 
ATOM     31  O   UNL     1      49.169   6.656  14.711  0.00  0.00    +0.000 OA
ATOM     32  C   UNL     1      48.488   5.391  16.593  0.00  0.00    +0.000 A 
ATOM     33  H   UNL     1      50.126   8.224  16.342  0.00  0.00    +0.000 HD
ENDBRANCH  20  23
ENDBRANCH   1  19
BRANCH   1  35
ATOM     34  N   UNL     1      43.709   3.509  13.047  0.00  0.00    +0.000 NA
ATOM     35  C   UNL     1      44.599   4.247  12.975  0.00  0.00    +0.000 C 
ENDBRANCH   1  35
TORSDOF 7
ENDMDL
MODEL 5
REMARK VINA RESULT:    -7.120      5.128      7.700
REMARK INTER + INTRA:         -11.307
REMARK INTER:                 -10.095
REMARK INTRA:                  -1.213
REMARK UNBOUND:                -1.274
REMARK  Name = 
REMARK  7 active torsions:
REMARK  status: ('A' for Active; 'I' for Inactive)
REMARK    1  A    between atoms: C_2  and  C_3
REMARK    2  A    between atoms: C_3  and  N_4
REMARK    3  A    between atoms: C_3  and  C_17
REMARK    4  A    between atoms: C_5  and  C_7
REMARK    5  A    between atoms: C_20  and  C_21
REMARK    6  A    between atoms: C_21  and  N_22
REMARK    7  A    between atoms: C_23  and  C_25
REMARK                            x       y       z     vdW  Elec       q    Type
REMARK                         _______ _______ _______ _____ _____    ______ ____
ROOT
ATOM      1  C   UNL     1      46.124   5.801  12.845  0.00  0.00    +0.000 C 
ENDROOT
BRANCH   1   2
ATOM      2  C   UNL     1      45.550   7.118  12.318  0.00  0.00    +0.000 A 
ATOM      3  C   UNL     1      44.450   7.115  11.441  0.00  0.00    +0.000 A 
ATOM      4  C   UNL     1      43.861   8.317  11.020  0.00  0.00    +0.000 A 
ATOM      5  C   UNL     1      44.367   9.551  11.452  0.00  0.00    +0.000 A 
ATOM      6  C   UNL     1      45.494   9.555  12.282  0.00  0.00    +0.000 A 
ATOM      7  C   UNL     1      46.097   8.358  12.681  0.00  0.00    +0.000 A 
BRANCH   5   8
ATOM      8  C   UNL     1      43.739  10.858  11.040  0.00  0.00    +0.000 C 
BRANCH   8   9
ATOM      9  N   UNL     1      42.653  11.259  11.898  0.00  0.00    +0.000 N 
ATOM     10  C   UNL     1      41.337  11.048  11.532  0.00  0.00    +0.000 C 
ATOM     11  O   UNL     1      41.002  10.508  10.484  0.00  0.00    +0.000 OA
ATOM     12  H   UNL     1      42.820  11.585  12.845  0.00  0.00    +0.000 HD
BRANCH  10  13
ATOM     13  C   UNL     1      40.319  11.525  12.527  0.00  0.00    +0.000 A 
ATOM     14  C   UNL     1      38.962  11.418  12.238  0.00  0.00    +0.000 A 
ATOM     15  C   UNL     1      38.048  11.880  13.181  0.00  0.00    +0.000 A 
ATOM     16  C   UNL     1      38.518  12.435  14.368  0.00  0.00    +0.000 A 
ATOM     17  C   UNL     1      39.889  12.506  14.568  0.00  0.00    +0.000 A 
ATOM     18  N   UNL     1      40.806  12.059  13.682  0.00  0.00    +0.000 NA
ENDBRANCH  10  13
ENDBRANCH   8   9
ENDBRANCH   5   8
ENDBRANCH   1   2
BRANCH   1  19
ATOM     19  N   UNL     1      46.745   6.034  14.134  0.00  0.00    +0.000 N 
ATOM     20  C   UNL     1      48.107   6.061  14.284  0.00  0.00    +0.000 C 
ATOM     21  O   UNL     1      48.873   6.049  13.328  0.00  0.00    +0.000 OA
ATOM     22  H   UNL     1      46.168   5.813  14.939  0.00  0.00    +0.000 HD
BRANCH  20  23
ATOM     23  C   UNL     1      48.592   6.141  15.664  0.00  0.00    +0.000 A 
ATOM     24  C   UNL     1      49.410   7.182  16.077  0.00  0.00    +0.000 A 
ATOM     25  S   UNL     1      49.927   7.031  17.700  0.00  0.00    +0.000 S 
ATOM     26  C   UNL     1      49.101   5.554  17.889  0.00  0.00    +0.000 A 
ATOM     27  N   UNL     1      49.189   4.829  19.033  0.00  0.00    +0.000 NA
ATOM     28  C   UNL     1      48.538   3.712  19.012  0.00  0.00    +0.000 A 
ATOM     29  N   UNL     1      47.776   3.272  17.957  0.00  0.00    +0.000 N 
ATOM     30  C   UNL     1      47.599   4.006  16.813  0.00  0.00    +0.000 A 
ATOM     31  O   UNL     1      46.802   3.658  15.947  0.00  0.00    +0.000 OA
ATOM     32  C   UNL     1      48.384   5.223  16.755  0.00  0.00    +0.000 A 
ATOM     33  H   UNL     1      47.243   2.418  18.022  0.00  0.00    +0.000 HD
ENDBRANCH  20  23
ENDBRANCH   1  19
BRANCH   1  35
ATOM     34  N   UNL     1      44.309   3.871  12.943  0.00  0.00    +0.000 NA
ATOM     35  C   UNL     1      45.106   4.711  12.920  0.00  0.00    +0.000 C 
ENDBRANCH   1  35
TORSDOF 7
ENDMDL
MODEL 6
REMARK VINA RESULT:    -6.650      2.742      3.817
REMARK INTER + INTRA:         -10.645
REMARK INTER:                  -9.640
REMARK INTRA:                  -1.005
REMARK UNBOUND:                -1.274
REMARK  Name = 
REMARK  7 active torsions:
REMARK  status: ('A' for Active; 'I' for Inactive)
REMARK    1  A    between atoms: C_2  and  C_3
REMARK    2  A    between atoms: C_3  and  N_4
REMARK    3  A    between atoms: C_3  and  C_17
REMARK    4  A    between atoms: C_5  and  C_7
REMARK    5  A    between atoms: C_20  and  C_21
REMARK    6  A    between atoms: C_21  and  N_22
REMARK    7  A    between atoms: C_23  and  C_25
REMARK                            x       y       z     vdW  Elec       q    Type
REMARK                         _______ _______ _______ _____ _____    ______ ____
ROOT
ATOM      1  C   UNL     1      47.430   9.360  12.945  0.00  0.00    +0.000 C 
ENDROOT
BRANCH   1   2
ATOM      2  C   UNL     1      46.566   8.249  12.346  0.00  0.00    +0.000 A 
ATOM      3  C   UNL     1      45.205   8.476  12.071  0.00  0.00    +0.000 A 
ATOM      4  C   UNL     1      44.423   7.494  11.443  0.00  0.00    +0.000 A 
ATOM      5  C   UNL     1      44.978   6.256  11.089  0.00  0.00    +0.000 A 
ATOM      6  C   UNL     1      46.318   6.012  11.410  0.00  0.00    +0.000 A 
ATOM      7  C   UNL     1      47.090   6.979  12.060  0.00  0.00    +0.000 A 
BRANCH   5   8
ATOM      8  C   UNL     1      44.172   5.193  10.388  0.00  0.00    +0.000 C 
BRANCH   8   9
ATOM      9  N   UNL     1      44.911   4.512   9.354  0.00  0.00    +0.000 N 
ATOM     10  C   UNL     1      44.954   3.133   9.295  0.00  0.00    +0.000 C 
ATOM     11  O   UNL     1      44.374   2.401  10.090  0.00  0.00    +0.000 OA
ATOM     12  H   UNL     1      45.309   5.019   8.569  0.00  0.00    +0.000 HD
BRANCH  10  13
ATOM     13  C   UNL     1      45.771   2.572   8.166  0.00  0.00    +0.000 A 
ATOM     14  C   UNL     1      46.015   3.346   7.036  0.00  0.00    +0.000 A 
ATOM     15  C   UNL     1      46.768   2.788   6.006  0.00  0.00    +0.000 A 
ATOM     16  C   UNL     1      47.242   1.486   6.138  0.00  0.00    +0.000 A 
ATOM     17  C   UNL     1      46.945   0.789   7.300  0.00  0.00    +0.000 A 
ATOM     18  N   UNL     1      46.227   1.298   8.325  0.00  0.00    +0.000 NA
ENDBRANCH  10  13
ENDBRANCH   8   9
ENDBRANCH   5   8
ENDBRANCH   1   2
BRANCH   1  19
ATOM     19  N   UNL     1      48.650   8.781  13.471  0.00  0.00    +0.000 N 
ATOM     20  C   UNL     1      49.084   9.046  14.745  0.00  0.00    +0.000 C 
ATOM     21  O   UNL     1      48.396   9.650  15.559  0.00  0.00    +0.000 OA
ATOM     22  H   UNL     1      49.329   8.492  12.774  0.00  0.00    +0.000 HD
BRANCH  20  23
ATOM     23  C   UNL     1      50.411   8.528  15.084  0.00  0.00    +0.000 A 
ATOM     24  C   UNL     1      51.560   9.093  14.547  0.00  0.00    +0.000 A 
ATOM     25  S   UNL     1      52.991   8.279  15.008  0.00  0.00    +0.000 S 
ATOM     26  C   UNL     1      52.118   7.129  15.910  0.00  0.00    +0.000 A 
ATOM     27  N   UNL     1      52.732   6.078  16.512  0.00  0.00    +0.000 NA
ATOM     28  C   UNL     1      51.932   5.269  17.126  0.00  0.00    +0.000 A 
ATOM     29  N   UNL     1      50.573   5.438  17.223  0.00  0.00    +0.000 N 
ATOM     30  C   UNL     1      49.921   6.521  16.694  0.00  0.00    +0.000 A 
ATOM     31  O   UNL     1      48.730   6.721  16.916  0.00  0.00    +0.000 OA
ATOM     32  C   UNL     1      50.765   7.408  15.918  0.00  0.00    +0.000 A 
ATOM     33  H   UNL     1      50.008   4.802  17.765  0.00  0.00    +0.000 HD
ENDBRANCH  20  23
ENDBRANCH   1  19
BRANCH   1  35
ATOM     34  N   UNL     1      47.973  11.285  11.205  0.00  0.00    +0.000 NA
ATOM     35  C   UNL     1      47.723  10.457  11.975  0.00  0.00    +0.000 C 
ENDBRANCH   1  35
TORSDOF 7
ENDMDL
MODEL 7
REMARK VINA RESULT:    -6.296      5.772      8.288
REMARK INTER + INTRA:         -10.145
REMARK INTER:                  -8.947
REMARK INTRA:                  -1.198
REMARK UNBOUND:                -1.274
REMARK  Name = 
REMARK  7 active torsions:
REMARK  status: ('A' for Active; 'I' for Inactive)
REMARK    1  A    between atoms: C_2  and  C_3
REMARK    2  A    between atoms: C_3  and  N_4
REMARK    3  A    between atoms: C_3  and  C_17
REMARK    4  A    between atoms: C_5  and  C_7
REMARK    5  A    between atoms: C_20  and  C_21
REMARK    6  A    between atoms: C_21  and  N_22
REMARK    7  A    between atoms: C_23  and  C_25
REMARK                            x       y       z     vdW  Elec       q    Type
REMARK                         _______ _______ _______ _____ _____    ______ ____
ROOT
ATOM      1  C   UNL     1      48.049   7.502  13.007  0.00  0.00    +0.000 C 
ENDROOT
BRANCH   1   2
ATOM      2  C   UNL     1      49.107   8.271  12.214  0.00  0.00    +0.000 A 
ATOM      3  C   UNL     1      48.862   9.592  11.795  0.00  0.00    +0.000 A 
ATOM      4  C   UNL     1      49.857  10.337  11.142  0.00  0.00    +0.000 A 
ATOM      5  C   UNL     1      51.113   9.775  10.877  0.00  0.00    +0.000 A 
ATOM      6  C   UNL     1      51.338   8.444  11.247  0.00  0.00    +0.000 A 
ATOM      7  C   UNL     1      50.339   7.693  11.873  0.00  0.00    +0.000 A 
BRANCH   5   8
ATOM      8  C   UNL     1      52.211  10.559  10.203  0.00  0.00    +0.000 C 
BRANCH   8   9
ATOM      9  N   UNL     1      52.125  10.529   8.765  0.00  0.00    +0.000 N 
ATOM     10  C   UNL     1      52.890   9.652   8.020  0.00  0.00    +0.000 C 
ATOM     11  O   UNL     1      53.671   8.847   8.513  0.00  0.00    +0.000 OA
ATOM     12  H   UNL     1      51.411  11.053   8.268  0.00  0.00    +0.000 HD
BRANCH  10  13
ATOM     13  C   UNL     1      52.694   9.746   6.534  0.00  0.00    +0.000 A 
ATOM     14  C   UNL     1      53.467   8.964   5.682  0.00  0.00    +0.000 A 
ATOM     15  C   UNL     1      53.263   9.085   4.310  0.00  0.00    +0.000 A 
ATOM     16  C   UNL     1      52.307   9.980   3.841  0.00  0.00    +0.000 A 
ATOM     17  C   UNL     1      51.586  10.722   4.765  0.00  0.00    +0.000 A 
ATOM     18  N   UNL     1      51.747  10.625   6.103  0.00  0.00    +0.000 NA
ENDBRANCH  10  13
ENDBRANCH   8   9
ENDBRANCH   5   8
ENDBRANCH   1   2
BRANCH   1  19
ATOM     19  N   UNL     1      47.440   6.507  12.147  0.00  0.00    +0.000 N 
ATOM     20  C   UNL     1      46.221   6.713  11.555  0.00  0.00    +0.000 C 
ATOM     21  O   UNL     1      45.653   7.799  11.585  0.00  0.00    +0.000 OA
ATOM     22  H   UNL     1      47.756   5.554  12.296  0.00  0.00    +0.000 HD
BRANCH  20  23
ATOM     23  C   UNL     1      45.655   5.561  10.850  0.00  0.00    +0.000 A 
ATOM     24  C   UNL     1      45.720   5.464   9.467  0.00  0.00    +0.000 A 
ATOM     25  S   UNL     1      44.921   4.084   8.850  0.00  0.00    +0.000 S 
ATOM     26  C   UNL     1      44.437   3.593  10.407  0.00  0.00    +0.000 A 
ATOM     27  N   UNL     1      43.639   2.511  10.598  0.00  0.00    +0.000 NA
ATOM     28  C   UNL     1      43.324   2.288  11.832  0.00  0.00    +0.000 A 
ATOM     29  N   UNL     1      43.768   3.031  12.898  0.00  0.00    +0.000 N 
ATOM     30  C   UNL     1      44.633   4.086  12.758  0.00  0.00    +0.000 A 
ATOM     31  O   UNL     1      45.125   4.642  13.735  0.00  0.00    +0.000 OA
ATOM     32  C   UNL     1      44.940   4.430  11.384  0.00  0.00    +0.000 A 
ATOM     33  H   UNL     1      43.534   2.773  13.845  0.00  0.00    +0.000 HD
ENDBRANCH  20  23
ENDBRANCH   1  19
BRANCH   1  35
ATOM     34  N   UNL     1      49.046   6.413  15.209  0.00  0.00    +0.000 NA
ATOM     35  C   UNL     1      48.591   6.885  14.255  0.00  0.00    +0.000 C 
ENDBRANCH   1  35
TORSDOF 7
ENDMDL
MODEL 8
REMARK VINA RESULT:    -6.107      4.087      9.029
REMARK INTER + INTRA:          -9.880
REMARK INTER:                  -9.860
REMARK INTRA:                  -0.020
REMARK UNBOUND:                -1.274
REMARK  Name = 
REMARK  7 active torsions:
REMARK  status: ('A' for Active; 'I' for Inactive)
REMARK    1  A    between atoms: C_2  and  C_3
REMARK    2  A    between atoms: C_3  and  N_4
REMARK    3  A    between atoms: C_3  and  C_17
REMARK    4  A    between atoms: C_5  and  C_7
REMARK    5  A    between atoms: C_20  and  C_21
REMARK    6  A    between atoms: C_21  and  N_22
REMARK    7  A    between atoms: C_23  and  C_25
REMARK                            x       y       z     vdW  Elec       q    Type
REMARK                         _______ _______ _______ _____ _____    ______ ____
ROOT
ATOM      1  C   UNL     1      48.246   8.032  12.297  0.00  0.00    +0.000 C 
ENDROOT
BRANCH   1   2
ATOM      2  C   UNL     1      48.400   7.521  13.731  0.00  0.00    +0.000 A 
ATOM      3  C   UNL     1      48.039   6.202  14.059  0.00  0.00    +0.000 A 
ATOM      4  C   UNL     1      48.256   5.696  15.350  0.00  0.00    +0.000 A 
ATOM      5  C   UNL     1      48.823   6.500  16.348  0.00  0.00    +0.000 A 
ATOM      6  C   UNL     1      49.133   7.829  16.035  0.00  0.00    +0.000 A 
ATOM      7  C   UNL     1      48.893   8.341  14.757  0.00  0.00    +0.000 A 
BRANCH   5   8
ATOM      8  C   UNL     1      49.094   5.977  17.736  0.00  0.00    +0.000 C 
BRANCH   8   9
ATOM      9  N   UNL     1      50.214   5.072  17.790  0.00  0.00    +0.000 N 
ATOM     10  C   UNL     1      50.037   3.706  17.681  0.00  0.00    +0.000 C 
ATOM     11  O   UNL     1      48.943   3.175  17.524  0.00  0.00    +0.000 OA
ATOM     12  H   UNL     1      51.170   5.414  17.777  0.00  0.00    +0.000 HD
BRANCH  10  13
ATOM     13  C   UNL     1      51.298   2.895  17.763  0.00  0.00    +0.000 A 
ATOM     14  C   UNL     1      51.290   1.560  17.375  0.00  0.00    +0.000 A 
ATOM     15  C   UNL     1      52.477   0.838  17.474  0.00  0.00    +0.000 A 
ATOM     16  C   UNL     1      53.618   1.469  17.960  0.00  0.00    +0.000 A 
ATOM     17  C   UNL     1      53.530   2.803  18.328  0.00  0.00    +0.000 A 
ATOM     18  N   UNL     1      52.401   3.540  18.237  0.00  0.00    +0.000 NA
ENDBRANCH  10  13
ENDBRANCH   8   9
ENDBRANCH   5   8
ENDBRANCH   1   2
BRANCH   1  19
ATOM     19  N   UNL     1      47.558   7.030  11.507  0.00  0.00    +0.000 N 
ATOM     20  C   UNL     1      46.208   6.825  11.621  0.00  0.00    +0.000 C 
ATOM     21  O   UNL     1      45.483   7.571  12.269  0.00  0.00    +0.000 OA
ATOM     22  H   UNL     1      48.140   6.274  11.164  0.00  0.00    +0.000 HD
BRANCH  20  23
ATOM     23  C   UNL     1      45.677   5.674  10.887  0.00  0.00    +0.000 A 
ATOM     24  C   UNL     1      45.789   5.590   9.507  0.00  0.00    +0.000 A 
ATOM     25  S   UNL     1      45.026   4.208   8.850  0.00  0.00    +0.000 S 
ATOM     26  C   UNL     1      44.494   3.698  10.386  0.00  0.00    +0.000 A 
ATOM     27  N   UNL     1      43.702   2.607  10.540  0.00  0.00    +0.000 NA
ATOM     28  C   UNL     1      43.348   2.369  11.761  0.00  0.00    +0.000 A 
ATOM     29  N   UNL     1      43.749   3.106  12.848  0.00  0.00    +0.000 N 
ATOM     30  C   UNL     1      44.607   4.170  12.747  0.00  0.00    +0.000 A 
ATOM     31  O   UNL     1      45.061   4.723  13.744  0.00  0.00    +0.000 OA
ATOM     32  C   UNL     1      44.957   4.531  11.387  0.00  0.00    +0.000 A 
ATOM     33  H   UNL     1      43.487   2.837  13.784  0.00  0.00    +0.000 HD
ENDBRANCH  20  23
ENDBRANCH   1  19
BRANCH   1  35
ATOM     34  N   UNL     1      47.052  10.394  12.145  0.00  0.00    +0.000 NA
ATOM     35  C   UNL     1      47.556   9.354  12.220  0.00  0.00    +0.000 C 
ENDBRANCH   1  35
TORSDOF 7
ENDMDL
MODEL 9
REMARK VINA RESULT:    -6.009      1.761      2.600
REMARK INTER + INTRA:          -9.741
REMARK INTER:                  -8.841
REMARK INTRA:                  -0.900
REMARK UNBOUND:                -1.274
REMARK  Name = 
REMARK  7 active torsions:
REMARK  status: ('A' for Active; 'I' for Inactive)
REMARK    1  A    between atoms: C_2  and  C_3
REMARK    2  A    between atoms: C_3  and  N_4
REMARK    3  A    between atoms: C_3  and  C_17
REMARK    4  A    between atoms: C_5  and  C_7
REMARK    5  A    between atoms: C_20  and  C_21
REMARK    6  A    between atoms: C_21  and  N_22
REMARK    7  A    between atoms: C_23  and  C_25
REMARK                            x       y       z     vdW  Elec       q    Type
REMARK                         _______ _______ _______ _____ _____    ______ ____
ROOT
ATOM      1  C   UNL     1      48.487   5.326  16.190  0.00  0.00    +0.000 C 
ENDROOT
BRANCH   1   2
ATOM      2  C   UNL     1      47.600   5.023  14.981  0.00  0.00    +0.000 A 
ATOM      3  C   UNL     1      47.328   3.693  14.613  0.00  0.00    +0.000 A 
ATOM      4  C   UNL     1      46.447   3.403  13.559  0.00  0.00    +0.000 A 
ATOM      5  C   UNL     1      45.830   4.435  12.838  0.00  0.00    +0.000 A 
ATOM      6  C   UNL     1      46.142   5.758  13.171  0.00  0.00    +0.000 A 
ATOM      7  C   UNL     1      47.039   6.047  14.203  0.00  0.00    +0.000 A 
BRANCH   5   8
ATOM      8  C   UNL     1      44.858   4.155  11.720  0.00  0.00    +0.000 C 
BRANCH   8   9
ATOM      9  N   UNL     1      45.478   3.543  10.572  0.00  0.00    +0.000 N 
ATOM     10  C   UNL     1      45.005   3.774   9.294  0.00  0.00    +0.000 C 
ATOM     11  O   UNL     1      44.055   4.507   9.045  0.00  0.00    +0.000 OA
ATOM     12  H   UNL     1      46.352   3.033  10.654  0.00  0.00    +0.000 HD
BRANCH  10  13
ATOM     13  C   UNL     1      45.751   3.060   8.204  0.00  0.00    +0.000 A 
ATOM     14  C   UNL     1      46.134   1.734   8.379  0.00  0.00    +0.000 A 
ATOM     15  C   UNL     1      46.831   1.108   7.350  0.00  0.00    +0.000 A 
ATOM     16  C   UNL     1      47.125   1.825   6.193  0.00  0.00    +0.000 A 
ATOM     17  C   UNL     1      46.706   3.145   6.109  0.00  0.00    +0.000 A 
ATOM     18  N   UNL     1      46.019   3.783   7.081  0.00  0.00    +0.000 NA
ENDBRANCH  10  13
ENDBRANCH   8   9
ENDBRANCH   5   8
ENDBRANCH   1   2
BRANCH   1  19
ATOM     19  N   UNL     1      48.040   6.557  16.811  0.00  0.00    +0.000 N 
ATOM     20  C   UNL     1      48.924   7.455  17.350  0.00  0.00    +0.000 C 
ATOM     21  O   UNL     1      50.137   7.353  17.201  0.00  0.00    +0.000 OA
ATOM     22  H   UNL     1      47.084   6.550  17.150  0.00  0.00    +0.000 HD
BRANCH  20  23
ATOM     23  C   UNL     1      48.326   8.570  18.088  0.00  0.00    +0.000 A 
ATOM     24  C   UNL     1      47.637   8.357  19.273  0.00  0.00    +0.000 A 
ATOM     25  S   UNL     1      46.949   9.783  19.919  0.00  0.00    +0.000 S 
ATOM     26  C   UNL     1      47.523  10.721  18.619  0.00  0.00    +0.000 A 
ATOM     27  N   UNL     1      47.217  12.038  18.500  0.00  0.00    +0.000 NA
ATOM     28  C   UNL     1      47.692  12.606  17.440  0.00  0.00    +0.000 A 
ATOM     29  N   UNL     1      48.479  11.979  16.504  0.00  0.00    +0.000 N 
ATOM     30  C   UNL     1      48.872  10.671  16.622  0.00  0.00    +0.000 A 
ATOM     31  O   UNL     1      49.688  10.177  15.850  0.00  0.00    +0.000 OA
ATOM     32  C   UNL     1      48.288   9.969  17.748  0.00  0.00    +0.000 A 
ATOM     33  H   UNL     1      48.868  12.490  15.727  0.00  0.00    +0.000 HD
ENDBRANCH  20  23
ENDBRANCH   1  19
BRANCH   1  35
ATOM     34  N   UNL     1      48.597   3.347  17.952  0.00  0.00    +0.000 NA
ATOM     35  C   UNL     1      48.530   4.204  17.176  0.00  0.00    +0.000 C 
ENDBRANCH   1  35
TORSDOF 7
ENDMDL
