MODEL 1
REMARK VINA RESULT:    -7.070      0.000      0.000
REMARK INTER + INTRA:         -10.888
REMARK INTER:                  -9.963
REMARK INTRA:                  -0.925
REMARK UNBOUND:                -0.925
REMARK  Name = 
REMARK  9 active torsions:
REMARK  status: ('A' for Active; 'I' for Inactive)
REMARK    1  A    between atoms: C_1  and  N_2
REMARK    2  A    between atoms: C_4  and  O_5
REMARK    3  A    between atoms: O_5  and  C_6
REMARK    4  A    between atoms: C_10  and  C_11
REMARK    5  A    between atoms: C_11  and  C_12
REMARK    6  A    between atoms: C_12  and  N_13
REMARK    7  A    between atoms: N_13  and  C_14
REMARK    8  A    between atoms: N_13  and  C_15
REMARK    9  A    between atoms: C_19  and  C_20
REMARK                            x       y       z     vdW  Elec       q    Type
REMARK                         _______ _______ _______ _____ _____    ______ ____
ROOT
ATOM      1  C   UNL     1      43.792   4.083  11.890  0.00  0.00    +0.000 C 
ENDROOT
BRANCH   1   2
ATOM      2  N   UNL     1      43.823   3.070  10.824  0.00  0.00    +0.000 N 
ATOM      3  C   UNL     1      43.356   1.732  11.197  0.00  0.00    +0.000 C 
BRANCH   2   4
ATOM      4  C   UNL     1      44.700   3.196   9.740  0.00  0.00    +0.000 A 
ATOM      5  C   UNL     1      45.017   4.438   9.157  0.00  0.00    +0.000 A 
ATOM      6  C   UNL     1      45.895   4.556   8.071  0.00  0.00    +0.000 A 
ATOM      7  C   UNL     1      46.496   3.427   7.538  0.00  0.00    +0.000 A 
ATOM      8  C   UNL     1      46.210   2.183   8.091  0.00  0.00    +0.000 A 
ATOM      9  C   UNL     1      45.299   2.071   9.152  0.00  0.00    +0.000 A 
BRANCH   8  10
ATOM     10  C   UNL     1      46.890   0.980   7.530  0.00  0.00    +0.000 C 
ATOM     11  N   UNL     1      47.776   1.182   6.507  0.00  0.00    +0.000 N 
ATOM     12  O   UNL     1      46.636  -0.151   7.928  0.00  0.00    +0.000 OA
ATOM     13  H   UNL     1      47.817   2.045   5.987  0.00  0.00    +0.000 HD
ATOM     14  H   UNL     1      48.140   0.350   6.062  0.00  0.00    +0.000 HD
ENDBRANCH   8  10
ENDBRANCH   2   4
ENDBRANCH   1   2
BRANCH   1  15
ATOM     15  C   UNL     1      45.033   3.998  12.797  0.00  0.00    +0.000 C 
BRANCH  15  20
ATOM     16  C   UNL     1      47.722   6.537  13.734  0.00  0.00    +0.000 A 
ATOM     17  C   UNL     1      47.145   7.737  13.325  0.00  0.00    +0.000 A 
ATOM     18  C   UNL     1      45.859   7.741  12.791  0.00  0.00    +0.000 A 
ATOM     19  C   UNL     1      45.155   6.546  12.645  0.00  0.00    +0.000 A 
ATOM     20  C   UNL     1      45.743   5.322  12.993  0.00  0.00    +0.000 A 
ATOM     21  C   UNL     1      47.023   5.338  13.570  0.00  0.00    +0.000 A 
BRANCH  16  22
ATOM     22  O   UNL     1      48.979   6.418  14.272  0.00  0.00    +0.000 OA
BRANCH  22  26
ATOM     23  C   UNL     1      50.785   5.174  18.074  0.00  0.00    +0.000 C 
ATOM     24  N   UNL     1      50.292   5.377  16.718  0.00  0.00    +0.000 NA
ATOM     25  C   UNL     1      50.623   6.735  16.232  0.00  0.00    +0.000 C 
ATOM     26  C   UNL     1      49.188   6.828  15.646  0.00  0.00    +0.000 C 
ATOM     27  C   UNL     1      48.859   5.751  16.715  0.00  0.00    +0.000 C 
ENDBRANCH  22  26
ENDBRANCH  16  22
ENDBRANCH  15  20
ENDBRANCH   1  15
TORSDOF 7
ENDMDL
MODEL 2
REMARK VINA RESULT:    -6.420      3.366      7.998
REMARK INTER + INTRA:          -9.973
REMARK INTER:                  -8.392
REMARK INTRA:                  -1.581
REMARK UNBOUND:                -0.925
REMARK  Name = 
REMARK  9 active torsions:
REMARK  status: ('A' for Active; 'I' for Inactive)
REMARK    1  A    between atoms: C_1  and  N_2
REMARK    2  A    between atoms: C_4  and  O_5
REMARK    3  A    between atoms: O_5  and  C_6
REMARK    4  A    between atoms: C_10  and  C_11
REMARK    5  A    between atoms: C_11  and  C_12
REMARK    6  A    between atoms: C_12  and  N_13
REMARK    7  A    between atoms: N_13  and  C_14
REMARK    8  A    between atoms: N_13  and  C_15
REMARK    9  A    between atoms: C_19  and  C_20
REMARK                            x       y       z     vdW  Elec       q    Type
REMARK                         _______ _______ _______ _____ _____    ______ ____
ROOT
ATOM      1  C   UNL     1      49.964   8.086  16.274  0.00  0.00    +0.000 C 
ENDROOT
BRANCH   1   2
ATOM      2  N   UNL     1      50.593   7.179  17.245  0.00  0.00    +0.000 N 
ATOM      3  C   UNL     1      51.908   7.589  17.747  0.00  0.00    +0.000 C 
BRANCH   2   4
ATOM      4  C   UNL     1      50.256   5.821  17.281  0.00  0.00    +0.000 A 
ATOM      5  C   UNL     1      51.185   4.814  17.608  0.00  0.00    +0.000 A 
ATOM      6  C   UNL     1      50.840   3.456  17.641  0.00  0.00    +0.000 A 
ATOM      7  C   UNL     1      49.542   3.062  17.356  0.00  0.00    +0.000 A 
ATOM      8  C   UNL     1      48.597   4.029  17.033  0.00  0.00    +0.000 A 
ATOM      9  C   UNL     1      48.962   5.382  16.963  0.00  0.00    +0.000 A 
BRANCH   8  10
ATOM     10  C   UNL     1      47.196   3.595  16.763  0.00  0.00    +0.000 C 
ATOM     11  N   UNL     1      46.577   4.125  15.663  0.00  0.00    +0.000 N 
ATOM     12  O   UNL     1      46.598   2.833  17.515  0.00  0.00    +0.000 OA
ATOM     13  H   UNL     1      46.933   4.935  15.178  0.00  0.00    +0.000 HD
ATOM     14  H   UNL     1      45.594   3.912  15.559  0.00  0.00    +0.000 HD
ENDBRANCH   8  10
ENDBRANCH   2   4
ENDBRANCH   1   2
BRANCH   1  15
ATOM     15  C   UNL     1      50.606   7.967  14.879  0.00  0.00    +0.000 C 
BRANCH  15  20
ATOM     16  C   UNL     1      47.479   6.746  13.066  0.00  0.00    +0.000 A 
ATOM     17  C   UNL     1      47.699   7.201  11.768  0.00  0.00    +0.000 A 
ATOM     18  C   UNL     1      48.885   7.861  11.456  0.00  0.00    +0.000 A 
ATOM     19  C   UNL     1      49.844   8.086  12.443  0.00  0.00    +0.000 A 
ATOM     20  C   UNL     1      49.614   7.690  13.768  0.00  0.00    +0.000 A 
ATOM     21  C   UNL     1      48.433   6.989  14.057  0.00  0.00    +0.000 A 
BRANCH  16  22
ATOM     22  O   UNL     1      46.350   6.086  13.481  0.00  0.00    +0.000 OA
BRANCH  22  26
ATOM     23  C   UNL     1      43.516   2.909  12.417  0.00  0.00    +0.000 C 
ATOM     24  N   UNL     1      44.491   3.830  12.983  0.00  0.00    +0.000 NA
ATOM     25  C   UNL     1      43.977   5.217  12.976  0.00  0.00    +0.000 C 
ATOM     26  C   UNL     1      45.373   5.688  12.488  0.00  0.00    +0.000 C 
ATOM     27  C   UNL     1      45.506   4.227  11.979  0.00  0.00    +0.000 C 
ENDBRANCH  22  26
ENDBRANCH  16  22
ENDBRANCH  15  20
ENDBRANCH   1  15
TORSDOF 7
ENDMDL
MODEL 3
REMARK VINA RESULT:    -6.419      2.085      8.187
REMARK INTER + INTRA:          -9.971
REMARK INTER:                  -9.215
REMARK INTRA:                  -0.756
REMARK UNBOUND:                -0.925
REMARK  Name = 
REMARK  9 active torsions:
REMARK  status: ('A' for Active; 'I' for Inactive)
REMARK    1  A    between atoms: C_1  and  N_2
REMARK    2  A    between atoms: C_4  and  O_5
REMARK    3  A    between atoms: O_5  and  C_6
REMARK    4  A    between atoms: C_10  and  C_11
REMARK    5  A    between atoms: C_11  and  C_12
REMARK    6  A    between atoms: C_12  and  N_13
REMARK    7  A    between atoms: N_13  and  C_14
REMARK    8  A    between atoms: N_13  and  C_15
REMARK    9  A    between atoms: C_19  and  C_20
REMARK                            x       y       z     vdW  Elec       q    Type
REMARK                         _______ _______ _______ _____ _____    ______ ____
ROOT
ATOM      1  C   UNL     1      47.547   6.425  13.033  0.00  0.00    +0.000 C 
ENDROOT
BRANCH   1   2
ATOM      2  N   UNL     1      48.200   7.159  14.127  0.00  0.00    +0.000 N 
ATOM      3  C   UNL     1      48.803   8.445  13.766  0.00  0.00    +0.000 C 
BRANCH   2   4
ATOM      4  C   UNL     1      48.683   6.485  15.255  0.00  0.00    +0.000 A 
ATOM      5  C   UNL     1      49.913   6.803  15.863  0.00  0.00    +0.000 A 
ATOM      6  C   UNL     1      50.391   6.123  16.992  0.00  0.00    +0.000 A 
ATOM      7  C   UNL     1      49.642   5.104  17.558  0.00  0.00    +0.000 A 
ATOM      8  C   UNL     1      48.419   4.766  16.987  0.00  0.00    +0.000 A 
ATOM      9  C   UNL     1      47.969   5.425  15.834  0.00  0.00    +0.000 A 
BRANCH   8  10
ATOM     10  C   UNL     1      47.607   3.691  17.627  0.00  0.00    +0.000 C 
ATOM     11  N   UNL     1      48.090   3.146  18.786  0.00  0.00    +0.000 N 
ATOM     12  O   UNL     1      46.574   3.271  17.118  0.00  0.00    +0.000 OA
ATOM     13  H   UNL     1      49.043   3.277  19.090  0.00  0.00    +0.000 HD
ATOM     14  H   UNL     1      47.591   2.344  19.143  0.00  0.00    +0.000 HD
ENDBRANCH   8  10
ENDBRANCH   2   4
ENDBRANCH   1   2
BRANCH   1  15
ATOM     15  C   UNL     1      46.169   7.018  12.687  0.00  0.00    +0.000 C 
BRANCH  15  20
ATOM     16  C   UNL     1      44.575   3.815  11.362  0.00  0.00    +0.000 A 
ATOM     17  C   UNL     1      43.241   3.981  11.727  0.00  0.00    +0.000 A 
ATOM     18  C   UNL     1      42.836   5.155  12.357  0.00  0.00    +0.000 A 
ATOM     19  C   UNL     1      43.764   6.156  12.643  0.00  0.00    +0.000 A 
ATOM     20  C   UNL     1      45.122   5.980  12.340  0.00  0.00    +0.000 A 
ATOM     21  C   UNL     1      45.508   4.811  11.666  0.00  0.00    +0.000 A 
BRANCH  16  22
ATOM     22  O   UNL     1      45.082   2.703  10.738  0.00  0.00    +0.000 OA
BRANCH  22  26
ATOM     23  C   UNL     1      46.339   3.185   6.561  0.00  0.00    +0.000 C 
ATOM     24  N   UNL     1      46.149   3.122   8.003  0.00  0.00    +0.000 NA
ATOM     25  C   UNL     1      45.723   1.769   8.423  0.00  0.00    +0.000 C 
ATOM     26  C   UNL     1      44.688   2.435   9.369  0.00  0.00    +0.000 C 
ATOM     27  C   UNL     1      44.817   3.637   8.396  0.00  0.00    +0.000 C 
ENDBRANCH  22  26
ENDBRANCH  16  22
ENDBRANCH  15  20
ENDBRANCH   1  15
TORSDOF 7
ENDMDL
MODEL 4
REMARK VINA RESULT:    -6.351      3.500      6.195
REMARK INTER + INTRA:          -9.875
REMARK INTER:                  -8.683
REMARK INTRA:                  -1.192
REMARK UNBOUND:                -0.925
REMARK  Name = 
REMARK  9 active torsions:
REMARK  status: ('A' for Active; 'I' for Inactive)
REMARK    1  A    between atoms: C_1  and  N_2
REMARK    2  A    between atoms: C_4  and  O_5
REMARK    3  A    between atoms: O_5  and  C_6
REMARK    4  A    between atoms: C_10  and  C_11
REMARK    5  A    between atoms: C_11  and  C_12
REMARK    6  A    between atoms: C_12  and  N_13
REMARK    7  A    between atoms: N_13  and  C_14
REMARK    8  A    between atoms: N_13  and  C_15
REMARK    9  A    between atoms: C_19  and  C_20
REMARK                            x       y       z     vdW  Elec       q    Type
REMARK                         _______ _______ _______ _____ _____    ______ ____
ROOT
ATOM      1  C   UNL     1      47.073   6.325  13.764  0.00  0.00    +0.000 C 
ENDROOT
BRANCH   1   2
ATOM      2  N   UNL     1      46.314   5.078  13.585  0.00  0.00    +0.000 N 
ATOM      3  C   UNL     1      46.995   3.848  13.996  0.00  0.00    +0.000 C 
BRANCH   2   4
ATOM      4  C   UNL     1      45.291   4.991  12.633  0.00  0.00    +0.000 A 
ATOM      5  C   UNL     1      44.088   5.716  12.740  0.00  0.00    +0.000 A 
ATOM      6  C   UNL     1      43.068   5.623  11.784  0.00  0.00    +0.000 A 
ATOM      7  C   UNL     1      43.225   4.804  10.677  0.00  0.00    +0.000 A 
ATOM      8  C   UNL     1      44.402   4.076  10.536  0.00  0.00    +0.000 A 
ATOM      9  C   UNL     1      45.401   4.145  11.519  0.00  0.00    +0.000 A 
BRANCH   8  10
ATOM     10  C   UNL     1      44.573   3.225   9.323  0.00  0.00    +0.000 C 
ATOM     11  N   UNL     1      44.302   3.800   8.111  0.00  0.00    +0.000 N 
ATOM     12  O   UNL     1      44.895   2.045   9.401  0.00  0.00    +0.000 OA
ATOM     13  H   UNL     1      43.796   4.668   8.024  0.00  0.00    +0.000 HD
ATOM     14  H   UNL     1      44.311   3.181   7.312  0.00  0.00    +0.000 HD
ENDBRANCH   8  10
ENDBRANCH   2   4
ENDBRANCH   1   2
BRANCH   1  15
ATOM     15  C   UNL     1      47.664   6.831  12.435  0.00  0.00    +0.000 C 
BRANCH  15  20
ATOM     16  C   UNL     1      45.770  10.115  12.008  0.00  0.00    +0.000 A 
ATOM     17  C   UNL     1      46.798  11.008  11.714  0.00  0.00    +0.000 A 
ATOM     18  C   UNL     1      48.106  10.546  11.599  0.00  0.00    +0.000 A 
ATOM     19  C   UNL     1      48.395   9.196  11.798  0.00  0.00    +0.000 A 
ATOM     20  C   UNL     1      47.383   8.293  12.156  0.00  0.00    +0.000 A 
ATOM     21  C   UNL     1      46.063   8.766  12.225  0.00  0.00    +0.000 A 
BRANCH  16  22
ATOM     22  O   UNL     1      44.450  10.462  12.143  0.00  0.00    +0.000 OA
BRANCH  22  26
ATOM     23  C   UNL     1      40.383  10.726  10.513  0.00  0.00    +0.000 C 
ATOM     24  N   UNL     1      41.617  10.582  11.272  0.00  0.00    +0.000 NA
ATOM     25  C   UNL     1      42.486  11.767  11.102  0.00  0.00    +0.000 C 
ATOM     26  C   UNL     1      43.696  10.806  10.954  0.00  0.00    +0.000 C 
ATOM     27  C   UNL     1      42.616   9.774  10.534  0.00  0.00    +0.000 C 
ENDBRANCH  22  26
ENDBRANCH  16  22
ENDBRANCH  15  20
ENDBRANCH   1  15
TORSDOF 7
ENDMDL
MODEL 5
REMARK VINA RESULT:    -6.206      1.616      2.298
REMARK INTER + INTRA:          -9.670
REMARK INTER:                  -9.086
REMARK INTRA:                  -0.584
REMARK UNBOUND:                -0.925
REMARK  Name = 
REMARK  9 active torsions:
REMARK  status: ('A' for Active; 'I' for Inactive)
REMARK    1  A    between atoms: C_1  and  N_2
REMARK    2  A    between atoms: C_4  and  O_5
REMARK    3  A    between atoms: O_5  and  C_6
REMARK    4  A    between atoms: C_10  and  C_11
REMARK    5  A    between atoms: C_11  and  C_12
REMARK    6  A    between atoms: C_12  and  N_13
REMARK    7  A    between atoms: N_13  and  C_14
REMARK    8  A    between atoms: N_13  and  C_15
REMARK    9  A    between atoms: C_19  and  C_20
REMARK                            x       y       z     vdW  Elec       q    Type
REMARK                         _______ _______ _______ _____ _____    ______ ____
ROOT
ATOM      1  C   UNL     1      44.589   6.631  11.357  0.00  0.00    +0.000 C 
ENDROOT
BRANCH   1   2
ATOM      2  N   UNL     1      43.672   5.547  10.973  0.00  0.00    +0.000 N 
ATOM      3  C   UNL     1      42.451   5.426  11.775  0.00  0.00    +0.000 C 
BRANCH   2   4
ATOM      4  C   UNL     1      44.141   4.418  10.292  0.00  0.00    +0.000 A 
ATOM      5  C   UNL     1      43.780   3.106  10.653  0.00  0.00    +0.000 A 
ATOM      6  C   UNL     1      44.254   1.980   9.966  0.00  0.00    +0.000 A 
ATOM      7  C   UNL     1      45.103   2.134   8.882  0.00  0.00    +0.000 A 
ATOM      8  C   UNL     1      45.478   3.416   8.494  0.00  0.00    +0.000 A 
ATOM      9  C   UNL     1      45.030   4.535   9.212  0.00  0.00    +0.000 A 
BRANCH   8  10
ATOM     10  C   UNL     1      46.365   3.570   7.304  0.00  0.00    +0.000 C 
ATOM     11  N   UNL     1      46.409   2.528   6.417  0.00  0.00    +0.000 N 
ATOM     12  O   UNL     1      47.066   4.563   7.144  0.00  0.00    +0.000 OA
ATOM     13  H   UNL     1      46.058   1.610   6.642  0.00  0.00    +0.000 HD
ATOM     14  H   UNL     1      47.099   2.599   5.682  0.00  0.00    +0.000 HD
ENDBRANCH   8  10
ENDBRANCH   2   4
ENDBRANCH   1   2
BRANCH   1  15
ATOM     15  C   UNL     1      45.345   6.307  12.659  0.00  0.00    +0.000 C 
BRANCH  15  20
ATOM     16  C   UNL     1      48.858   7.205  13.846  0.00  0.00    +0.000 A 
ATOM     17  C   UNL     1      49.144   8.334  13.083  0.00  0.00    +0.000 A 
ATOM     18  C   UNL     1      48.182   8.846  12.216  0.00  0.00    +0.000 A 
ATOM     19  C   UNL     1      46.941   8.221  12.093  0.00  0.00    +0.000 A 
ATOM     20  C   UNL     1      46.658   7.048  12.807  0.00  0.00    +0.000 A 
ATOM     21  C   UNL     1      47.621   6.569  13.709  0.00  0.00    +0.000 A 
BRANCH  16  22
ATOM     22  O   UNL     1      49.729   6.619  14.729  0.00  0.00    +0.000 OA
BRANCH  22  26
ATOM     23  C   UNL     1      49.886   4.177  18.373  0.00  0.00    +0.000 C 
ATOM     24  N   UNL     1      49.965   4.798  17.058  0.00  0.00    +0.000 NA
ATOM     25  C   UNL     1      50.482   6.181  17.155  0.00  0.00    +0.000 C 
ATOM     26  C   UNL     1      49.391   6.614  16.139  0.00  0.00    +0.000 C 
ATOM     27  C   UNL     1      48.653   5.343  16.638  0.00  0.00    +0.000 C 
ENDBRANCH  22  26
ENDBRANCH  16  22
ENDBRANCH  15  20
ENDBRANCH   1  15
TORSDOF 7
ENDMDL
MODEL 6
REMARK VINA RESULT:    -6.156      3.262      7.963
REMARK INTER + INTRA:          -9.601
REMARK INTER:                  -8.537
REMARK INTRA:                  -1.064
REMARK UNBOUND:                -0.925
REMARK  Name = 
REMARK  9 active torsions:
REMARK  status: ('A' for Active; 'I' for Inactive)
REMARK    1  A    between atoms: C_1  and  N_2
REMARK    2  A    between atoms: C_4  and  O_5
REMARK    3  A    between atoms: O_5  and  C_6
REMARK    4  A    between atoms: C_10  and  C_11
REMARK    5  A    between atoms: C_11  and  C_12
REMARK    6  A    between atoms: C_12  and  N_13
REMARK    7  A    between atoms: N_13  and  C_14
REMARK    8  A    between atoms: N_13  and  C_15
REMARK    9  A    between atoms: C_19  and  C_20
REMARK                            x       y       z     vdW  Elec       q    Type
REMARK                         _______ _______ _______ _____ _____    ______ ____
ROOT
ATOM      1  C   UNL     1      48.923   7.596  16.529  0.00  0.00    +0.000 C 
ENDROOT
BRANCH   1   2
ATOM      2  N   UNL     1      48.905   6.652  17.656  0.00  0.00    +0.000 N 
ATOM      3  C   UNL     1      49.441   7.155  18.923  0.00  0.00    +0.000 C 
BRANCH   2   4
ATOM      4  C   UNL     1      48.898   5.269  17.433  0.00  0.00    +0.000 A 
ATOM      5  C   UNL     1      47.750   4.573  17.007  0.00  0.00    +0.000 A 
ATOM      6  C   UNL     1      47.750   3.189  16.787  0.00  0.00    +0.000 A 
ATOM      7  C   UNL     1      48.910   2.455  16.979  0.00  0.00    +0.000 A 
ATOM      8  C   UNL     1      50.064   3.110  17.395  0.00  0.00    +0.000 A 
ATOM      9  C   UNL     1      50.043   4.489  17.652  0.00  0.00    +0.000 A 
BRANCH   8  10
ATOM     10  C   UNL     1      51.314   2.314  17.565  0.00  0.00    +0.000 C 
ATOM     11  N   UNL     1      51.202   0.951  17.502  0.00  0.00    +0.000 N 
ATOM     12  O   UNL     1      52.393   2.846  17.799  0.00  0.00    +0.000 OA
ATOM     13  H   UNL     1      50.315   0.476  17.571  0.00  0.00    +0.000 HD
ATOM     14  H   UNL     1      52.033   0.425  17.733  0.00  0.00    +0.000 HD
ENDBRANCH   8  10
ENDBRANCH   2   4
ENDBRANCH   1   2
BRANCH   1  15
ATOM     15  C   UNL     1      49.643   7.010  15.301  0.00  0.00    +0.000 C 
BRANCH  15  20
ATOM     16  C   UNL     1      46.655   6.721  12.947  0.00  0.00    +0.000 A 
ATOM     17  C   UNL     1      47.203   7.121  11.730  0.00  0.00    +0.000 A 
ATOM     18  C   UNL     1      48.557   7.436  11.650  0.00  0.00    +0.000 A 
ATOM     19  C   UNL     1      49.362   7.373  12.787  0.00  0.00    +0.000 A 
ATOM     20  C   UNL     1      48.815   7.034  14.033  0.00  0.00    +0.000 A 
ATOM     21  C   UNL     1      47.459   6.677  14.090  0.00  0.00    +0.000 A 
BRANCH  16  22
ATOM     22  O   UNL     1      45.338   6.389  13.139  0.00  0.00    +0.000 OA
BRANCH  22  26
ATOM     23  C   UNL     1      43.523   2.869  11.246  0.00  0.00    +0.000 C 
ATOM     24  N   UNL     1      44.096   4.146  11.648  0.00  0.00    +0.000 NA
ATOM     25  C   UNL     1      45.416   3.957  12.288  0.00  0.00    +0.000 C 
ATOM     26  C   UNL     1      44.997   4.998  13.361  0.00  0.00    +0.000 C 
ATOM     27  C   UNL     1      43.555   4.597  12.951  0.00  0.00    +0.000 C 
ENDBRANCH  22  26
ENDBRANCH  16  22
ENDBRANCH  15  20
ENDBRANCH   1  15
TORSDOF 7
ENDMDL
MODEL 7
REMARK VINA RESULT:    -6.102      2.522      7.907
REMARK INTER + INTRA:          -9.524
REMARK INTER:                  -8.296
REMARK INTRA:                  -1.228
REMARK UNBOUND:                -0.925
REMARK  Name = 
REMARK  9 active torsions:
REMARK  status: ('A' for Active; 'I' for Inactive)
REMARK    1  A    between atoms: C_1  and  N_2
REMARK    2  A    between atoms: C_4  and  O_5
REMARK    3  A    between atoms: O_5  and  C_6
REMARK    4  A    between atoms: C_10  and  C_11
REMARK    5  A    between atoms: C_11  and  C_12
REMARK    6  A    between atoms: C_12  and  N_13
REMARK    7  A    between atoms: N_13  and  C_14
REMARK    8  A    between atoms: N_13  and  C_15
REMARK    9  A    between atoms: C_19  and  C_20
REMARK                            x       y       z     vdW  Elec       q    Type
REMARK                         _______ _______ _______ _____ _____    ______ ____
ROOT
ATOM      1  C   UNL     1      49.906   7.401  13.814  0.00  0.00    +0.000 C 
ENDROOT
BRANCH   1   2
ATOM      2  N   UNL     1      49.320   7.999  15.022  0.00  0.00    +0.000 N 
ATOM      3  C   UNL     1      49.730   9.374  15.320  0.00  0.00    +0.000 C 
BRANCH   2   4
ATOM      4  C   UNL     1      48.861   7.194  16.072  0.00  0.00    +0.000 A 
ATOM      5  C   UNL     1      48.874   7.615  17.416  0.00  0.00    +0.000 A 
ATOM      6  C   UNL     1      48.415   6.803  18.462  0.00  0.00    +0.000 A 
ATOM      7  C   UNL     1      47.915   5.539  18.192  0.00  0.00    +0.000 A 
ATOM      8  C   UNL     1      47.883   5.092  16.875  0.00  0.00    +0.000 A 
ATOM      9  C   UNL     1      48.383   5.896  15.840  0.00  0.00    +0.000 A 
BRANCH   8  10
ATOM     10  C   UNL     1      47.311   3.743  16.595  0.00  0.00    +0.000 C 
ATOM     11  N   UNL     1      47.554   3.204  15.360  0.00  0.00    +0.000 N 
ATOM     12  O   UNL     1      46.610   3.155  17.411  0.00  0.00    +0.000 OA
ATOM     13  H   UNL     1      47.896   3.753  14.586  0.00  0.00    +0.000 HD
ATOM     14  H   UNL     1      47.065   2.346  15.145  0.00  0.00    +0.000 HD
ENDBRANCH   8  10
ENDBRANCH   2   4
ENDBRANCH   1   2
BRANCH   1  15
ATOM     15  C   UNL     1      49.286   7.980  12.529  0.00  0.00    +0.000 C 
BRANCH  15  20
ATOM     16  C   UNL     1      45.851   6.337  12.292  0.00  0.00    +0.000 A 
ATOM     17  C   UNL     1      44.997   7.436  12.351  0.00  0.00    +0.000 A 
ATOM     18  C   UNL     1      45.527   8.722  12.414  0.00  0.00    +0.000 A 
ATOM     19  C   UNL     1      46.908   8.913  12.440  0.00  0.00    +0.000 A 
ATOM     20  C   UNL     1      47.782   7.816  12.444  0.00  0.00    +0.000 A 
ATOM     21  C   UNL     1      47.234   6.529  12.337  0.00  0.00    +0.000 A 
BRANCH  16  22
ATOM     22  O   UNL     1      45.438   5.030  12.228  0.00  0.00    +0.000 OA
BRANCH  22  26
ATOM     23  C   UNL     1      44.541   2.092   9.093  0.00  0.00    +0.000 C 
ATOM     24  N   UNL     1      45.040   2.921  10.182  0.00  0.00    +0.000 NA
ATOM     25  C   UNL     1      43.977   3.184  11.177  0.00  0.00    +0.000 C 
ATOM     26  C   UNL     1      44.453   4.661  11.230  0.00  0.00    +0.000 C 
ATOM     27  C   UNL     1      45.023   4.357   9.819  0.00  0.00    +0.000 C 
ENDBRANCH  22  26
ENDBRANCH  16  22
ENDBRANCH  15  20
ENDBRANCH   1  15
TORSDOF 7
ENDMDL
MODEL 8
REMARK VINA RESULT:    -6.027      3.529      4.864
REMARK INTER + INTRA:          -9.418
REMARK INTER:                  -7.818
REMARK INTRA:                  -1.601
REMARK UNBOUND:                -0.925
REMARK  Name = 
REMARK  9 active torsions:
REMARK  status: ('A' for Active; 'I' for Inactive)
REMARK    1  A    between atoms: C_1  and  N_2
REMARK    2  A    between atoms: C_4  and  O_5
REMARK    3  A    between atoms: O_5  and  C_6
REMARK    4  A    between atoms: C_10  and  C_11
REMARK    5  A    between atoms: C_11  and  C_12
REMARK    6  A    between atoms: C_12  and  N_13
REMARK    7  A    between atoms: N_13  and  C_14
REMARK    8  A    between atoms: N_13  and  C_15
REMARK    9  A    between atoms: C_19  and  C_20
REMARK                            x       y       z     vdW  Elec       q    Type
REMARK                         _______ _______ _______ _____ _____    ______ ____
ROOT
ATOM      1  C   UNL     1      45.552   9.135  12.607  0.00  0.00    +0.000 C 
ENDROOT
BRANCH   1   2
ATOM      2  N   UNL     1      44.871   8.197  11.702  0.00  0.00    +0.000 N 
ATOM      3  C   UNL     1      43.765   8.752  10.917  0.00  0.00    +0.000 C 
BRANCH   2   4
ATOM      4  C   UNL     1      44.893   6.819  11.946  0.00  0.00    +0.000 A 
ATOM      5  C   UNL     1      44.060   5.911  11.265  0.00  0.00    +0.000 A 
ATOM      6  C   UNL     1      44.088   4.532  11.516  0.00  0.00    +0.000 A 
ATOM      7  C   UNL     1      44.963   4.015  12.457  0.00  0.00    +0.000 A 
ATOM      8  C   UNL     1      45.804   4.882  13.147  0.00  0.00    +0.000 A 
ATOM      9  C   UNL     1      45.741   6.264  12.917  0.00  0.00    +0.000 A 
BRANCH   8  10
ATOM     10  C   UNL     1      46.766   4.308  14.132  0.00  0.00    +0.000 C 
ATOM     11  N   UNL     1      47.099   5.085  15.208  0.00  0.00    +0.000 N 
ATOM     12  O   UNL     1      47.281   3.207  13.968  0.00  0.00    +0.000 OA
ATOM     13  H   UNL     1      46.905   6.075  15.243  0.00  0.00    +0.000 HD
ATOM     14  H   UNL     1      47.836   4.732  15.802  0.00  0.00    +0.000 HD
ENDBRANCH   8  10
ENDBRANCH   2   4
ENDBRANCH   1   2
BRANCH   1  15
ATOM     15  C   UNL     1      46.678   9.904  11.894  0.00  0.00    +0.000 C 
BRANCH  15  20
ATOM     16  C   UNL     1      49.495   7.829  13.416  0.00  0.00    +0.000 A 
ATOM     17  C   UNL     1      50.598   8.250  12.678  0.00  0.00    +0.000 A 
ATOM     18  C   UNL     1      50.451   9.248  11.718  0.00  0.00    +0.000 A 
ATOM     19  C   UNL     1      49.198   9.812  11.478  0.00  0.00    +0.000 A 
ATOM     20  C   UNL     1      48.065   9.357  12.166  0.00  0.00    +0.000 A 
ATOM     21  C   UNL     1      48.237   8.382  13.161  0.00  0.00    +0.000 A 
BRANCH  16  22
ATOM     22  O   UNL     1      49.527   6.856  14.383  0.00  0.00    +0.000 OA
BRANCH  22  26
ATOM     23  C   UNL     1      48.892   6.487  18.710  0.00  0.00    +0.000 C 
ATOM     24  N   UNL     1      48.895   6.466  17.254  0.00  0.00    +0.000 NA
ATOM     25  C   UNL     1      50.215   6.048  16.732  0.00  0.00    +0.000 C 
ATOM     26  C   UNL     1      50.106   7.178  15.672  0.00  0.00    +0.000 C 
ATOM     27  C   UNL     1      49.128   7.818  16.694  0.00  0.00    +0.000 C 
ENDBRANCH  22  26
ENDBRANCH  16  22
ENDBRANCH  15  20
ENDBRANCH   1  15
TORSDOF 7
ENDMDL
MODEL 9
REMARK VINA RESULT:    -5.948      2.248      4.362
REMARK INTER + INTRA:          -9.307
REMARK INTER:                  -8.371
REMARK INTRA:                  -0.936
REMARK UNBOUND:                -0.925
REMARK  Name = 
REMARK  9 active torsions:
REMARK  status: ('A' for Active; 'I' for Inactive)
REMARK    1  A    between atoms: C_1  and  N_2
REMARK    2  A    between atoms: C_4  and  O_5
REMARK    3  A    between atoms: O_5  and  C_6
REMARK    4  A    between atoms: C_10  and  C_11
REMARK    5  A    between atoms: C_11  and  C_12
REMARK    6  A    between atoms: C_12  and  N_13
REMARK    7  A    between atoms: N_13  and  C_14
REMARK    8  A    between atoms: N_13  and  C_15
REMARK    9  A    between atoms: C_19  and  C_20
REMARK                            x       y       z     vdW  Elec       q    Type
REMARK                         _______ _______ _______ _____ _____    ______ ____
ROOT
ATOM      1  C   UNL     1      47.994   7.274  12.254  0.00  0.00    +0.000 C 
ENDROOT
BRANCH   1   2
ATOM      2  N   UNL     1      46.563   7.306  11.919  0.00  0.00    +0.000 N 
ATOM      3  C   UNL     1      45.889   8.594  12.104  0.00  0.00    +0.000 C 
BRANCH   2   4
ATOM      4  C   UNL     1      45.793   6.137  11.947  0.00  0.00    +0.000 A 
ATOM      5  C   UNL     1      45.190   5.650  13.123  0.00  0.00    +0.000 A 
ATOM      6  C   UNL     1      44.422   4.478  13.143  0.00  0.00    +0.000 A 
ATOM      7  C   UNL     1      44.222   3.758  11.977  0.00  0.00    +0.000 A 
ATOM      8  C   UNL     1      44.799   4.211  10.795  0.00  0.00    +0.000 A 
ATOM      9  C   UNL     1      45.600   5.363  10.792  0.00  0.00    +0.000 A 
BRANCH   8  10
ATOM     10  C   UNL     1      44.548   3.446   9.540  0.00  0.00    +0.000 C 
ATOM     11  N   UNL     1      44.617   2.081   9.614  0.00  0.00    +0.000 N 
ATOM     12  O   UNL     1      44.337   4.007   8.471  0.00  0.00    +0.000 OA
ATOM     13  H   UNL     1      45.036   1.601  10.397  0.00  0.00    +0.000 HD
ATOM     14  H   UNL     1      44.560   1.583   8.737  0.00  0.00    +0.000 HD
ENDBRANCH   8  10
ENDBRANCH   2   4
ENDBRANCH   1   2
BRANCH   1  15
ATOM     15  C   UNL     1      48.371   8.373  13.265  0.00  0.00    +0.000 C 
BRANCH  15  20
ATOM     16  C   UNL     1      48.575   6.008  16.251  0.00  0.00    +0.000 A 
ATOM     17  C   UNL     1      48.795   6.889  17.306  0.00  0.00    +0.000 A 
ATOM     18  C   UNL     1      48.825   8.261  17.069  0.00  0.00    +0.000 A 
ATOM     19  C   UNL     1      48.657   8.754  15.775  0.00  0.00    +0.000 A 
ATOM     20  C   UNL     1      48.498   7.879  14.691  0.00  0.00    +0.000 A 
ATOM     21  C   UNL     1      48.426   6.502  14.952  0.00  0.00    +0.000 A 
BRANCH  16  22
ATOM     22  O   UNL     1      48.526   4.642  16.372  0.00  0.00    +0.000 OA
BRANCH  22  26
ATOM     23  C   UNL     1      51.464   1.564  17.449  0.00  0.00    +0.000 C 
ATOM     24  N   UNL     1      50.552   2.530  16.852  0.00  0.00    +0.000 NA
ATOM     25  C   UNL     1      50.740   3.873  17.445  0.00  0.00    +0.000 C 
ATOM     26  C   UNL     1      49.196   4.019  17.497  0.00  0.00    +0.000 C 
ATOM     27  C   UNL     1      49.211   2.467  17.480  0.00  0.00    +0.000 C 
ENDBRANCH  22  26
ENDBRANCH  16  22
ENDBRANCH  15  20
ENDBRANCH   1  15
TORSDOF 7
ENDMDL
