MODEL 1
REMARK VINA RESULT:    -7.623      0.000      0.000
REMARK INTER + INTRA:         -12.054
REMARK INTER:                 -10.743
REMARK INTRA:                  -1.311
REMARK UNBOUND:                -1.311
REMARK  Name = 
REMARK  9 active torsions:
REMARK  status: ('A' for Active; 'I' for Inactive)
REMARK    1  A    between atoms: C_1  and  C_2
REMARK    2  A    between atoms: C_2  and  N_3
REMARK    3  A    between atoms: C_2  and  C_11
REMARK    4  A    between atoms: N_3  and  C_4
REMARK    5  A    between atoms: C_4  and  C_5
REMARK    6  A    between atoms: C_14  and  C_15
REMARK    7  A    between atoms: C_15  and  N_16
REMARK    8  A    between atoms: N_16  and  C_17
REMARK    9  A    between atoms: C_18  and  C_20
REMARK                            x       y       z     vdW  Elec       q    Type
REMARK                         _______ _______ _______ _____ _____    ______ ____
ROOT
ATOM      1  C   UNL     1      45.641   5.212  12.258  0.00  0.00    +0.000 A 
ATOM      2  C   UNL     1      46.222   4.820  13.477  0.00  0.00    +0.000 A 
ATOM      3  C   UNL     1      47.364   5.449  13.975  0.00  0.00    +0.000 A 
ATOM      4  C   UNL     1      47.970   6.498  13.272  0.00  0.00    +0.000 A 
ATOM      5  C   UNL     1      47.455   6.841  12.017  0.00  0.00    +0.000 A 
ATOM      6  C   UNL     1      46.302   6.210  11.521  0.00  0.00    +0.000 A 
ENDROOT
BRANCH   1   8
ATOM      7  C   UNL     1      43.214   4.661  12.887  0.00  0.00    +0.000 C 
ATOM      8  C   UNL     1      44.320   4.550  11.831  0.00  0.00    +0.000 C 
BRANCH   8   9
ATOM      9  N   UNL     1      44.583   3.144  11.471  0.00  0.00    +0.000 NA
ATOM     10  H   UNL     1      45.560   2.929  11.663  0.00  0.00    +0.000 HD
BRANCH   9  11
ATOM     11  C   UNL     1      44.290   2.751  10.090  0.00  0.00    +0.000 C 
BRANCH  11  12
ATOM     12  C   UNL     1      45.560   2.909   9.215  0.00  0.00    +0.000 C 
ATOM     13  C   UNL     1      45.845   1.620   8.423  0.00  0.00    +0.000 C 
ATOM     14  C   UNL     1      46.996   1.805   7.443  0.00  0.00    +0.000 C 
ATOM     15  C   UNL     1      46.766   3.019   6.554  0.00  0.00    +0.000 C 
ATOM     16  N   UNL     1      46.599   4.227   7.363  0.00  0.00    +0.000 NA
ATOM     17  C   UNL     1      45.440   4.112   8.257  0.00  0.00    +0.000 C 
ATOM     18  H   UNL     1      46.475   5.028   6.744  0.00  0.00    +0.000 HD
ENDBRANCH  11  12
ENDBRANCH   9  11
ENDBRANCH   8   9
ENDBRANCH   1   8
BRANCH   4  19
ATOM     19  C   UNL     1      49.096   7.284  13.906  0.00  0.00    +0.000 C 
BRANCH  19  20
ATOM     20  N   UNL     1      48.931   7.671  15.313  0.00  0.00    +0.000 N 
ATOM     21  C   UNL     1      48.167   8.874  15.614  0.00  0.00    +0.000 C 
ATOM     22  C   UNL     1      49.724   6.986  16.249  0.00  0.00    +0.000 C 
ATOM     23  O   UNL     1      50.480   6.076  15.893  0.00  0.00    +0.000 OA
BRANCH  22  24
ATOM     24  C   UNL     1      49.623   7.328  17.681  0.00  0.00    +0.000 A 
ATOM     25  C   UNL     1      50.318   8.367  18.282  0.00  0.00    +0.000 A 
ATOM     26  S   UNL     1      50.009   8.537  19.947  0.00  0.00    +0.000 S 
ATOM     27  C   UNL     1      48.808   7.339  19.896  0.00  0.00    +0.000 A 
ATOM     28  N   UNL     1      48.054   7.072  20.993  0.00  0.00    +0.000 NA
ATOM     29  C   UNL     1      47.147   6.177  20.800  0.00  0.00    +0.000 A 
ATOM     30  N   UNL     1      46.951   5.494  19.626  0.00  0.00    +0.000 N 
ATOM     31  C   UNL     1      47.770   5.645  18.525  0.00  0.00    +0.000 A 
ATOM     32  O   UNL     1      47.702   4.862  17.583  0.00  0.00    +0.000 OA
ATOM     33  C   UNL     1      48.725   6.733  18.653  0.00  0.00    +0.000 A 
ATOM     34  H   UNL     1      46.266   4.755  19.562  0.00  0.00    +0.000 HD
ENDBRANCH  22  24
ENDBRANCH  19  20
ENDBRANCH   4  19
TORSDOF 7
ENDMDL
MODEL 2
REMARK VINA RESULT:    -7.613      1.825      2.291
REMARK INTER + INTRA:         -12.040
REMARK INTER:                 -10.860
REMARK INTRA:                  -1.180
REMARK UNBOUND:                -1.311
REMARK  Name = 
REMARK  9 active torsions:
REMARK  status: ('A' for Active; 'I' for Inactive)
REMARK    1  A    between atoms: C_1  and  C_2
REMARK    2  A    between atoms: C_2  and  N_3
REMARK    3  A    between atoms: C_2  and  C_11
REMARK    4  A    between atoms: N_3  and  C_4
REMARK    5  A    between atoms: C_4  and  C_5
REMARK    6  A    between atoms: C_14  and  C_15
REMARK    7  A    between atoms: C_15  and  N_16
REMARK    8  A    between atoms: N_16  and  C_17
REMARK    9  A    between atoms: C_18  and  C_20
REMARK                            x       y       z     vdW  Elec       q    Type
REMARK                         _______ _______ _______ _____ _____    ______ ____
ROOT
ATOM      1  C   UNL     1      44.811   4.693  11.355  0.00  0.00    +0.000 A 
ATOM      2  C   UNL     1      45.545   5.431  10.410  0.00  0.00    +0.000 A 
ATOM      3  C   UNL     1      46.274   6.563  10.777  0.00  0.00    +0.000 A 
ATOM      4  C   UNL     1      46.300   7.000  12.107  0.00  0.00    +0.000 A 
ATOM      5  C   UNL     1      45.506   6.328  13.043  0.00  0.00    +0.000 A 
ATOM      6  C   UNL     1      44.776   5.186  12.672  0.00  0.00    +0.000 A 
ENDROOT
BRANCH   1   8
ATOM      7  C   UNL     1      43.240   2.760  11.978  0.00  0.00    +0.000 C 
ATOM      8  C   UNL     1      44.126   3.394  10.898  0.00  0.00    +0.000 C 
BRANCH   8   9
ATOM      9  N   UNL     1      45.156   2.451  10.424  0.00  0.00    +0.000 NA
ATOM     10  H   UNL     1      46.068   2.900  10.478  0.00  0.00    +0.000 HD
BRANCH   9  11
ATOM     11  C   UNL     1      44.987   1.918   9.069  0.00  0.00    +0.000 C 
BRANCH  11  12
ATOM     12  C   UNL     1      46.175   2.361   8.175  0.00  0.00    +0.000 C 
ATOM     13  C   UNL     1      46.791   1.154   7.443  0.00  0.00    +0.000 C 
ATOM     14  C   UNL     1      47.857   1.587   6.446  0.00  0.00    +0.000 C 
ATOM     15  C   UNL     1      47.320   2.654   5.501  0.00  0.00    +0.000 C 
ATOM     16  N   UNL     1      46.839   3.813   6.254  0.00  0.00    +0.000 NA
ATOM     17  C   UNL     1      45.747   3.442   7.162  0.00  0.00    +0.000 C 
ATOM     18  H   UNL     1      46.512   4.523   5.598  0.00  0.00    +0.000 HD
ENDBRANCH  11  12
ENDBRANCH   9  11
ENDBRANCH   8   9
ENDBRANCH   1   8
BRANCH   4  19
ATOM     19  C   UNL     1      47.232   8.118  12.520  0.00  0.00    +0.000 C 
BRANCH  19  20
ATOM     20  N   UNL     1      47.889   7.990  13.827  0.00  0.00    +0.000 N 
ATOM     21  C   UNL     1      47.638   9.015  14.830  0.00  0.00    +0.000 C 
ATOM     22  C   UNL     1      48.899   7.018  13.929  0.00  0.00    +0.000 C 
ATOM     23  O   UNL     1      49.173   6.286  12.971  0.00  0.00    +0.000 OA
BRANCH  22  24
ATOM     24  C   UNL     1      49.614   6.839  15.207  0.00  0.00    +0.000 A 
ATOM     25  C   UNL     1      50.753   7.544  15.565  0.00  0.00    +0.000 A 
ATOM     26  S   UNL     1      51.368   7.139  17.100  0.00  0.00    +0.000 S 
ATOM     27  C   UNL     1      50.042   6.127  17.416  0.00  0.00    +0.000 A 
ATOM     28  N   UNL     1      49.894   5.546  18.634  0.00  0.00    +0.000 NA
ATOM     29  C   UNL     1      48.819   4.847  18.754  0.00  0.00    +0.000 A 
ATOM     30  N   UNL     1      47.899   4.639  17.757  0.00  0.00    +0.000 N 
ATOM     31  C   UNL     1      48.070   5.107  16.470  0.00  0.00    +0.000 A 
ATOM     32  O   UNL     1      47.346   4.715  15.560  0.00  0.00    +0.000 OA
ATOM     33  C   UNL     1      49.201   6.007  16.322  0.00  0.00    +0.000 A 
ATOM     34  H   UNL     1      47.111   4.022  17.895  0.00  0.00    +0.000 HD
ENDBRANCH  22  24
ENDBRANCH  19  20
ENDBRANCH   4  19
TORSDOF 7
ENDMDL
MODEL 3
REMARK VINA RESULT:    -6.950      3.444      4.151
REMARK INTER + INTRA:         -11.105
REMARK INTER:                 -10.013
REMARK INTRA:                  -1.092
REMARK UNBOUND:                -1.311
REMARK  Name = 
REMARK  9 active torsions:
REMARK  status: ('A' for Active; 'I' for Inactive)
REMARK    1  A    between atoms: C_1  and  C_2
REMARK    2  A    between atoms: C_2  and  N_3
REMARK    3  A    between atoms: C_2  and  C_11
REMARK    4  A    between atoms: N_3  and  C_4
REMARK    5  A    between atoms: C_4  and  C_5
REMARK    6  A    between atoms: C_14  and  C_15
REMARK    7  A    between atoms: C_15  and  N_16
REMARK    8  A    between atoms: N_16  and  C_17
REMARK    9  A    between atoms: C_18  and  C_20
REMARK                            x       y       z     vdW  Elec       q    Type
REMARK                         _______ _______ _______ _____ _____    ______ ____
ROOT
ATOM      1  C   UNL     1      47.156   7.026  13.066  0.00  0.00    +0.000 A 
ATOM      2  C   UNL     1      47.394   5.835  13.773  0.00  0.00    +0.000 A 
ATOM      3  C   UNL     1      48.049   5.839  15.005  0.00  0.00    +0.000 A 
ATOM      4  C   UNL     1      48.491   7.036  15.580  0.00  0.00    +0.000 A 
ATOM      5  C   UNL     1      48.339   8.220  14.849  0.00  0.00    +0.000 A 
ATOM      6  C   UNL     1      47.674   8.214  13.611  0.00  0.00    +0.000 A 
ENDROOT
BRANCH   1   8
ATOM      7  C   UNL     1      45.288   8.077  11.652  0.00  0.00    +0.000 C 
ATOM      8  C   UNL     1      46.329   6.956  11.771  0.00  0.00    +0.000 C 
BRANCH   8   9
ATOM      9  N   UNL     1      45.701   5.625  11.675  0.00  0.00    +0.000 NA
ATOM     10  H   UNL     1      46.308   5.009  11.138  0.00  0.00    +0.000 HD
BRANCH   9  11
ATOM     11  C   UNL     1      44.358   5.570  11.090  0.00  0.00    +0.000 C 
BRANCH  11  12
ATOM     12  C   UNL     1      44.289   4.438  10.033  0.00  0.00    +0.000 C 
ATOM     13  C   UNL     1      45.346   4.650   8.933  0.00  0.00    +0.000 C 
ATOM     14  C   UNL     1      45.398   3.471   7.970  0.00  0.00    +0.000 C 
ATOM     15  C   UNL     1      45.568   2.158   8.723  0.00  0.00    +0.000 C 
ATOM     16  N   UNL     1      44.481   1.971   9.684  0.00  0.00    +0.000 NA
ATOM     17  C   UNL     1      44.460   3.049  10.681  0.00  0.00    +0.000 C 
ATOM     18  H   UNL     1      44.602   1.073  10.153  0.00  0.00    +0.000 HD
ENDBRANCH  11  12
ENDBRANCH   9  11
ENDBRANCH   8   9
ENDBRANCH   1   8
BRANCH   4  19
ATOM     19  C   UNL     1      49.037   7.044  16.991  0.00  0.00    +0.000 C 
BRANCH  19  20
ATOM     20  N   UNL     1      50.299   6.331  17.222  0.00  0.00    +0.000 N 
ATOM     21  C   UNL     1      51.428   6.622  16.349  0.00  0.00    +0.000 C 
ATOM     22  C   UNL     1      50.253   5.247  18.116  0.00  0.00    +0.000 C 
ATOM     23  O   UNL     1      49.206   4.954  18.702  0.00  0.00    +0.000 OA
BRANCH  22  24
ATOM     24  C   UNL     1      51.480   4.473  18.389  0.00  0.00    +0.000 A 
ATOM     25  C   UNL     1      52.540   4.941  19.150  0.00  0.00    +0.000 A 
ATOM     26  S   UNL     1      53.825   3.836  19.305  0.00  0.00    +0.000 S 
ATOM     27  C   UNL     1      52.945   2.627  18.503  0.00  0.00    +0.000 A 
ATOM     28  N   UNL     1      53.443   1.368  18.399  0.00  0.00    +0.000 NA
ATOM     29  C   UNL     1      52.650   0.539  17.813  0.00  0.00    +0.000 A 
ATOM     30  N   UNL     1      51.425   0.860  17.283  0.00  0.00    +0.000 N 
ATOM     31  C   UNL     1      50.934   2.150  17.257  0.00  0.00    +0.000 A 
ATOM     32  O   UNL     1      49.949   2.431  16.582  0.00  0.00    +0.000 OA
ATOM     33  C   UNL     1      51.734   3.094  18.019  0.00  0.00    +0.000 A 
ATOM     34  H   UNL     1      50.882   0.177  16.774  0.00  0.00    +0.000 HD
ENDBRANCH  22  24
ENDBRANCH  19  20
ENDBRANCH   4  19
TORSDOF 7
ENDMDL
MODEL 4
REMARK VINA RESULT:    -6.596      4.202      5.228
REMARK INTER + INTRA:         -10.606
REMARK INTER:                  -9.728
REMARK INTRA:                  -0.877
REMARK UNBOUND:                -1.311
REMARK  Name = 
REMARK  9 active torsions:
REMARK  status: ('A' for Active; 'I' for Inactive)
REMARK    1  A    between atoms: C_1  and  C_2
REMARK    2  A    between atoms: C_2  and  N_3
REMARK    3  A    between atoms: C_2  and  C_11
REMARK    4  A    between atoms: N_3  and  C_4
REMARK    5  A    between atoms: C_4  and  C_5
REMARK    6  A    between atoms: C_14  and  C_15
REMARK    7  A    between atoms: C_15  and  N_16
REMARK    8  A    between atoms: N_16  and  C_17
REMARK    9  A    between atoms: C_18  and  C_20
REMARK                            x       y       z     vdW  Elec       q    Type
REMARK                         _______ _______ _______ _____ _____    ______ ____
ROOT
ATOM      1  C   UNL     1      44.658   4.634  11.425  0.00  0.00    +0.000 A 
ATOM      2  C   UNL     1      45.541   5.437  10.682  0.00  0.00    +0.000 A 
ATOM      3  C   UNL     1      46.135   6.571  11.238  0.00  0.00    +0.000 A 
ATOM      4  C   UNL     1      45.871   6.945  12.561  0.00  0.00    +0.000 A 
ATOM      5  C   UNL     1      44.929   6.206  13.285  0.00  0.00    +0.000 A 
ATOM      6  C   UNL     1      44.335   5.062  12.725  0.00  0.00    +0.000 A 
ENDROOT
BRANCH   1   8
ATOM      7  C   UNL     1      43.228   2.522  11.717  0.00  0.00    +0.000 C 
ATOM      8  C   UNL     1      44.130   3.339  10.784  0.00  0.00    +0.000 C 
BRANCH   8   9
ATOM      9  N   UNL     1      45.275   2.541  10.307  0.00  0.00    +0.000 NA
ATOM     10  H   UNL     1      46.108   3.127  10.296  0.00  0.00    +0.000 HD
BRANCH   9  11
ATOM     11  C   UNL     1      45.138   1.914   8.989  0.00  0.00    +0.000 C 
BRANCH  11  12
ATOM     12  C   UNL     1      46.303   2.361   8.068  0.00  0.00    +0.000 C 
ATOM     13  C   UNL     1      46.883   1.161   7.296  0.00  0.00    +0.000 C 
ATOM     14  C   UNL     1      47.923   1.601   6.274  0.00  0.00    +0.000 C 
ATOM     15  C   UNL     1      47.368   2.690   5.365  0.00  0.00    +0.000 C 
ATOM     16  N   UNL     1      46.922   3.840   6.152  0.00  0.00    +0.000 NA
ATOM     17  C   UNL     1      45.855   3.464   7.087  0.00  0.00    +0.000 C 
ATOM     18  H   UNL     1      46.583   4.564   5.518  0.00  0.00    +0.000 HD
ENDBRANCH  11  12
ENDBRANCH   9  11
ENDBRANCH   8   9
ENDBRANCH   1   8
BRANCH   4  19
ATOM     19  C   UNL     1      46.656   8.068  13.202  0.00  0.00    +0.000 C 
BRANCH  19  20
ATOM     20  N   UNL     1      47.925   8.444  12.566  0.00  0.00    +0.000 N 
ATOM     21  C   UNL     1      47.929   9.567  11.639  0.00  0.00    +0.000 C 
ATOM     22  C   UNL     1      48.992   7.541  12.715  0.00  0.00    +0.000 C 
ATOM     23  O   UNL     1      48.864   6.514  13.389  0.00  0.00    +0.000 OA
BRANCH  22  24
ATOM     24  C   UNL     1      50.296   7.843  12.093  0.00  0.00    +0.000 A 
ATOM     25  C   UNL     1      50.687   7.382  10.845  0.00  0.00    +0.000 A 
ATOM     26  S   UNL     1      52.242   7.887  10.373  0.00  0.00    +0.000 S 
ATOM     27  C   UNL     1      52.388   8.878  11.743  0.00  0.00    +0.000 A 
ATOM     28  N   UNL     1      53.463   9.693  11.892  0.00  0.00    +0.000 NA
ATOM     29  C   UNL     1      53.421  10.428  12.949  0.00  0.00    +0.000 A 
ATOM     30  N   UNL     1      52.426  10.392  13.894  0.00  0.00    +0.000 N 
ATOM     31  C   UNL     1      51.379   9.495  13.847  0.00  0.00    +0.000 A 
ATOM     32  O   UNL     1      50.641   9.343  14.815  0.00  0.00    +0.000 OA
ATOM     33  C   UNL     1      51.316   8.737  12.609  0.00  0.00    +0.000 A 
ATOM     34  H   UNL     1      52.489  10.946  14.737  0.00  0.00    +0.000 HD
ENDBRANCH  22  24
ENDBRANCH  19  20
ENDBRANCH   4  19
TORSDOF 7
ENDMDL
MODEL 5
REMARK VINA RESULT:    -6.402      3.426      7.965
REMARK INTER + INTRA:         -10.333
REMARK INTER:                  -8.051
REMARK INTRA:                  -2.281
REMARK UNBOUND:                -1.311
REMARK  Name = 
REMARK  9 active torsions:
REMARK  status: ('A' for Active; 'I' for Inactive)
REMARK    1  A    between atoms: C_1  and  C_2
REMARK    2  A    between atoms: C_2  and  N_3
REMARK    3  A    between atoms: C_2  and  C_11
REMARK    4  A    between atoms: N_3  and  C_4
REMARK    5  A    between atoms: C_4  and  C_5
REMARK    6  A    between atoms: C_14  and  C_15
REMARK    7  A    between atoms: C_15  and  N_16
REMARK    8  A    between atoms: N_16  and  C_17
REMARK    9  A    between atoms: C_18  and  C_20
REMARK                            x       y       z     vdW  Elec       q    Type
REMARK                         _______ _______ _______ _____ _____    ______ ____
ROOT
ATOM      1  C   UNL     1      51.197   8.012  17.130  0.00  0.00    +0.000 A 
ATOM      2  C   UNL     1      50.600   9.274  16.971  0.00  0.00    +0.000 A 
ATOM      3  C   UNL     1      50.097   9.691  15.737  0.00  0.00    +0.000 A 
ATOM      4  C   UNL     1      50.171   8.859  14.613  0.00  0.00    +0.000 A 
ATOM      5  C   UNL     1      50.840   7.635  14.735  0.00  0.00    +0.000 A 
ATOM      6  C   UNL     1      51.340   7.216  15.980  0.00  0.00    +0.000 A 
ENDROOT
BRANCH   1   8
ATOM      7  C   UNL     1      53.139   7.642  18.767  0.00  0.00    +0.000 C 
ATOM      8  C   UNL     1      51.624   7.577  18.543  0.00  0.00    +0.000 C 
BRANCH   8   9
ATOM      9  N   UNL     1      51.097   6.225  18.807  0.00  0.00    +0.000 NA
ATOM     10  H   UNL     1      51.266   5.637  17.993  0.00  0.00    +0.000 HD
BRANCH   9  11
ATOM     11  C   UNL     1      49.677   6.128  19.157  0.00  0.00    +0.000 C 
BRANCH  11  12
ATOM     12  C   UNL     1      48.929   5.276  18.097  0.00  0.00    +0.000 C 
ATOM     13  C   UNL     1      49.553   3.873  17.983  0.00  0.00    +0.000 C 
ATOM     14  C   UNL     1      48.742   2.971  17.062  0.00  0.00    +0.000 C 
ATOM     15  C   UNL     1      47.276   2.947  17.474  0.00  0.00    +0.000 C 
ATOM     16  N   UNL     1      46.717   4.299  17.470  0.00  0.00    +0.000 NA
ATOM     17  C   UNL     1      47.424   5.171  18.417  0.00  0.00    +0.000 C 
ATOM     18  H   UNL     1      45.729   4.252  17.721  0.00  0.00    +0.000 HD
ENDBRANCH  11  12
ENDBRANCH   9  11
ENDBRANCH   8   9
ENDBRANCH   1   8
BRANCH   4  19
ATOM     19  C   UNL     1      49.467   9.250  13.332  0.00  0.00    +0.000 C 
BRANCH  19  20
ATOM     20  N   UNL     1      48.541   8.269  12.754  0.00  0.00    +0.000 N 
ATOM     21  C   UNL     1      48.905   7.629  11.498  0.00  0.00    +0.000 C 
ATOM     22  C   UNL     1      47.261   8.198  13.333  0.00  0.00    +0.000 C 
ATOM     23  O   UNL     1      46.967   8.900  14.306  0.00  0.00    +0.000 OA
BRANCH  22  24
ATOM     24  C   UNL     1      46.270   7.245  12.798  0.00  0.00    +0.000 A 
ATOM     25  C   UNL     1      45.275   7.585  11.893  0.00  0.00    +0.000 A 
ATOM     26  S   UNL     1      44.272   6.286  11.443  0.00  0.00    +0.000 S 
ATOM     27  C   UNL     1      45.230   5.184  12.308  0.00  0.00    +0.000 A 
ATOM     28  N   UNL     1      44.978   3.851  12.241  0.00  0.00    +0.000 NA
ATOM     29  C   UNL     1      45.812   3.127  12.903  0.00  0.00    +0.000 A 
ATOM     30  N   UNL     1      46.849   3.612  13.661  0.00  0.00    +0.000 N 
ATOM     31  C   UNL     1      47.069   4.960  13.856  0.00  0.00    +0.000 A 
ATOM     32  O   UNL     1      47.858   5.348  14.711  0.00  0.00    +0.000 OA
ATOM     33  C   UNL     1      46.233   5.813  13.027  0.00  0.00    +0.000 A 
ATOM     34  H   UNL     1      47.425   2.992  14.212  0.00  0.00    +0.000 HD
ENDBRANCH  22  24
ENDBRANCH  19  20
ENDBRANCH   4  19
TORSDOF 7
ENDMDL
MODEL 6
REMARK VINA RESULT:    -6.276      2.459      3.175
REMARK INTER + INTRA:         -10.155
REMARK INTER:                  -8.794
REMARK INTRA:                  -1.362
REMARK UNBOUND:                -1.311
REMARK  Name = 
REMARK  9 active torsions:
REMARK  status: ('A' for Active; 'I' for Inactive)
REMARK    1  A    between atoms: C_1  and  C_2
REMARK    2  A    between atoms: C_2  and  N_3
REMARK    3  A    between atoms: C_2  and  C_11
REMARK    4  A    between atoms: N_3  and  C_4
REMARK    5  A    between atoms: C_4  and  C_5
REMARK    6  A    between atoms: C_14  and  C_15
REMARK    7  A    between atoms: C_15  and  N_16
REMARK    8  A    between atoms: N_16  and  C_17
REMARK    9  A    between atoms: C_18  and  C_20
REMARK                            x       y       z     vdW  Elec       q    Type
REMARK                         _______ _______ _______ _____ _____    ______ ____
ROOT
ATOM      1  C   UNL     1      45.027   6.597  12.180  0.00  0.00    +0.000 A 
ATOM      2  C   UNL     1      44.958   7.972  11.893  0.00  0.00    +0.000 A 
ATOM      3  C   UNL     1      46.086   8.790  11.974  0.00  0.00    +0.000 A 
ATOM      4  C   UNL     1      47.330   8.263  12.342  0.00  0.00    +0.000 A 
ATOM      5  C   UNL     1      47.397   6.916  12.714  0.00  0.00    +0.000 A 
ATOM      6  C   UNL     1      46.262   6.093  12.627  0.00  0.00    +0.000 A 
ENDROOT
BRANCH   1   8
ATOM      7  C   UNL     1      43.689   4.527  12.895  0.00  0.00    +0.000 C 
ATOM      8  C   UNL     1      43.770   5.740  11.959  0.00  0.00    +0.000 C 
BRANCH   8   9
ATOM      9  N   UNL     1      43.710   5.332  10.543  0.00  0.00    +0.000 NA
ATOM     10  H   UNL     1      42.857   5.700  10.127  0.00  0.00    +0.000 HD
BRANCH   9  11
ATOM     11  C   UNL     1      43.772   3.894  10.267  0.00  0.00    +0.000 C 
BRANCH  11  12
ATOM     12  C   UNL     1      45.096   3.554   9.533  0.00  0.00    +0.000 C 
ATOM     13  C   UNL     1      45.047   2.131   8.946  0.00  0.00    +0.000 C 
ATOM     14  C   UNL     1      46.272   1.833   8.092  0.00  0.00    +0.000 C 
ATOM     15  C   UNL     1      46.477   2.913   7.037  0.00  0.00    +0.000 C 
ATOM     16  N   UNL     1      46.612   4.228   7.665  0.00  0.00    +0.000 NA
ATOM     17  C   UNL     1      45.406   4.581   8.425  0.00  0.00    +0.000 C 
ATOM     18  H   UNL     1      46.776   4.927   6.940  0.00  0.00    +0.000 HD
ENDBRANCH  11  12
ENDBRANCH   9  11
ENDBRANCH   8   9
ENDBRANCH   1   8
BRANCH   4  19
ATOM     19  C   UNL     1      48.573   9.121  12.253  0.00  0.00    +0.000 C 
BRANCH  19  20
ATOM     20  N   UNL     1      49.473   9.114  13.413  0.00  0.00    +0.000 N 
ATOM     21  C   UNL     1      49.173  10.003  14.526  0.00  0.00    +0.000 C 
ATOM     22  C   UNL     1      50.690   8.427  13.259  0.00  0.00    +0.000 C 
ATOM     23  O   UNL     1      50.950   7.826  12.211  0.00  0.00    +0.000 OA
BRANCH  22  24
ATOM     24  C   UNL     1      51.653   8.387  14.377  0.00  0.00    +0.000 A 
ATOM     25  C   UNL     1      52.813   9.144  14.429  0.00  0.00    +0.000 A 
ATOM     26  S   UNL     1      53.738   8.901  15.838  0.00  0.00    +0.000 S 
ATOM     27  C   UNL     1      52.540   7.903  16.509  0.00  0.00    +0.000 A 
ATOM     28  N   UNL     1      52.661   7.443  17.780  0.00  0.00    +0.000 NA
ATOM     29  C   UNL     1      51.658   6.741  18.180  0.00  0.00    +0.000 A 
ATOM     30  N   UNL     1      50.565   6.419  17.414  0.00  0.00    +0.000 N 
ATOM     31  C   UNL     1      50.457   6.762  16.081  0.00  0.00    +0.000 A 
ATOM     32  O   UNL     1      49.581   6.270  15.378  0.00  0.00    +0.000 OA
ATOM     33  C   UNL     1      51.502   7.662  15.624  0.00  0.00    +0.000 A 
ATOM     34  H   UNL     1      49.844   5.806  17.766  0.00  0.00    +0.000 HD
ENDBRANCH  22  24
ENDBRANCH  19  20
ENDBRANCH   4  19
TORSDOF 7
ENDMDL
MODEL 7
REMARK VINA RESULT:    -6.207      2.135      3.239
REMARK INTER + INTRA:         -10.058
REMARK INTER:                  -8.931
REMARK INTRA:                  -1.127
REMARK UNBOUND:                -1.311
REMARK  Name = 
REMARK  9 active torsions:
REMARK  status: ('A' for Active; 'I' for Inactive)
REMARK    1  A    between atoms: C_1  and  C_2
REMARK    2  A    between atoms: C_2  and  N_3
REMARK    3  A    between atoms: C_2  and  C_11
REMARK    4  A    between atoms: N_3  and  C_4
REMARK    5  A    between atoms: C_4  and  C_5
REMARK    6  A    between atoms: C_14  and  C_15
REMARK    7  A    between atoms: C_15  and  N_16
REMARK    8  A    between atoms: N_16  and  C_17
REMARK    9  A    between atoms: C_18  and  C_20
REMARK                            x       y       z     vdW  Elec       q    Type
REMARK                         _______ _______ _______ _____ _____    ______ ____
ROOT
ATOM      1  C   UNL     1      46.614   5.611  13.109  0.00  0.00    +0.000 A 
ATOM      2  C   UNL     1      47.522   6.569  13.595  0.00  0.00    +0.000 A 
ATOM      3  C   UNL     1      48.167   6.403  14.821  0.00  0.00    +0.000 A 
ATOM      4  C   UNL     1      47.932   5.270  15.610  0.00  0.00    +0.000 A 
ATOM      5  C   UNL     1      46.967   4.351  15.181  0.00  0.00    +0.000 A 
ATOM      6  C   UNL     1      46.322   4.518  13.944  0.00  0.00    +0.000 A 
ENDROOT
BRANCH   1   8
ATOM      7  C   UNL     1      45.440   7.205  11.474  0.00  0.00    +0.000 C 
ATOM      8  C   UNL     1      46.028   5.807  11.700  0.00  0.00    +0.000 C 
BRANCH   8   9
ATOM      9  N   UNL     1      45.027   4.753  11.448  0.00  0.00    +0.000 NA
ATOM     10  H   UNL     1      45.504   3.860  11.340  0.00  0.00    +0.000 HD
BRANCH   9  11
ATOM     11  C   UNL     1      44.145   4.946  10.293  0.00  0.00    +0.000 C 
BRANCH  11  12
ATOM     12  C   UNL     1      44.433   3.861   9.223  0.00  0.00    +0.000 C 
ATOM     13  C   UNL     1      45.625   4.268   8.337  0.00  0.00    +0.000 C 
ATOM     14  C   UNL     1      46.021   3.151   7.380  0.00  0.00    +0.000 C 
ATOM     15  C   UNL     1      46.246   1.845   8.130  0.00  0.00    +0.000 C 
ATOM     16  N   UNL     1      45.045   1.464   8.875  0.00  0.00    +0.000 NA
ATOM     17  C   UNL     1      44.689   2.484   9.869  0.00  0.00    +0.000 C 
ATOM     18  H   UNL     1      45.213   0.573   9.343  0.00  0.00    +0.000 HD
ENDBRANCH  11  12
ENDBRANCH   9  11
ENDBRANCH   8   9
ENDBRANCH   1   8
BRANCH   4  19
ATOM     19  C   UNL     1      48.768   5.018  16.845  0.00  0.00    +0.000 C 
BRANCH  19  20
ATOM     20  N   UNL     1      48.969   6.151  17.757  0.00  0.00    +0.000 N 
ATOM     21  C   UNL     1      50.301   6.731  17.857  0.00  0.00    +0.000 C 
ATOM     22  C   UNL     1      47.916   6.436  18.644  0.00  0.00    +0.000 C 
ATOM     23  O   UNL     1      46.866   5.786  18.611  0.00  0.00    +0.000 OA
BRANCH  22  24
ATOM     24  C   UNL     1      48.050   7.553  19.600  0.00  0.00    +0.000 A 
ATOM     25  C   UNL     1      48.237   7.388  20.965  0.00  0.00    +0.000 A 
ATOM     26  S   UNL     1      48.361   8.849  21.830  0.00  0.00    +0.000 S 
ATOM     27  C   UNL     1      48.340   9.756  20.395  0.00  0.00    +0.000 A 
ATOM     28  N   UNL     1      48.530  11.099  20.427  0.00  0.00    +0.000 NA
ATOM     29  C   UNL     1      48.541  11.654  19.264  0.00  0.00    +0.000 A 
ATOM     30  N   UNL     1      48.336  10.998  18.076  0.00  0.00    +0.000 N 
ATOM     31  C   UNL     1      48.018   9.657  18.005  0.00  0.00    +0.000 A 
ATOM     32  O   UNL     1      47.625   9.163  16.954  0.00  0.00    +0.000 OA
ATOM     33  C   UNL     1      48.121   8.965  19.278  0.00  0.00    +0.000 A 
ATOM     34  H   UNL     1      48.288  11.505  17.203  0.00  0.00    +0.000 HD
ENDBRANCH  22  24
ENDBRANCH  19  20
ENDBRANCH   4  19
TORSDOF 7
ENDMDL
MODEL 8
REMARK VINA RESULT:    -6.113      4.281      5.464
REMARK INTER + INTRA:          -9.926
REMARK INTER:                  -9.005
REMARK INTRA:                  -0.921
REMARK UNBOUND:                -1.311
REMARK  Name = 
REMARK  9 active torsions:
REMARK  status: ('A' for Active; 'I' for Inactive)
REMARK    1  A    between atoms: C_1  and  C_2
REMARK    2  A    between atoms: C_2  and  N_3
REMARK    3  A    between atoms: C_2  and  C_11
REMARK    4  A    between atoms: N_3  and  C_4
REMARK    5  A    between atoms: C_4  and  C_5
REMARK    6  A    between atoms: C_14  and  C_15
REMARK    7  A    between atoms: C_15  and  N_16
REMARK    8  A    between atoms: N_16  and  C_17
REMARK    9  A    between atoms: C_18  and  C_20
REMARK                            x       y       z     vdW  Elec       q    Type
REMARK                         _______ _______ _______ _____ _____    ______ ____
ROOT
ATOM      1  C   UNL     1      44.731   4.938  11.609  0.00  0.00    +0.000 A 
ATOM      2  C   UNL     1      45.812   4.577  12.433  0.00  0.00    +0.000 A 
ATOM      3  C   UNL     1      46.693   5.534  12.938  0.00  0.00    +0.000 A 
ATOM      4  C   UNL     1      46.527   6.892  12.641  0.00  0.00    +0.000 A 
ATOM      5  C   UNL     1      45.508   7.257  11.753  0.00  0.00    +0.000 A 
ATOM      6  C   UNL     1      44.618   6.293  11.250  0.00  0.00    +0.000 A 
ENDROOT
BRANCH   1   8
ATOM      7  C   UNL     1      43.351   2.895  12.325  0.00  0.00    +0.000 C 
ATOM      8  C   UNL     1      43.737   3.844  11.184  0.00  0.00    +0.000 C 
BRANCH   8   9
ATOM      9  N   UNL     1      44.298   3.107  10.036  0.00  0.00    +0.000 NA
ATOM     10  H   UNL     1      45.113   2.581  10.346  0.00  0.00    +0.000 HD
BRANCH   9  11
ATOM     11  C   UNL     1      44.682   3.903   8.867  0.00  0.00    +0.000 C 
BRANCH  11  12
ATOM     12  C   UNL     1      45.391   3.000   7.824  0.00  0.00    +0.000 C 
ATOM     13  C   UNL     1      46.491   3.781   7.080  0.00  0.00    +0.000 C 
ATOM     14  C   UNL     1      47.301   2.874   6.163  0.00  0.00    +0.000 C 
ATOM     15  C   UNL     1      47.830   1.663   6.920  0.00  0.00    +0.000 C 
ATOM     16  N   UNL     1      46.729   0.911   7.522  0.00  0.00    +0.000 NA
ATOM     17  C   UNL     1      45.982   1.735   8.480  0.00  0.00    +0.000 C 
ATOM     18  H   UNL     1      47.107   0.091   7.997  0.00  0.00    +0.000 HD
ENDBRANCH  11  12
ENDBRANCH   9  11
ENDBRANCH   8   9
ENDBRANCH   1   8
BRANCH   4  19
ATOM     19  C   UNL     1      47.379   7.930  13.336  0.00  0.00    +0.000 C 
BRANCH  19  20
ATOM     20  N   UNL     1      48.485   8.511  12.565  0.00  0.00    +0.000 N 
ATOM     21  C   UNL     1      49.067   7.722  11.489  0.00  0.00    +0.000 C 
ATOM     22  C   UNL     1      49.057   9.687  13.078  0.00  0.00    +0.000 C 
ATOM     23  O   UNL     1      48.609  10.216  14.101  0.00  0.00    +0.000 OA
BRANCH  22  24
ATOM     24  C   UNL     1      50.183  10.323  12.365  0.00  0.00    +0.000 A 
ATOM     25  C   UNL     1      50.036  11.343  11.436  0.00  0.00    +0.000 A 
ATOM     26  S   UNL     1      51.504  11.892  10.771  0.00  0.00    +0.000 S 
ATOM     27  C   UNL     1      52.403  10.907  11.820  0.00  0.00    +0.000 A 
ATOM     28  N   UNL     1      53.758  10.986  11.846  0.00  0.00    +0.000 NA
ATOM     29  C   UNL     1      54.310  10.221  12.724  0.00  0.00    +0.000 A 
ATOM     30  N   UNL     1      53.638   9.353  13.548  0.00  0.00    +0.000 N 
ATOM     31  C   UNL     1      52.275   9.151  13.471  0.00  0.00    +0.000 A 
ATOM     32  O   UNL     1      51.748   8.214  14.061  0.00  0.00    +0.000 OA
ATOM     33  C   UNL     1      51.596  10.082  12.587  0.00  0.00    +0.000 A 
ATOM     34  H   UNL     1      54.137   8.730  14.167  0.00  0.00    +0.000 HD
ENDBRANCH  22  24
ENDBRANCH  19  20
ENDBRANCH   4  19
TORSDOF 7
ENDMDL
MODEL 9
REMARK VINA RESULT:    -5.993      3.400      8.748
REMARK INTER + INTRA:          -9.756
REMARK INTER:                  -8.225
REMARK INTRA:                  -1.531
REMARK UNBOUND:                -1.311
REMARK  Name = 
REMARK  9 active torsions:
REMARK  status: ('A' for Active; 'I' for Inactive)
REMARK    1  A    between atoms: C_1  and  C_2
REMARK    2  A    between atoms: C_2  and  N_3
REMARK    3  A    between atoms: C_2  and  C_11
REMARK    4  A    between atoms: N_3  and  C_4
REMARK    5  A    between atoms: C_4  and  C_5
REMARK    6  A    between atoms: C_14  and  C_15
REMARK    7  A    between atoms: C_15  and  N_16
REMARK    8  A    between atoms: N_16  and  C_17
REMARK    9  A    between atoms: C_18  and  C_20
REMARK                            x       y       z     vdW  Elec       q    Type
REMARK                         _______ _______ _______ _____ _____    ______ ____
ROOT
ATOM      1  C   UNL     1      51.801   5.351  17.663  0.00  0.00    +0.000 A 
ATOM      2  C   UNL     1      52.711   6.135  16.933  0.00  0.00    +0.000 A 
ATOM      3  C   UNL     1      52.280   7.008  15.932  0.00  0.00    +0.000 A 
ATOM      4  C   UNL     1      50.920   7.132  15.624  0.00  0.00    +0.000 A 
ATOM      5  C   UNL     1      50.011   6.295  16.282  0.00  0.00    +0.000 A 
ATOM      6  C   UNL     1      50.446   5.422  17.292  0.00  0.00    +0.000 A 
ENDROOT
BRANCH   1   8
ATOM      7  C   UNL     1      52.995   3.191  18.369  0.00  0.00    +0.000 C 
ATOM      8  C   UNL     1      52.337   4.499  18.826  0.00  0.00    +0.000 C 
BRANCH   8   9
ATOM      9  N   UNL     1      51.241   4.247  19.780  0.00  0.00    +0.000 NA
ATOM     10  H   UNL     1      50.355   4.259  19.279  0.00  0.00    +0.000 HD
BRANCH   9  11
ATOM     11  C   UNL     1      51.136   5.162  20.920  0.00  0.00    +0.000 C 
BRANCH  11  12
ATOM     12  C   UNL     1      49.726   5.807  20.951  0.00  0.00    +0.000 C 
ATOM     13  C   UNL     1      49.728   7.162  20.218  0.00  0.00    +0.000 C 
ATOM     14  C   UNL     1      48.324   7.740  20.103  0.00  0.00    +0.000 C 
ATOM     15  C   UNL     1      47.364   6.726  19.493  0.00  0.00    +0.000 C 
ATOM     16  N   UNL     1      47.337   5.499  20.289  0.00  0.00    +0.000 NA
ATOM     17  C   UNL     1      48.663   4.870  20.344  0.00  0.00    +0.000 C 
ATOM     18  H   UNL     1      46.667   4.850  19.876  0.00  0.00    +0.000 HD
ENDBRANCH  11  12
ENDBRANCH   9  11
ENDBRANCH   8   9
ENDBRANCH   1   8
BRANCH   4  19
ATOM     19  C   UNL     1      50.454   8.206  14.666  0.00  0.00    +0.000 C 
BRANCH  19  20
ATOM     20  N   UNL     1      49.030   8.209  14.308  0.00  0.00    +0.000 N 
ATOM     21  C   UNL     1      48.100   8.915  15.179  0.00  0.00    +0.000 C 
ATOM     22  C   UNL     1      48.639   7.330  13.284  0.00  0.00    +0.000 C 
ATOM     23  O   UNL     1      49.471   6.632  12.695  0.00  0.00    +0.000 OA
BRANCH  22  24
ATOM     24  C   UNL     1      47.221   7.267  12.878  0.00  0.00    +0.000 A 
ATOM     25  C   UNL     1      46.577   8.257  12.151  0.00  0.00    +0.000 A 
ATOM     26  S   UNL     1      44.942   7.922  11.818  0.00  0.00    +0.000 S 
ATOM     27  C   UNL     1      45.075   6.367  12.485  0.00  0.00    +0.000 A 
ATOM     28  N   UNL     1      44.036   5.496  12.413  0.00  0.00    +0.000 NA
ATOM     29  C   UNL     1      44.291   4.336  12.912  0.00  0.00    +0.000 A 
ATOM     30  N   UNL     1      45.471   3.979  13.515  0.00  0.00    +0.000 N 
ATOM     31  C   UNL     1      46.508   4.868  13.720  0.00  0.00    +0.000 A 
ATOM     32  O   UNL     1      47.446   4.576  14.454  0.00  0.00    +0.000 OA
ATOM     33  C   UNL     1      46.316   6.148  13.061  0.00  0.00    +0.000 A 
ATOM     34  H   UNL     1      45.582   3.073  13.949  0.00  0.00    +0.000 HD
ENDBRANCH  22  24
ENDBRANCH  19  20
ENDBRANCH   4  19
TORSDOF 7
ENDMDL
