MODEL 1
REMARK VINA RESULT:    -7.495      0.000      0.000
REMARK INTER + INTRA:         -14.233
REMARK INTER:                 -12.315
REMARK INTRA:                  -1.918
REMARK UNBOUND:                -1.918
REMARK  Name = 
REMARK  12 active torsions:
REMARK  status: ('A' for Active; 'I' for Inactive)
REMARK    1  A    between atoms: C_2  and  C_25
REMARK    2  A    between atoms: N_3  and  CA_4
REMARK    3  A    between atoms: CA_4  and  C_5
REMARK    4  A    between atoms: CA_4  and  C_7
REMARK    5  A    between atoms: C_5  and  O_6
REMARK    6  A    between atoms: C_10  and  C_11
REMARK    7  A    between atoms: C_11  and  N_12
REMARK    8  A    between atoms: N_12  and  C_13
REMARK    9  A    between atoms: N_12  and  C_16
REMARK   10  A    between atoms: C_13  and  C_14
REMARK   11  A    between atoms: C_14  and  O_15
REMARK   12  A    between atoms: C_16  and  C_17
REMARK                            x       y       z     vdW  Elec       q    Type
REMARK                         _______ _______ _______ _____ _____    ______ ____
ROOT
ATOM      1  CA  UNL     1      48.257   7.751  14.383  0.00  0.00    +0.000 C 
ENDROOT
BRANCH   1   2
ATOM      2  C   UNL     1      47.230   7.321  13.347  0.00  0.00    +0.000 A 
ATOM      3  C   UNL     1      47.332   6.037  12.789  0.00  0.00    +0.000 A 
ATOM      4  C   UNL     1      46.379   5.575  11.884  0.00  0.00    +0.000 A 
ATOM      5  C   UNL     1      45.281   6.373  11.543  0.00  0.00    +0.000 A 
ATOM      6  C   UNL     1      45.196   7.672  12.058  0.00  0.00    +0.000 A 
ATOM      7  C   UNL     1      46.156   8.138  12.962  0.00  0.00    +0.000 A 
BRANCH   5   8
ATOM      8  C   UNL     1      44.173   5.802  10.684  0.00  0.00    +0.000 C 
BRANCH   8   9
ATOM      9  N   UNL     1      44.345   4.352  10.407  0.00  0.00    +0.000 NA
BRANCH   9  10
ATOM     10  C   UNL     1      43.319   3.555  11.127  0.00  0.00    +0.000 C 
BRANCH  10  11
ATOM     11  C   UNL     1      43.744   3.018  12.505  0.00  0.00    +0.000 C 
BRANCH  11  12
ATOM     12  O   UNL     1      45.078   2.513  12.453  0.00  0.00    +0.000 OA
ATOM     13  H   UNL     1      45.592   2.995  13.124  0.00  0.00    +0.000 HD
ENDBRANCH  11  12
ENDBRANCH  10  11
ENDBRANCH   9  10
BRANCH   9  14
ATOM     14  C   UNL     1      44.261   4.110   8.954  0.00  0.00    +0.000 C 
BRANCH  14  15
ATOM     15  C   UNL     1      45.379   3.261   8.387  0.00  0.00    +0.000 A 
ATOM     16  C   UNL     1      45.446   1.885   8.657  0.00  0.00    +0.000 A 
ATOM     17  C   UNL     1      46.420   1.092   8.048  0.00  0.00    +0.000 A 
ATOM     18  C   UNL     1      47.341   1.667   7.173  0.00  0.00    +0.000 A 
ATOM     19  C   UNL     1      47.304   3.038   6.925  0.00  0.00    +0.000 A 
ATOM     20  C   UNL     1      46.330   3.832   7.529  0.00  0.00    +0.000 A 
ENDBRANCH  14  15
ENDBRANCH   9  14
ENDBRANCH   8   9
ENDBRANCH   5   8
ENDBRANCH   1   2
BRANCH   1  23
ATOM     21  O   UNL     1      50.329   6.409  15.723  0.00  0.00    +0.000 OA
ATOM     22  C   UNL     1      49.199   6.369  16.200  0.00  0.00    +0.000 C 
ATOM     23  N   UNL     1      48.115   6.926  15.573  0.00  0.00    +0.000 N 
ATOM     24  H   UNL     1      47.236   6.996  16.073  0.00  0.00    +0.000 HD
BRANCH  22  25
ATOM     25  C   UNL     1      48.937   5.684  17.470  0.00  0.00    +0.000 A 
ATOM     26  C   UNL     1      49.160   4.317  17.582  0.00  0.00    +0.000 A 
ATOM     27  S   UNL     1      48.807   3.696  19.131  0.00  0.00    +0.000 S 
ATOM     28  C   UNL     1      48.392   5.243  19.715  0.00  0.00    +0.000 A 
ATOM     29  N   UNL     1      48.029   5.422  21.013  0.00  0.00    +0.000 NA
ATOM     30  C   UNL     1      47.789   6.649  21.333  0.00  0.00    +0.000 A 
ATOM     31  N   UNL     1      47.868   7.712  20.468  0.00  0.00    +0.000 N 
ATOM     32  C   UNL     1      48.180   7.572  19.137  0.00  0.00    +0.000 A 
ATOM     33  O   UNL     1      48.158   8.529  18.373  0.00  0.00    +0.000 OA
ATOM     34  C   UNL     1      48.493   6.209  18.737  0.00  0.00    +0.000 A 
ATOM     35  H   UNL     1      47.652   8.645  20.781  0.00  0.00    +0.000 HD
ENDBRANCH  22  25
ENDBRANCH   1  23
BRANCH   1  36
ATOM     36  C   UNL     1      48.182   9.257  14.731  0.00  0.00    +0.000 C 
BRANCH  36  37
ATOM     37  O   UNL     1      47.478   9.506  15.946  0.00  0.00    +0.000 OA
ATOM     38  H   UNL     1      47.911   8.983  16.643  0.00  0.00    +0.000 HD
ENDBRANCH  36  37
ENDBRANCH   1  36
TORSDOF 12
ENDMDL
MODEL 2
REMARK VINA RESULT:    -7.381      1.534      1.976
REMARK INTER + INTRA:         -14.045
REMARK INTER:                 -12.495
REMARK INTRA:                  -1.550
REMARK UNBOUND:                -1.918
REMARK  Name = 
REMARK  12 active torsions:
REMARK  status: ('A' for Active; 'I' for Inactive)
REMARK    1  A    between atoms: C_2  and  C_25
REMARK    2  A    between atoms: N_3  and  CA_4
REMARK    3  A    between atoms: CA_4  and  C_5
REMARK    4  A    between atoms: CA_4  and  C_7
REMARK    5  A    between atoms: C_5  and  O_6
REMARK    6  A    between atoms: C_10  and  C_11
REMARK    7  A    between atoms: C_11  and  N_12
REMARK    8  A    between atoms: N_12  and  C_13
REMARK    9  A    between atoms: N_12  and  C_16
REMARK   10  A    between atoms: C_13  and  C_14
REMARK   11  A    between atoms: C_14  and  O_15
REMARK   12  A    between atoms: C_16  and  C_17
REMARK                            x       y       z     vdW  Elec       q    Type
REMARK                         _______ _______ _______ _____ _____    ______ ____
ROOT
ATOM      1  CA  UNL     1      49.254   6.771  14.496  0.00  0.00    +0.000 C 
ENDROOT
BRANCH   1   2
ATOM      2  C   UNL     1      48.170   6.501  13.464  0.00  0.00    +0.000 A 
ATOM      3  C   UNL     1      47.200   5.526  13.744  0.00  0.00    +0.000 A 
ATOM      4  C   UNL     1      46.151   5.289  12.858  0.00  0.00    +0.000 A 
ATOM      5  C   UNL     1      46.027   6.046  11.687  0.00  0.00    +0.000 A 
ATOM      6  C   UNL     1      47.015   6.988  11.378  0.00  0.00    +0.000 A 
ATOM      7  C   UNL     1      48.071   7.223  12.264  0.00  0.00    +0.000 A 
BRANCH   5   8
ATOM      8  C   UNL     1      44.801   5.888  10.814  0.00  0.00    +0.000 C 
BRANCH   8   9
ATOM      9  N   UNL     1      44.423   4.467  10.598  0.00  0.00    +0.000 NA
BRANCH   9  10
ATOM     10  C   UNL     1      43.179   4.137  11.338  0.00  0.00    +0.000 C 
BRANCH  10  11
ATOM     11  C   UNL     1      42.421   5.340  11.930  0.00  0.00    +0.000 C 
BRANCH  11  12
ATOM     12  O   UNL     1      42.560   5.365  13.350  0.00  0.00    +0.000 OA
ATOM     13  H   UNL     1      42.247   4.507  13.683  0.00  0.00    +0.000 HD
ENDBRANCH  11  12
ENDBRANCH  10  11
ENDBRANCH   9  10
BRANCH   9  14
ATOM     14  C   UNL     1      44.250   4.212   9.156  0.00  0.00    +0.000 C 
BRANCH  14  15
ATOM     15  C   UNL     1      45.329   3.353   8.530  0.00  0.00    +0.000 A 
ATOM     16  C   UNL     1      45.390   1.975   8.784  0.00  0.00    +0.000 A 
ATOM     17  C   UNL     1      46.323   1.175   8.123  0.00  0.00    +0.000 A 
ATOM     18  C   UNL     1      47.210   1.746   7.211  0.00  0.00    +0.000 A 
ATOM     19  C   UNL     1      47.180   3.120   6.977  0.00  0.00    +0.000 A 
ATOM     20  C   UNL     1      46.246   3.921   7.633  0.00  0.00    +0.000 A 
ENDBRANCH  14  15
ENDBRANCH   9  14
ENDBRANCH   8   9
ENDBRANCH   5   8
ENDBRANCH   1   2
BRANCH   1  23
ATOM     21  O   UNL     1      49.953   5.321  16.798  0.00  0.00    +0.000 OA
ATOM     22  C   UNL     1      49.104   6.202  16.895  0.00  0.00    +0.000 C 
ATOM     23  N   UNL     1      48.644   6.903  15.811  0.00  0.00    +0.000 N 
ATOM     24  H   UNL     1      48.056   7.715  15.961  0.00  0.00    +0.000 HD
BRANCH  22  25
ATOM     25  C   UNL     1      48.502   6.535  18.190  0.00  0.00    +0.000 A 
ATOM     26  C   UNL     1      48.100   5.521  19.051  0.00  0.00    +0.000 A 
ATOM     27  S   UNL     1      47.430   6.095  20.511  0.00  0.00    +0.000 S 
ATOM     28  C   UNL     1      47.700   7.717  20.059  0.00  0.00    +0.000 A 
ATOM     29  N   UNL     1      47.382   8.736  20.900  0.00  0.00    +0.000 NA
ATOM     30  C   UNL     1      47.684   9.908  20.453  0.00  0.00    +0.000 A 
ATOM     31  N   UNL     1      48.265  10.154  19.234  0.00  0.00    +0.000 N 
ATOM     32  C   UNL     1      48.555   9.160  18.330  0.00  0.00    +0.000 A 
ATOM     33  O   UNL     1      48.994   9.420  17.217  0.00  0.00    +0.000 OA
ATOM     34  C   UNL     1      48.265   7.817  18.805  0.00  0.00    +0.000 A 
ATOM     35  H   UNL     1      48.461  11.097  18.940  0.00  0.00    +0.000 HD
ENDBRANCH  22  25
ENDBRANCH   1  23
BRANCH   1  36
ATOM     36  C   UNL     1      50.131   7.999  14.157  0.00  0.00    +0.000 C 
BRANCH  36  37
ATOM     37  O   UNL     1      51.526   7.721  14.252  0.00  0.00    +0.000 OA
ATOM     38  H   UNL     1      51.648   6.780  14.041  0.00  0.00    +0.000 HD
ENDBRANCH  36  37
ENDBRANCH   1  36
TORSDOF 12
ENDMDL
MODEL 3
REMARK VINA RESULT:    -7.370      1.782      2.179
REMARK INTER + INTRA:         -14.028
REMARK INTER:                 -12.323
REMARK INTRA:                  -1.705
REMARK UNBOUND:                -1.918
REMARK  Name = 
REMARK  12 active torsions:
REMARK  status: ('A' for Active; 'I' for Inactive)
REMARK    1  A    between atoms: C_2  and  C_25
REMARK    2  A    between atoms: N_3  and  CA_4
REMARK    3  A    between atoms: CA_4  and  C_5
REMARK    4  A    between atoms: CA_4  and  C_7
REMARK    5  A    between atoms: C_5  and  O_6
REMARK    6  A    between atoms: C_10  and  C_11
REMARK    7  A    between atoms: C_11  and  N_12
REMARK    8  A    between atoms: N_12  and  C_13
REMARK    9  A    between atoms: N_12  and  C_16
REMARK   10  A    between atoms: C_13  and  C_14
REMARK   11  A    between atoms: C_14  and  O_15
REMARK   12  A    between atoms: C_16  and  C_17
REMARK                            x       y       z     vdW  Elec       q    Type
REMARK                         _______ _______ _______ _____ _____    ______ ____
ROOT
ATOM      1  CA  UNL     1      47.896   8.206  13.575  0.00  0.00    +0.000 C 
ENDROOT
BRANCH   1   2
ATOM      2  C   UNL     1      46.838   7.564  12.691  0.00  0.00    +0.000 A 
ATOM      3  C   UNL     1      47.253   6.745  11.629  0.00  0.00    +0.000 A 
ATOM      4  C   UNL     1      46.321   6.084  10.832  0.00  0.00    +0.000 A 
ATOM      5  C   UNL     1      44.952   6.198  11.099  0.00  0.00    +0.000 A 
ATOM      6  C   UNL     1      44.527   7.049  12.127  0.00  0.00    +0.000 A 
ATOM      7  C   UNL     1      45.462   7.717  12.924  0.00  0.00    +0.000 A 
BRANCH   5   8
ATOM      8  C   UNL     1      43.961   5.353  10.328  0.00  0.00    +0.000 C 
BRANCH   8   9
ATOM      9  N   UNL     1      44.425   3.956  10.127  0.00  0.00    +0.000 NA
BRANCH   9  10
ATOM     10  C   UNL     1      43.615   3.013  10.940  0.00  0.00    +0.000 C 
BRANCH  10  11
ATOM     11  C   UNL     1      43.947   2.979  12.443  0.00  0.00    +0.000 C 
BRANCH  11  12
ATOM     12  O   UNL     1      45.341   2.744  12.640  0.00  0.00    +0.000 OA
ATOM     13  H   UNL     1      45.800   3.581  12.455  0.00  0.00    +0.000 HD
ENDBRANCH  11  12
ENDBRANCH  10  11
ENDBRANCH   9  10
BRANCH   9  14
ATOM     14  C   UNL     1      44.344   3.605   8.696  0.00  0.00    +0.000 C 
BRANCH  14  15
ATOM     15  C   UNL     1      45.555   2.877   8.153  0.00  0.00    +0.000 A 
ATOM     16  C   UNL     1      45.722   1.500   8.366  0.00  0.00    +0.000 A 
ATOM     17  C   UNL     1      46.787   0.818   7.776  0.00  0.00    +0.000 A 
ATOM     18  C   UNL     1      47.698   1.506   6.975  0.00  0.00    +0.000 A 
ATOM     19  C   UNL     1      47.560   2.879   6.785  0.00  0.00    +0.000 A 
ATOM     20  C   UNL     1      46.495   3.563   7.371  0.00  0.00    +0.000 A 
ENDBRANCH  14  15
ENDBRANCH   9  14
ENDBRANCH   8   9
ENDBRANCH   5   8
ENDBRANCH   1   2
BRANCH   1  23
ATOM     21  O   UNL     1      50.324   7.115  14.470  0.00  0.00    +0.000 OA
ATOM     22  C   UNL     1      49.323   6.966  15.164  0.00  0.00    +0.000 C 
ATOM     23  N   UNL     1      48.083   7.395  14.769  0.00  0.00    +0.000 N 
ATOM     24  H   UNL     1      47.319   7.383  15.436  0.00  0.00    +0.000 HD
BRANCH  22  25
ATOM     25  C   UNL     1      49.394   6.284  16.460  0.00  0.00    +0.000 A 
ATOM     26  C   UNL     1      50.148   6.828  17.492  0.00  0.00    +0.000 A 
ATOM     27  S   UNL     1      50.109   5.903  18.924  0.00  0.00    +0.000 S 
ATOM     28  C   UNL     1      49.042   4.771  18.227  0.00  0.00    +0.000 A 
ATOM     29  N   UNL     1      48.570   3.721  18.950  0.00  0.00    +0.000 NA
ATOM     30  C   UNL     1      47.734   2.971  18.315  0.00  0.00    +0.000 A 
ATOM     31  N   UNL     1      47.335   3.170  17.016  0.00  0.00    +0.000 N 
ATOM     32  C   UNL     1      47.825   4.186  16.231  0.00  0.00    +0.000 A 
ATOM     33  O   UNL     1      47.515   4.285  15.051  0.00  0.00    +0.000 OA
ATOM     34  C   UNL     1      48.746   5.079  16.915  0.00  0.00    +0.000 A 
ATOM     35  H   UNL     1      46.689   2.536  16.575  0.00  0.00    +0.000 HD
ENDBRANCH  22  25
ENDBRANCH   1  23
BRANCH   1  36
ATOM     36  C   UNL     1      47.579   9.676  13.939  0.00  0.00    +0.000 C 
BRANCH  36  37
ATOM     37  O   UNL     1      47.268  10.470  12.796  0.00  0.00    +0.000 OA
ATOM     38  H   UNL     1      47.190   9.866  12.037  0.00  0.00    +0.000 HD
ENDBRANCH  36  37
ENDBRANCH   1  36
TORSDOF 12
ENDMDL
MODEL 4
REMARK VINA RESULT:    -7.309      3.167      4.229
REMARK INTER + INTRA:         -13.927
REMARK INTER:                 -12.487
REMARK INTRA:                  -1.440
REMARK UNBOUND:                -1.918
REMARK  Name = 
REMARK  12 active torsions:
REMARK  status: ('A' for Active; 'I' for Inactive)
REMARK    1  A    between atoms: C_2  and  C_25
REMARK    2  A    between atoms: N_3  and  CA_4
REMARK    3  A    between atoms: CA_4  and  C_5
REMARK    4  A    between atoms: CA_4  and  C_7
REMARK    5  A    between atoms: C_5  and  O_6
REMARK    6  A    between atoms: C_10  and  C_11
REMARK    7  A    between atoms: C_11  and  N_12
REMARK    8  A    between atoms: N_12  and  C_13
REMARK    9  A    between atoms: N_12  and  C_16
REMARK   10  A    between atoms: C_13  and  C_14
REMARK   11  A    between atoms: C_14  and  O_15
REMARK   12  A    between atoms: C_16  and  C_17
REMARK                            x       y       z     vdW  Elec       q    Type
REMARK                         _______ _______ _______ _____ _____    ______ ____
ROOT
ATOM      1  CA  UNL     1      48.107   5.266  16.774  0.00  0.00    +0.000 C 
ENDROOT
BRANCH   1   2
ATOM      2  C   UNL     1      47.766   5.484  15.308  0.00  0.00    +0.000 A 
ATOM      3  C   UNL     1      46.933   4.557  14.663  0.00  0.00    +0.000 A 
ATOM      4  C   UNL     1      46.541   4.750  13.340  0.00  0.00    +0.000 A 
ATOM      5  C   UNL     1      46.946   5.892  12.640  0.00  0.00    +0.000 A 
ATOM      6  C   UNL     1      47.815   6.798  13.260  0.00  0.00    +0.000 A 
ATOM      7  C   UNL     1      48.213   6.603  14.587  0.00  0.00    +0.000 A 
BRANCH   5   8
ATOM      8  C   UNL     1      46.388   6.167  11.261  0.00  0.00    +0.000 C 
BRANCH   8   9
ATOM      9  N   UNL     1      45.138   5.414  10.981  0.00  0.00    +0.000 NA
BRANCH   9  10
ATOM     10  C   UNL     1      43.970   6.087  11.604  0.00  0.00    +0.000 C 
BRANCH  10  11
ATOM     11  C   UNL     1      42.855   5.151  12.104  0.00  0.00    +0.000 C 
BRANCH  11  12
ATOM     12  O   UNL     1      42.564   5.412  13.477  0.00  0.00    +0.000 OA
ATOM     13  H   UNL     1      42.912   6.297  13.679  0.00  0.00    +0.000 HD
ENDBRANCH  11  12
ENDBRANCH  10  11
ENDBRANCH   9  10
BRANCH   9  14
ATOM     14  C   UNL     1      44.946   5.291   9.523  0.00  0.00    +0.000 C 
BRANCH  14  15
ATOM     15  C   UNL     1      45.493   4.016   8.917  0.00  0.00    +0.000 A 
ATOM     16  C   UNL     1      45.100   2.761   9.406  0.00  0.00    +0.000 A 
ATOM     17  C   UNL     1      45.529   1.592   8.776  0.00  0.00    +0.000 A 
ATOM     18  C   UNL     1      46.361   1.665   7.659  0.00  0.00    +0.000 A 
ATOM     19  C   UNL     1      46.784   2.906   7.187  0.00  0.00    +0.000 A 
ATOM     20  C   UNL     1      46.354   4.076   7.812  0.00  0.00    +0.000 A 
ENDBRANCH  14  15
ENDBRANCH   9  14
ENDBRANCH   8   9
ENDBRANCH   5   8
ENDBRANCH   1   2
BRANCH   1  23
ATOM     21  O   UNL     1      49.699   5.413  19.083  0.00  0.00    +0.000 OA
ATOM     22  C   UNL     1      50.167   4.883  18.080  0.00  0.00    +0.000 C 
ATOM     23  N   UNL     1      49.493   4.839  16.888  0.00  0.00    +0.000 N 
ATOM     24  H   UNL     1      49.856   4.265  16.135  0.00  0.00    +0.000 HD
BRANCH  22  25
ATOM     25  C   UNL     1      51.508   4.288  18.093  0.00  0.00    +0.000 A 
ATOM     26  C   UNL     1      52.600   5.043  18.503  0.00  0.00    +0.000 A 
ATOM     27  S   UNL     1      54.074   4.186  18.459  0.00  0.00    +0.000 S 
ATOM     28  C   UNL     1      53.292   2.762  17.939  0.00  0.00    +0.000 A 
ATOM     29  N   UNL     1      53.993   1.614  17.746  0.00  0.00    +0.000 NA
ATOM     30  C   UNL     1      53.270   0.603  17.400  0.00  0.00    +0.000 A 
ATOM     31  N   UNL     1      51.910   0.639  17.217  0.00  0.00    +0.000 N 
ATOM     32  C   UNL     1      51.169   1.788  17.350  0.00  0.00    +0.000 A 
ATOM     33  O   UNL     1      49.971   1.807  17.096  0.00  0.00    +0.000 OA
ATOM     34  C   UNL     1      51.935   2.949  17.774  0.00  0.00    +0.000 A 
ATOM     35  H   UNL     1      51.408  -0.186  16.932  0.00  0.00    +0.000 HD
ENDBRANCH  22  25
ENDBRANCH   1  23
BRANCH   1  36
ATOM     36  C   UNL     1      47.153   4.274  17.483  0.00  0.00    +0.000 C 
BRANCH  36  37
ATOM     37  O   UNL     1      46.588   4.813  18.676  0.00  0.00    +0.000 OA
ATOM     38  H   UNL     1      47.118   5.593  18.920  0.00  0.00    +0.000 HD
ENDBRANCH  36  37
ENDBRANCH   1  36
TORSDOF 12
ENDMDL
MODEL 5
REMARK VINA RESULT:    -7.096      3.032      3.918
REMARK INTER + INTRA:         -13.577
REMARK INTER:                 -12.233
REMARK INTRA:                  -1.344
REMARK UNBOUND:                -1.918
REMARK  Name = 
REMARK  12 active torsions:
REMARK  status: ('A' for Active; 'I' for Inactive)
REMARK    1  A    between atoms: C_2  and  C_25
REMARK    2  A    between atoms: N_3  and  CA_4
REMARK    3  A    between atoms: CA_4  and  C_5
REMARK    4  A    between atoms: CA_4  and  C_7
REMARK    5  A    between atoms: C_5  and  O_6
REMARK    6  A    between atoms: C_10  and  C_11
REMARK    7  A    between atoms: C_11  and  N_12
REMARK    8  A    between atoms: N_12  and  C_13
REMARK    9  A    between atoms: N_12  and  C_16
REMARK   10  A    between atoms: C_13  and  C_14
REMARK   11  A    between atoms: C_14  and  O_15
REMARK   12  A    between atoms: C_16  and  C_17
REMARK                            x       y       z     vdW  Elec       q    Type
REMARK                         _______ _______ _______ _____ _____    ______ ____
ROOT
ATOM      1  CA  UNL     1      47.781   4.741  16.192  0.00  0.00    +0.000 C 
ENDROOT
BRANCH   1   2
ATOM      2  C   UNL     1      47.219   4.933  14.792  0.00  0.00    +0.000 A 
ATOM      3  C   UNL     1      46.547   3.862  14.182  0.00  0.00    +0.000 A 
ATOM      4  C   UNL     1      45.959   4.010  12.927  0.00  0.00    +0.000 A 
ATOM      5  C   UNL     1      45.999   5.244  12.267  0.00  0.00    +0.000 A 
ATOM      6  C   UNL     1      46.707   6.304  12.847  0.00  0.00    +0.000 A 
ATOM      7  C   UNL     1      47.302   6.154  14.104  0.00  0.00    +0.000 A 
BRANCH   5   8
ATOM      8  C   UNL     1      45.224   5.436  10.982  0.00  0.00    +0.000 C 
BRANCH   8   9
ATOM      9  N   UNL     1      44.455   4.227  10.584  0.00  0.00    +0.000 NA
BRANCH   9  10
ATOM     10  C   UNL     1      43.096   4.250  11.183  0.00  0.00    +0.000 C 
BRANCH  10  11
ATOM     11  C   UNL     1      42.687   5.577  11.847  0.00  0.00    +0.000 C 
BRANCH  11  12
ATOM     12  O   UNL     1      42.562   5.408  13.260  0.00  0.00    +0.000 OA
ATOM     13  H   UNL     1      41.623   5.238  13.445  0.00  0.00    +0.000 HD
ENDBRANCH  11  12
ENDBRANCH  10  11
ENDBRANCH   9  10
BRANCH   9  14
ATOM     14  C   UNL     1      44.370   4.154   9.113  0.00  0.00    +0.000 C 
BRANCH  14  15
ATOM     15  C   UNL     1      45.415   3.274   8.461  0.00  0.00    +0.000 A 
ATOM     16  C   UNL     1      45.478   1.901   8.742  0.00  0.00    +0.000 A 
ATOM     17  C   UNL     1      46.377   1.081   8.060  0.00  0.00    +0.000 A 
ATOM     18  C   UNL     1      47.228   1.625   7.099  0.00  0.00    +0.000 A 
ATOM     19  C   UNL     1      47.197   2.994   6.836  0.00  0.00    +0.000 A 
ATOM     20  C   UNL     1      46.297   3.815   7.514  0.00  0.00    +0.000 A 
ENDBRANCH  14  15
ENDBRANCH   9  14
ENDBRANCH   8   9
ENDBRANCH   5   8
ENDBRANCH   1   2
BRANCH   1  23
ATOM     21  O   UNL     1      48.904   6.645  17.924  0.00  0.00    +0.000 OA
ATOM     22  C   UNL     1      49.645   6.050  17.146  0.00  0.00    +0.000 C 
ATOM     23  N   UNL     1      49.173   5.165  16.213  0.00  0.00    +0.000 N 
ATOM     24  H   UNL     1      49.832   4.592  15.697  0.00  0.00    +0.000 HD
BRANCH  22  25
ATOM     25  C   UNL     1      51.093   6.281  17.153  0.00  0.00    +0.000 A 
ATOM     26  C   UNL     1      51.594   7.563  16.963  0.00  0.00    +0.000 A 
ATOM     27  S   UNL     1      53.297   7.642  17.008  0.00  0.00    +0.000 S 
ATOM     28  C   UNL     1      53.418   5.972  17.332  0.00  0.00    +0.000 A 
ATOM     29  N   UNL     1      54.629   5.388  17.529  0.00  0.00    +0.000 NA
ATOM     30  C   UNL     1      54.573   4.131  17.813  0.00  0.00    +0.000 A 
ATOM     31  N   UNL     1      53.413   3.402  17.908  0.00  0.00    +0.000 N 
ATOM     32  C   UNL     1      52.171   3.939  17.667  0.00  0.00    +0.000 A 
ATOM     33  O   UNL     1      51.164   3.242  17.675  0.00  0.00    +0.000 OA
ATOM     34  C   UNL     1      52.182   5.363  17.376  0.00  0.00    +0.000 A 
ATOM     35  H   UNL     1      53.442   2.418  18.120  0.00  0.00    +0.000 HD
ENDBRANCH  22  25
ENDBRANCH   1  23
BRANCH   1  36
ATOM     36  C   UNL     1      47.626   3.296  16.722  0.00  0.00    +0.000 C 
BRANCH  36  37
ATOM     37  O   UNL     1      46.510   3.149  17.598  0.00  0.00    +0.000 OA
ATOM     38  H   UNL     1      46.178   2.241  17.494  0.00  0.00    +0.000 HD
ENDBRANCH  36  37
ENDBRANCH   1  36
TORSDOF 12
ENDMDL
MODEL 6
REMARK VINA RESULT:    -6.932      3.704      5.685
REMARK INTER + INTRA:         -13.308
REMARK INTER:                 -11.325
REMARK INTRA:                  -1.983
REMARK UNBOUND:                -1.918
REMARK  Name = 
REMARK  12 active torsions:
REMARK  status: ('A' for Active; 'I' for Inactive)
REMARK    1  A    between atoms: C_2  and  C_25
REMARK    2  A    between atoms: N_3  and  CA_4
REMARK    3  A    between atoms: CA_4  and  C_5
REMARK    4  A    between atoms: CA_4  and  C_7
REMARK    5  A    between atoms: C_5  and  O_6
REMARK    6  A    between atoms: C_10  and  C_11
REMARK    7  A    between atoms: C_11  and  N_12
REMARK    8  A    between atoms: N_12  and  C_13
REMARK    9  A    between atoms: N_12  and  C_16
REMARK   10  A    between atoms: C_13  and  C_14
REMARK   11  A    between atoms: C_14  and  O_15
REMARK   12  A    between atoms: C_16  and  C_17
REMARK                            x       y       z     vdW  Elec       q    Type
REMARK                         _______ _______ _______ _____ _____    ______ ____
ROOT
ATOM      1  CA  UNL     1      48.360   4.229  17.005  0.00  0.00    +0.000 C 
ENDROOT
BRANCH   1   2
ATOM      2  C   UNL     1      48.070   5.029  15.744  0.00  0.00    +0.000 A 
ATOM      3  C   UNL     1      47.210   4.480  14.780  0.00  0.00    +0.000 A 
ATOM      4  C   UNL     1      46.865   5.202  13.639  0.00  0.00    +0.000 A 
ATOM      5  C   UNL     1      47.344   6.504  13.452  0.00  0.00    +0.000 A 
ATOM      6  C   UNL     1      48.239   7.041  14.386  0.00  0.00    +0.000 A 
ATOM      7  C   UNL     1      48.590   6.315  15.528  0.00  0.00    +0.000 A 
BRANCH   5   8
ATOM      8  C   UNL     1      46.838   7.333  12.292  0.00  0.00    +0.000 C 
BRANCH   8   9
ATOM      9  N   UNL     1      45.436   7.791  12.477  0.00  0.00    +0.000 NA
BRANCH   9  10
ATOM     10  C   UNL     1      45.363   9.274  12.466  0.00  0.00    +0.000 C 
BRANCH  10  11
ATOM     11  C   UNL     1      44.359   9.881  11.468  0.00  0.00    +0.000 C 
BRANCH  11  12
ATOM     12  O   UNL     1      43.394  10.677  12.157  0.00  0.00    +0.000 OA
ATOM     13  H   UNL     1      43.031  10.129  12.873  0.00  0.00    +0.000 HD
ENDBRANCH  11  12
ENDBRANCH  10  11
ENDBRANCH   9  10
BRANCH   9  14
ATOM     14  C   UNL     1      44.583   7.224  11.415  0.00  0.00    +0.000 C 
BRANCH  14  15
ATOM     15  C   UNL     1      44.194   5.775  11.620  0.00  0.00    +0.000 A 
ATOM     16  C   UNL     1      44.530   4.798  10.672  0.00  0.00    +0.000 A 
ATOM     17  C   UNL     1      44.258   3.452  10.918  0.00  0.00    +0.000 A 
ATOM     18  C   UNL     1      43.638   3.071  12.108  0.00  0.00    +0.000 A 
ATOM     19  C   UNL     1      43.269   4.038  13.041  0.00  0.00    +0.000 A 
ATOM     20  C   UNL     1      43.544   5.384  12.800  0.00  0.00    +0.000 A 
ENDBRANCH  14  15
ENDBRANCH   9  14
ENDBRANCH   8   9
ENDBRANCH   5   8
ENDBRANCH   1   2
BRANCH   1  23
ATOM     21  O   UNL     1      49.847   4.564  19.364  0.00  0.00    +0.000 OA
ATOM     22  C   UNL     1      50.426   4.169  18.356  0.00  0.00    +0.000 C 
ATOM     23  N   UNL     1      49.797   4.053  17.144  0.00  0.00    +0.000 N 
ATOM     24  H   UNL     1      50.275   3.585  16.382  0.00  0.00    +0.000 HD
BRANCH  22  25
ATOM     25  C   UNL     1      51.851   3.823  18.387  0.00  0.00    +0.000 A 
ATOM     26  C   UNL     1      52.778   4.736  18.874  0.00  0.00    +0.000 A 
ATOM     27  S   UNL     1      54.383   4.160  18.840  0.00  0.00    +0.000 S 
ATOM     28  C   UNL     1      53.884   2.652  18.219  0.00  0.00    +0.000 A 
ATOM     29  N   UNL     1      54.786   1.660  17.994  0.00  0.00    +0.000 NA
ATOM     30  C   UNL     1      54.267   0.557  17.570  0.00  0.00    +0.000 A 
ATOM     31  N   UNL     1      52.928   0.360  17.341  0.00  0.00    +0.000 N 
ATOM     32  C   UNL     1      51.988   1.349  17.505  0.00  0.00    +0.000 A 
ATOM     33  O   UNL     1      50.813   1.167  17.210  0.00  0.00    +0.000 OA
ATOM     34  C   UNL     1      52.521   2.602  18.015  0.00  0.00    +0.000 A 
ATOM     35  H   UNL     1      52.591  -0.524  16.995  0.00  0.00    +0.000 HD
ENDBRANCH  22  25
ENDBRANCH   1  23
BRANCH   1  36
ATOM     36  C   UNL     1      47.620   2.871  17.053  0.00  0.00    +0.000 C 
BRANCH  36  37
ATOM     37  O   UNL     1      46.461   2.905  17.884  0.00  0.00    +0.000 OA
ATOM     38  H   UNL     1      45.890   2.166  17.613  0.00  0.00    +0.000 HD
ENDBRANCH  36  37
ENDBRANCH   1  36
TORSDOF 12
ENDMDL
MODEL 7
REMARK VINA RESULT:    -6.908      1.904      2.396
REMARK INTER + INTRA:         -13.268
REMARK INTER:                 -12.137
REMARK INTRA:                  -1.132
REMARK UNBOUND:                -1.918
REMARK  Name = 
REMARK  12 active torsions:
REMARK  status: ('A' for Active; 'I' for Inactive)
REMARK    1  A    between atoms: C_2  and  C_25
REMARK    2  A    between atoms: N_3  and  CA_4
REMARK    3  A    between atoms: CA_4  and  C_5
REMARK    4  A    between atoms: CA_4  and  C_7
REMARK    5  A    between atoms: C_5  and  O_6
REMARK    6  A    between atoms: C_10  and  C_11
REMARK    7  A    between atoms: C_11  and  N_12
REMARK    8  A    between atoms: N_12  and  C_13
REMARK    9  A    between atoms: N_12  and  C_16
REMARK   10  A    between atoms: C_13  and  C_14
REMARK   11  A    between atoms: C_14  and  O_15
REMARK   12  A    between atoms: C_16  and  C_17
REMARK                            x       y       z     vdW  Elec       q    Type
REMARK                         _______ _______ _______ _____ _____    ______ ____
ROOT
ATOM      1  CA  UNL     1      49.786   7.227  14.097  0.00  0.00    +0.000 C 
ENDROOT
BRANCH   1   2
ATOM      2  C   UNL     1      48.506   6.944  13.324  0.00  0.00    +0.000 A 
ATOM      3  C   UNL     1      48.334   7.537  12.063  0.00  0.00    +0.000 A 
ATOM      4  C   UNL     1      47.209   7.257  11.291  0.00  0.00    +0.000 A 
ATOM      5  C   UNL     1      46.245   6.351  11.746  0.00  0.00    +0.000 A 
ATOM      6  C   UNL     1      46.385   5.790  13.022  0.00  0.00    +0.000 A 
ATOM      7  C   UNL     1      47.512   6.075  13.800  0.00  0.00    +0.000 A 
BRANCH   5   8
ATOM      8  C   UNL     1      45.111   5.936  10.834  0.00  0.00    +0.000 C 
BRANCH   8   9
ATOM      9  N   UNL     1      44.896   4.465  10.810  0.00  0.00    +0.000 NA
BRANCH   9  10
ATOM     10  C   UNL     1      43.976   4.052  11.900  0.00  0.00    +0.000 C 
BRANCH  10  11
ATOM     11  C   UNL     1      42.743   4.952  12.103  0.00  0.00    +0.000 C 
BRANCH  11  12
ATOM     12  O   UNL     1      42.797   5.588  13.380  0.00  0.00    +0.000 OA
ATOM     13  H   UNL     1      42.432   6.483  13.269  0.00  0.00    +0.000 HD
ENDBRANCH  11  12
ENDBRANCH  10  11
ENDBRANCH   9  10
BRANCH   9  14
ATOM     14  C   UNL     1      44.356   4.063   9.498  0.00  0.00    +0.000 C 
BRANCH  14  15
ATOM     15  C   UNL     1      45.319   3.282   8.628  0.00  0.00    +0.000 A 
ATOM     16  C   UNL     1      46.134   3.935   7.692  0.00  0.00    +0.000 A 
ATOM     17  C   UNL     1      47.091   3.221   6.968  0.00  0.00    +0.000 A 
ATOM     18  C   UNL     1      47.234   1.848   7.166  0.00  0.00    +0.000 A 
ATOM     19  C   UNL     1      46.405   1.184   8.069  0.00  0.00    +0.000 A 
ATOM     20  C   UNL     1      45.452   1.896   8.796  0.00  0.00    +0.000 A 
ENDBRANCH  14  15
ENDBRANCH   9  14
ENDBRANCH   8   9
ENDBRANCH   5   8
ENDBRANCH   1   2
BRANCH   1  23
ATOM     21  O   UNL     1      51.048   5.955  16.259  0.00  0.00    +0.000 OA
ATOM     22  C   UNL     1      50.189   6.799  16.495  0.00  0.00    +0.000 C 
ATOM     23  N   UNL     1      49.467   7.411  15.504  0.00  0.00    +0.000 N 
ATOM     24  H   UNL     1      48.878   8.203  15.738  0.00  0.00    +0.000 HD
BRANCH  22  25
ATOM     25  C   UNL     1      49.862   7.183  17.872  0.00  0.00    +0.000 A 
ATOM     26  C   UNL     1      50.550   8.221  18.487  0.00  0.00    +0.000 A 
ATOM     27  S   UNL     1      50.030   8.530  20.082  0.00  0.00    +0.000 S 
ATOM     28  C   UNL     1      48.835   7.318  19.985  0.00  0.00    +0.000 A 
ATOM     29  N   UNL     1      47.991   7.087  21.024  0.00  0.00    +0.000 NA
ATOM     30  C   UNL     1      47.105   6.177  20.798  0.00  0.00    +0.000 A 
ATOM     31  N   UNL     1      46.995   5.467  19.628  0.00  0.00    +0.000 N 
ATOM     32  C   UNL     1      47.858   5.629  18.571  0.00  0.00    +0.000 A 
ATOM     33  O   UNL     1      47.786   4.920  17.575  0.00  0.00    +0.000 OA
ATOM     34  C   UNL     1      48.854   6.671  18.766  0.00  0.00    +0.000 A 
ATOM     35  H   UNL     1      46.288   4.757  19.523  0.00  0.00    +0.000 HD
ENDBRANCH  22  25
ENDBRANCH   1  23
BRANCH   1  36
ATOM     36  C   UNL     1      50.585   8.428  13.539  0.00  0.00    +0.000 C 
BRANCH  36  37
ATOM     37  O   UNL     1      51.795   8.032  12.895  0.00  0.00    +0.000 OA
ATOM     38  H   UNL     1      52.421   7.773  13.593  0.00  0.00    +0.000 HD
ENDBRANCH  36  37
ENDBRANCH   1  36
TORSDOF 12
ENDMDL
MODEL 8
REMARK VINA RESULT:    -6.430      3.018      9.411
REMARK INTER + INTRA:         -12.482
REMARK INTER:                  -9.871
REMARK INTRA:                  -2.611
REMARK UNBOUND:                -1.918
REMARK  Name = 
REMARK  12 active torsions:
REMARK  status: ('A' for Active; 'I' for Inactive)
REMARK    1  A    between atoms: C_2  and  C_25
REMARK    2  A    between atoms: N_3  and  CA_4
REMARK    3  A    between atoms: CA_4  and  C_5
REMARK    4  A    between atoms: CA_4  and  C_7
REMARK    5  A    between atoms: C_5  and  O_6
REMARK    6  A    between atoms: C_10  and  C_11
REMARK    7  A    between atoms: C_11  and  N_12
REMARK    8  A    between atoms: N_12  and  C_13
REMARK    9  A    between atoms: N_12  and  C_16
REMARK   10  A    between atoms: C_13  and  C_14
REMARK   11  A    between atoms: C_14  and  O_15
REMARK   12  A    between atoms: C_16  and  C_17
REMARK                            x       y       z     vdW  Elec       q    Type
REMARK                         _______ _______ _______ _____ _____    ______ ____
ROOT
ATOM      1  CA  UNL     1      48.215   4.228  16.223  0.00  0.00    +0.000 C 
ENDROOT
BRANCH   1   2
ATOM      2  C   UNL     1      48.195   5.060  17.496  0.00  0.00    +0.000 A 
ATOM      3  C   UNL     1      49.376   5.699  17.904  0.00  0.00    +0.000 A 
ATOM      4  C   UNL     1      49.391   6.523  19.027  0.00  0.00    +0.000 A 
ATOM      5  C   UNL     1      48.215   6.756  19.750  0.00  0.00    +0.000 A 
ATOM      6  C   UNL     1      47.043   6.086  19.379  0.00  0.00    +0.000 A 
ATOM      7  C   UNL     1      47.029   5.254  18.254  0.00  0.00    +0.000 A 
BRANCH   5   8
ATOM      8  C   UNL     1      48.209   7.773  20.871  0.00  0.00    +0.000 C 
BRANCH   8   9
ATOM      9  N   UNL     1      47.434   8.997  20.537  0.00  0.00    +0.000 NA
BRANCH   9  10
ATOM     10  C   UNL     1      46.677   9.477  21.720  0.00  0.00    +0.000 C 
BRANCH  10  11
ATOM     11  C   UNL     1      46.329  10.977  21.720  0.00  0.00    +0.000 C 
BRANCH  11  12
ATOM     12  O   UNL     1      44.924  11.162  21.545  0.00  0.00    +0.000 OA
ATOM     13  H   UNL     1      44.722  10.945  20.619  0.00  0.00    +0.000 HD
ENDBRANCH  11  12
ENDBRANCH  10  11
ENDBRANCH   9  10
BRANCH   9  14
ATOM     14  C   UNL     1      48.348  10.046  20.047  0.00  0.00    +0.000 C 
BRANCH  14  15
ATOM     15  C   UNL     1      48.756   9.905  18.596  0.00  0.00    +0.000 A 
ATOM     16  C   UNL     1      50.094  10.064  18.206  0.00  0.00    +0.000 A 
ATOM     17  C   UNL     1      50.478   9.832  16.884  0.00  0.00    +0.000 A 
ATOM     18  C   UNL     1      49.526   9.448  15.939  0.00  0.00    +0.000 A 
ATOM     19  C   UNL     1      48.189   9.320  16.309  0.00  0.00    +0.000 A 
ATOM     20  C   UNL     1      47.804   9.548  17.630  0.00  0.00    +0.000 A 
ENDBRANCH  14  15
ENDBRANCH   9  14
ENDBRANCH   8   9
ENDBRANCH   5   8
ENDBRANCH   1   2
BRANCH   1  23
ATOM     21  O   UNL     1      48.676   6.016  14.106  0.00  0.00    +0.000 OA
ATOM     22  C   UNL     1      47.548   5.554  14.249  0.00  0.00    +0.000 C 
ATOM     23  N   UNL     1      47.214   4.739  15.299  0.00  0.00    +0.000 N 
ATOM     24  H   UNL     1      46.317   4.266  15.292  0.00  0.00    +0.000 HD
BRANCH  22  25
ATOM     25  C   UNL     1      46.471   5.878  13.307  0.00  0.00    +0.000 A 
ATOM     26  C   UNL     1      46.204   7.203  12.985  0.00  0.00    +0.000 A 
ATOM     27  S   UNL     1      44.926   7.388  11.872  0.00  0.00    +0.000 S 
ATOM     28  C   UNL     1      44.721   5.700  11.746  0.00  0.00    +0.000 A 
ATOM     29  N   UNL     1      43.793   5.173  10.905  0.00  0.00    +0.000 NA
ATOM     30  C   UNL     1      43.777   3.883  10.872  0.00  0.00    +0.000 A 
ATOM     31  N   UNL     1      44.599   3.072  11.614  0.00  0.00    +0.000 N 
ATOM     32  C   UNL     1      45.515   3.560  12.515  0.00  0.00    +0.000 A 
ATOM     33  O   UNL     1      46.173   2.809  13.225  0.00  0.00    +0.000 OA
ATOM     34  C   UNL     1      45.593   5.011  12.562  0.00  0.00    +0.000 A 
ATOM     35  H   UNL     1      44.524   2.070  11.551  0.00  0.00    +0.000 HD
ENDBRANCH  22  25
ENDBRANCH   1  23
BRANCH   1  36
ATOM     36  C   UNL     1      48.025   2.714  16.477  0.00  0.00    +0.000 C 
BRANCH  36  37
ATOM     37  O   UNL     1      49.076   1.927  15.919  0.00  0.00    +0.000 OA
ATOM     38  H   UNL     1      49.276   2.295  15.041  0.00  0.00    +0.000 HD
ENDBRANCH  36  37
ENDBRANCH   1  36
TORSDOF 12
ENDMDL
MODEL 9
REMARK VINA RESULT:    -6.263      2.951      8.729
REMARK INTER + INTRA:         -12.209
REMARK INTER:                  -9.912
REMARK INTRA:                  -2.297
REMARK UNBOUND:                -1.918
REMARK  Name = 
REMARK  12 active torsions:
REMARK  status: ('A' for Active; 'I' for Inactive)
REMARK    1  A    between atoms: C_2  and  C_25
REMARK    2  A    between atoms: N_3  and  CA_4
REMARK    3  A    between atoms: CA_4  and  C_5
REMARK    4  A    between atoms: CA_4  and  C_7
REMARK    5  A    between atoms: C_5  and  O_6
REMARK    6  A    between atoms: C_10  and  C_11
REMARK    7  A    between atoms: C_11  and  N_12
REMARK    8  A    between atoms: N_12  and  C_13
REMARK    9  A    between atoms: N_12  and  C_16
REMARK   10  A    between atoms: C_13  and  C_14
REMARK   11  A    between atoms: C_14  and  O_15
REMARK   12  A    between atoms: C_16  and  C_17
REMARK                            x       y       z     vdW  Elec       q    Type
REMARK                         _______ _______ _______ _____ _____    ______ ____
ROOT
ATOM      1  CA  UNL     1      47.889   7.921  12.622  0.00  0.00    +0.000 C 
ENDROOT
BRANCH   1   2
ATOM      2  C   UNL     1      48.547   7.984  13.992  0.00  0.00    +0.000 A 
ATOM      3  C   UNL     1      47.958   8.780  14.987  0.00  0.00    +0.000 A 
ATOM      4  C   UNL     1      48.487   8.819  16.275  0.00  0.00    +0.000 A 
ATOM      5  C   UNL     1      49.598   8.036  16.609  0.00  0.00    +0.000 A 
ATOM      6  C   UNL     1      50.220   7.275  15.611  0.00  0.00    +0.000 A 
ATOM      7  C   UNL     1      49.692   7.240  14.316  0.00  0.00    +0.000 A 
BRANCH   5   8
ATOM      8  C   UNL     1      50.066   7.967  18.046  0.00  0.00    +0.000 C 
BRANCH   8   9
ATOM      9  N   UNL     1      50.342   6.578  18.498  0.00  0.00    +0.000 NA
BRANCH   9  10
ATOM     10  C   UNL     1      51.262   6.578  19.663  0.00  0.00    +0.000 C 
BRANCH  10  11
ATOM     11  C   UNL     1      50.950   5.539  20.755  0.00  0.00    +0.000 C 
BRANCH  11  12
ATOM     12  O   UNL     1      51.704   4.346  20.536  0.00  0.00    +0.000 OA
ATOM     13  H   UNL     1      52.506   4.601  20.050  0.00  0.00    +0.000 HD
ENDBRANCH  11  12
ENDBRANCH  10  11
ENDBRANCH   9  10
BRANCH   9  14
ATOM     14  C   UNL     1      49.074   5.906  18.842  0.00  0.00    +0.000 C 
BRANCH  14  15
ATOM     15  C   UNL     1      48.681   4.778  17.911  0.00  0.00    +0.000 A 
ATOM     16  C   UNL     1      47.675   4.955  16.949  0.00  0.00    +0.000 A 
ATOM     17  C   UNL     1      47.391   3.946  16.029  0.00  0.00    +0.000 A 
ATOM     18  C   UNL     1      48.102   2.747  16.067  0.00  0.00    +0.000 A 
ATOM     19  C   UNL     1      49.081   2.547  17.039  0.00  0.00    +0.000 A 
ATOM     20  C   UNL     1      49.369   3.557  17.958  0.00  0.00    +0.000 A 
ENDBRANCH  14  15
ENDBRANCH   9  14
ENDBRANCH   8   9
ENDBRANCH   5   8
ENDBRANCH   1   2
BRANCH   1  23
ATOM     21  O   UNL     1      45.236   7.788  11.711  0.00  0.00    +0.000 OA
ATOM     22  C   UNL     1      45.808   6.743  12.008  0.00  0.00    +0.000 C 
ATOM     23  N   UNL     1      47.072   6.720  12.535  0.00  0.00    +0.000 N 
ATOM     24  H   UNL     1      47.555   5.833  12.624  0.00  0.00    +0.000 HD
BRANCH  22  25
ATOM     25  C   UNL     1      45.147   5.444  11.841  0.00  0.00    +0.000 A 
ATOM     26  C   UNL     1      44.452   4.876  12.901  0.00  0.00    +0.000 A 
ATOM     27  S   UNL     1      43.745   3.371  12.522  0.00  0.00    +0.000 S 
ATOM     28  C   UNL     1      44.304   3.453  10.913  0.00  0.00    +0.000 A 
ATOM     29  N   UNL     1      44.003   2.474  10.021  0.00  0.00    +0.000 NA
ATOM     30  C   UNL     1      44.448   2.686   8.828  0.00  0.00    +0.000 A 
ATOM     31  N   UNL     1      45.178   3.786   8.450  0.00  0.00    +0.000 N 
ATOM     32  C   UNL     1      45.551   4.774   9.330  0.00  0.00    +0.000 A 
ATOM     33  O   UNL     1      46.274   5.698   8.981  0.00  0.00    +0.000 OA
ATOM     34  C   UNL     1      45.042   4.596  10.680  0.00  0.00    +0.000 A 
ATOM     35  H   UNL     1      45.508   3.882   7.504  0.00  0.00    +0.000 HD
ENDBRANCH  22  25
ENDBRANCH   1  23
BRANCH   1  36
ATOM     36  C   UNL     1      48.900   7.999  11.453  0.00  0.00    +0.000 C 
BRANCH  36  37
ATOM     37  O   UNL     1      49.553   9.264  11.375  0.00  0.00    +0.000 OA
ATOM     38  H   UNL     1      50.044   9.388  12.206  0.00  0.00    +0.000 HD
ENDBRANCH  36  37
ENDBRANCH   1  36
TORSDOF 12
ENDMDL
