MODEL 1
REMARK VINA RESULT:    -8.044      0.000      0.000
REMARK INTER + INTRA:         -11.118
REMARK INTER:                 -10.396
REMARK INTRA:                  -0.723
REMARK UNBOUND:                -0.723
REMARK  Name = 
REMARK  6 active torsions:
REMARK  status: ('A' for Active; 'I' for Inactive)
REMARK    1  A    between atoms: C_1  and  N_2
REMARK    2  A    between atoms: N_5  and  C_6
REMARK    3  A    between atoms: C_10  and  C_11
REMARK    4  A    between atoms: C_11  and  C_12
REMARK    5  A    between atoms: C_12  and  N_13
REMARK    6  A    between atoms: C_17  and  C_18
REMARK                            x       y       z     vdW  Elec       q    Type
REMARK                         _______ _______ _______ _____ _____    ______ ____
ROOT
ATOM      1  C   UNL     1      43.806   5.245  12.037  0.00  0.00    +0.000 C 
ENDROOT
BRANCH   1   6
ATOM      2  C   UNL     1      47.160   5.657  13.844  0.00  0.00    +0.000 A 
ATOM      3  C   UNL     1      47.891   6.358  12.874  0.00  0.00    +0.000 A 
ATOM      4  C   UNL     1      47.321   6.740  11.661  0.00  0.00    +0.000 A 
ATOM      5  C   UNL     1      46.001   6.411  11.376  0.00  0.00    +0.000 A 
ATOM      6  C   UNL     1      45.235   5.688  12.296  0.00  0.00    +0.000 A 
ATOM      7  C   UNL     1      45.829   5.341  13.524  0.00  0.00    +0.000 A 
BRANCH   2  12
ATOM      8  C   UNL     1      48.119   5.231  19.299  0.00  0.00    +0.000 C 
ATOM      9  N   UNL     1      48.351   4.989  17.880  0.00  0.00    +0.000 NA
ATOM     10  C   UNL     1      47.180   4.325  17.262  0.00  0.00    +0.000 C 
ATOM     11  C   UNL     1      47.386   4.067  15.753  0.00  0.00    +0.000 C 
ATOM     12  N   UNL     1      47.693   5.337  15.075  0.00  0.00    +0.000 N 
ATOM     13  C   UNL     1      48.836   6.063  15.651  0.00  0.00    +0.000 C 
ATOM     14  C   UNL     1      48.609   6.261  17.167  0.00  0.00    +0.000 C 
ENDBRANCH   2  12
ENDBRANCH   1   6
BRANCH   1  15
ATOM     15  C   UNL     1      43.554   4.743  10.615  0.00  0.00    +0.000 C 
BRANCH  15  16
ATOM     16  N   UNL     1      43.873   3.323  10.453  0.00  0.00    +0.000 N 
ATOM     17  C   UNL     1      44.767   3.122   9.378  0.00  0.00    +0.000 A 
ATOM     18  C   UNL     1      45.180   1.829   9.074  0.00  0.00    +0.000 A 
ATOM     19  C   UNL     1      46.062   1.627   8.007  0.00  0.00    +0.000 A 
ATOM     20  C   UNL     1      46.515   2.716   7.261  0.00  0.00    +0.000 A 
ATOM     21  C   UNL     1      46.064   3.965   7.643  0.00  0.00    +0.000 A 
ATOM     22  N   UNL     1      45.218   4.182   8.677  0.00  0.00    +0.000 NA
ATOM     23  H   UNL     1      43.044   2.756  10.290  0.00  0.00    +0.000 HD
BRANCH  20  24
ATOM     24  C   UNL     1      47.429   2.500   6.117  0.00  0.00    +0.000 C 
ATOM     25  N   UNL     1      48.784   2.603   6.313  0.00  0.00    +0.000 N 
ATOM     26  O   UNL     1      46.996   2.234   5.003  0.00  0.00    +0.000 OA
ATOM     27  H   UNL     1      49.248   2.817   7.183  0.00  0.00    +0.000 HD
ATOM     28  H   UNL     1      49.366   2.453   5.503  0.00  0.00    +0.000 HD
ENDBRANCH  20  24
ENDBRANCH  15  16
ENDBRANCH   1  15
TORSDOF 5
ENDMDL
MODEL 2
REMARK VINA RESULT:    -7.803      2.446      3.863
REMARK INTER + INTRA:         -10.807
REMARK INTER:                 -10.040
REMARK INTRA:                  -0.767
REMARK UNBOUND:                -0.723
REMARK  Name = 
REMARK  6 active torsions:
REMARK  status: ('A' for Active; 'I' for Inactive)
REMARK    1  A    between atoms: C_1  and  N_2
REMARK    2  A    between atoms: N_5  and  C_6
REMARK    3  A    between atoms: C_10  and  C_11
REMARK    4  A    between atoms: C_11  and  C_12
REMARK    5  A    between atoms: C_12  and  N_13
REMARK    6  A    between atoms: C_17  and  C_18
REMARK                            x       y       z     vdW  Elec       q    Type
REMARK                         _______ _______ _______ _____ _____    ______ ____
ROOT
ATOM      1  C   UNL     1      43.327   4.904  12.402  0.00  0.00    +0.000 C 
ENDROOT
BRANCH   1   6
ATOM      2  C   UNL     1      46.463   6.935  13.250  0.00  0.00    +0.000 A 
ATOM      3  C   UNL     1      47.345   5.908  13.614  0.00  0.00    +0.000 A 
ATOM      4  C   UNL     1      46.972   4.566  13.557  0.00  0.00    +0.000 A 
ATOM      5  C   UNL     1      45.689   4.216  13.151  0.00  0.00    +0.000 A 
ATOM      6  C   UNL     1      44.760   5.203  12.804  0.00  0.00    +0.000 A 
ATOM      7  C   UNL     1      45.175   6.546  12.844  0.00  0.00    +0.000 A 
BRANCH   2  12
ATOM      8  C   UNL     1      48.917  11.770  12.041  0.00  0.00    +0.000 C 
ATOM      9  N   UNL     1      48.009  10.874  12.746  0.00  0.00    +0.000 NA
ATOM     10  C   UNL     1      47.043  10.258  11.807  0.00  0.00    +0.000 C 
ATOM     11  C   UNL     1      46.074   9.289  12.520  0.00  0.00    +0.000 C 
ATOM     12  N   UNL     1      46.846   8.260  13.235  0.00  0.00    +0.000 N 
ATOM     13  C   UNL     1      47.842   8.802  14.173  0.00  0.00    +0.000 C 
ATOM     14  C   UNL     1      48.762   9.797  13.430  0.00  0.00    +0.000 C 
ENDBRANCH   2  12
ENDBRANCH   1   6
BRANCH   1  15
ATOM     15  C   UNL     1      43.184   4.259  11.023  0.00  0.00    +0.000 C 
BRANCH  15  16
ATOM     16  N   UNL     1      43.954   4.958   9.991  0.00  0.00    +0.000 N 
ATOM     17  C   UNL     1      44.772   4.060   9.271  0.00  0.00    +0.000 A 
ATOM     18  C   UNL     1      45.579   4.549   8.249  0.00  0.00    +0.000 A 
ATOM     19  C   UNL     1      46.394   3.662   7.538  0.00  0.00    +0.000 A 
ATOM     20  C   UNL     1      46.391   2.304   7.858  0.00  0.00    +0.000 A 
ATOM     21  C   UNL     1      45.547   1.904   8.876  0.00  0.00    +0.000 A 
ATOM     22  N   UNL     1      44.746   2.745   9.571  0.00  0.00    +0.000 NA
ATOM     23  H   UNL     1      44.545   5.689  10.378  0.00  0.00    +0.000 HD
BRANCH  20  24
ATOM     24  C   UNL     1      47.271   1.369   7.121  0.00  0.00    +0.000 C 
ATOM     25  N   UNL     1      48.424   1.847   6.548  0.00  0.00    +0.000 N 
ATOM     26  O   UNL     1      46.986   0.183   7.012  0.00  0.00    +0.000 OA
ATOM     27  H   UNL     1      48.755   2.799   6.573  0.00  0.00    +0.000 HD
ATOM     28  H   UNL     1      48.989   1.174   6.052  0.00  0.00    +0.000 HD
ENDBRANCH  20  24
ENDBRANCH  15  16
ENDBRANCH   1  15
TORSDOF 5
ENDMDL
MODEL 3
REMARK VINA RESULT:    -7.317      3.334      8.939
REMARK INTER + INTRA:         -10.178
REMARK INTER:                  -9.612
REMARK INTRA:                  -0.566
REMARK UNBOUND:                -0.723
REMARK  Name = 
REMARK  6 active torsions:
REMARK  status: ('A' for Active; 'I' for Inactive)
REMARK    1  A    between atoms: C_1  and  N_2
REMARK    2  A    between atoms: N_5  and  C_6
REMARK    3  A    between atoms: C_10  and  C_11
REMARK    4  A    between atoms: C_11  and  C_12
REMARK    5  A    between atoms: C_12  and  N_13
REMARK    6  A    between atoms: C_17  and  C_18
REMARK                            x       y       z     vdW  Elec       q    Type
REMARK                         _______ _______ _______ _____ _____    ______ ____
ROOT
ATOM      1  C   UNL     1      46.167   6.248  13.287  0.00  0.00    +0.000 C 
ENDROOT
BRANCH   1   6
ATOM      2  C   UNL     1      44.600   4.103  10.526  0.00  0.00    +0.000 A 
ATOM      3  C   UNL     1      43.274   4.030  10.977  0.00  0.00    +0.000 A 
ATOM      4  C   UNL     1      42.855   4.689  12.131  0.00  0.00    +0.000 A 
ATOM      5  C   UNL     1      43.764   5.426  12.882  0.00  0.00    +0.000 A 
ATOM      6  C   UNL     1      45.105   5.509  12.493  0.00  0.00    +0.000 A 
ATOM      7  C   UNL     1      45.491   4.857  11.308  0.00  0.00    +0.000 A 
BRANCH   2  12
ATOM      8  C   UNL     1      47.584   1.629   6.547  0.00  0.00    +0.000 C 
ATOM      9  N   UNL     1      46.396   2.216   7.154  0.00  0.00    +0.000 NA
ATOM     10  C   UNL     1      46.017   1.483   8.385  0.00  0.00    +0.000 C 
ATOM     11  C   UNL     1      44.769   2.089   9.062  0.00  0.00    +0.000 C 
ATOM     12  N   UNL     1      45.007   3.514   9.347  0.00  0.00    +0.000 N 
ATOM     13  C   UNL     1      45.408   4.301   8.171  0.00  0.00    +0.000 C 
ATOM     14  C   UNL     1      46.631   3.637   7.499  0.00  0.00    +0.000 C 
ENDBRANCH   2  12
ENDBRANCH   1   6
BRANCH   1  15
ATOM     15  C   UNL     1      47.303   5.360  13.794  0.00  0.00    +0.000 C 
BRANCH  15  16
ATOM     16  N   UNL     1      46.845   4.348  14.749  0.00  0.00    +0.000 N 
ATOM     17  C   UNL     1      47.548   4.444  15.969  0.00  0.00    +0.000 A 
ATOM     18  C   UNL     1      47.247   3.557  16.997  0.00  0.00    +0.000 A 
ATOM     19  C   UNL     1      47.945   3.647  18.205  0.00  0.00    +0.000 A 
ATOM     20  C   UNL     1      48.933   4.619  18.368  0.00  0.00    +0.000 A 
ATOM     21  C   UNL     1      49.156   5.467  17.301  0.00  0.00    +0.000 A 
ATOM     22  N   UNL     1      48.486   5.401  16.127  0.00  0.00    +0.000 NA
ATOM     23  H   UNL     1      46.952   3.402  14.391  0.00  0.00    +0.000 HD
BRANCH  20  24
ATOM     24  C   UNL     1      49.690   4.699  19.638  0.00  0.00    +0.000 C 
ATOM     25  N   UNL     1      49.134   4.180  20.782  0.00  0.00    +0.000 N 
ATOM     26  O   UNL     1      50.796   5.221  19.684  0.00  0.00    +0.000 OA
ATOM     27  H   UNL     1      48.234   3.731  20.860  0.00  0.00    +0.000 HD
ATOM     28  H   UNL     1      49.684   4.263  21.623  0.00  0.00    +0.000 HD
ENDBRANCH  20  24
ENDBRANCH  15  16
ENDBRANCH   1  15
TORSDOF 5
ENDMDL
MODEL 4
REMARK VINA RESULT:    -7.114      2.866      8.036
REMARK INTER + INTRA:          -9.916
REMARK INTER:                  -9.449
REMARK INTRA:                  -0.467
REMARK UNBOUND:                -0.723
REMARK  Name = 
REMARK  6 active torsions:
REMARK  status: ('A' for Active; 'I' for Inactive)
REMARK    1  A    between atoms: C_1  and  N_2
REMARK    2  A    between atoms: N_5  and  C_6
REMARK    3  A    between atoms: C_10  and  C_11
REMARK    4  A    between atoms: C_11  and  C_12
REMARK    5  A    between atoms: C_12  and  N_13
REMARK    6  A    between atoms: C_17  and  C_18
REMARK                            x       y       z     vdW  Elec       q    Type
REMARK                         _______ _______ _______ _____ _____    ______ ____
ROOT
ATOM      1  C   UNL     1      45.908   7.396  12.007  0.00  0.00    +0.000 C 
ENDROOT
BRANCH   1   6
ATOM      2  C   UNL     1      44.729   4.190  10.271  0.00  0.00    +0.000 A 
ATOM      3  C   UNL     1      43.646   3.837  11.090  0.00  0.00    +0.000 A 
ATOM      4  C   UNL     1      43.255   4.627  12.169  0.00  0.00    +0.000 A 
ATOM      5  C   UNL     1      43.955   5.789  12.473  0.00  0.00    +0.000 A 
ATOM      6  C   UNL     1      45.061   6.172  11.707  0.00  0.00    +0.000 A 
ATOM      7  C   UNL     1      45.414   5.370  10.607  0.00  0.00    +0.000 A 
BRANCH   2  12
ATOM      8  C   UNL     1      47.497   1.142   6.542  0.00  0.00    +0.000 C 
ATOM      9  N   UNL     1      46.352   1.851   7.101  0.00  0.00    +0.000 NA
ATOM     10  C   UNL     1      45.970   1.280   8.414  0.00  0.00    +0.000 C 
ATOM     11  C   UNL     1      44.768   2.019   9.042  0.00  0.00    +0.000 C 
ATOM     12  N   UNL     1      45.079   3.453   9.160  0.00  0.00    +0.000 N 
ATOM     13  C   UNL     1      45.487   4.083   7.894  0.00  0.00    +0.000 C 
ATOM     14  C   UNL     1      46.662   3.288   7.279  0.00  0.00    +0.000 C 
ENDBRANCH   2  12
ENDBRANCH   1   6
BRANCH   1  15
ATOM     15  C   UNL     1      47.412   7.124  12.042  0.00  0.00    +0.000 C 
BRANCH  15  16
ATOM     16  N   UNL     1      48.018   7.469  13.330  0.00  0.00    +0.000 N 
ATOM     17  C   UNL     1      47.947   6.385  14.232  0.00  0.00    +0.000 A 
ATOM     18  C   UNL     1      48.472   6.531  15.511  0.00  0.00    +0.000 A 
ATOM     19  C   UNL     1      48.399   5.461  16.408  0.00  0.00    +0.000 A 
ATOM     20  C   UNL     1      47.802   4.262  16.015  0.00  0.00    +0.000 A 
ATOM     21  C   UNL     1      47.320   4.200  14.721  0.00  0.00    +0.000 A 
ATOM     22  N   UNL     1      47.388   5.222  13.837  0.00  0.00    +0.000 NA
ATOM     23  H   UNL     1      47.575   8.275  13.763  0.00  0.00    +0.000 HD
BRANCH  20  24
ATOM     24  C   UNL     1      47.702   3.137  16.971  0.00  0.00    +0.000 C 
ATOM     25  N   UNL     1      48.817   2.378  17.230  0.00  0.00    +0.000 N 
ATOM     26  O   UNL     1      46.645   2.873  17.530  0.00  0.00    +0.000 OA
ATOM     27  H   UNL     1      49.733   2.503  16.829  0.00  0.00    +0.000 HD
ATOM     28  H   UNL     1      48.699   1.619  17.885  0.00  0.00    +0.000 HD
ENDBRANCH  20  24
ENDBRANCH  15  16
ENDBRANCH   1  15
TORSDOF 5
ENDMDL
MODEL 5
REMARK VINA RESULT:    -6.996      3.625      5.937
REMARK INTER + INTRA:          -9.764
REMARK INTER:                  -9.202
REMARK INTRA:                  -0.562
REMARK UNBOUND:                -0.723
REMARK  Name = 
REMARK  6 active torsions:
REMARK  status: ('A' for Active; 'I' for Inactive)
REMARK    1  A    between atoms: C_1  and  N_2
REMARK    2  A    between atoms: N_5  and  C_6
REMARK    3  A    between atoms: C_10  and  C_11
REMARK    4  A    between atoms: C_11  and  C_12
REMARK    5  A    between atoms: C_12  and  N_13
REMARK    6  A    between atoms: C_17  and  C_18
REMARK                            x       y       z     vdW  Elec       q    Type
REMARK                         _______ _______ _______ _____ _____    ______ ____
ROOT
ATOM      1  C   UNL     1      44.230   5.470  12.109  0.00  0.00    +0.000 C 
ENDROOT
BRANCH   1   6
ATOM      2  C   UNL     1      44.913   9.195  11.526  0.00  0.00    +0.000 A 
ATOM      3  C   UNL     1      46.120   9.347  12.223  0.00  0.00    +0.000 A 
ATOM      4  C   UNL     1      46.748   8.271  12.847  0.00  0.00    +0.000 A 
ATOM      5  C   UNL     1      46.169   7.007  12.808  0.00  0.00    +0.000 A 
ATOM      6  C   UNL     1      44.951   6.805  12.151  0.00  0.00    +0.000 A 
ATOM      7  C   UNL     1      44.356   7.905  11.506  0.00  0.00    +0.000 A 
BRANCH   2  12
ATOM      8  C   UNL     1      43.021  12.591   7.558  0.00  0.00    +0.000 C 
ATOM      9  N   UNL     1      43.251  12.129   8.922  0.00  0.00    +0.000 NA
ATOM     10  C   UNL     1      42.638  10.798   9.137  0.00  0.00    +0.000 C 
ATOM     11  C   UNL     1      42.876  10.271  10.569  0.00  0.00    +0.000 C 
ATOM     12  N   UNL     1      44.321  10.239  10.846  0.00  0.00    +0.000 N 
ATOM     13  C   UNL     1      45.002  11.525  10.634  0.00  0.00    +0.000 C 
ATOM     14  C   UNL     1      44.702  12.036   9.206  0.00  0.00    +0.000 C 
ENDBRANCH   2  12
ENDBRANCH   1   6
BRANCH   1  15
ATOM     15  C   UNL     1      43.825   5.019  10.705  0.00  0.00    +0.000 C 
BRANCH  15  16
ATOM     16  N   UNL     1      43.999   3.579  10.502  0.00  0.00    +0.000 N 
ATOM     17  C   UNL     1      44.865   3.319   9.417  0.00  0.00    +0.000 A 
ATOM     18  C   UNL     1      45.145   2.000   9.075  0.00  0.00    +0.000 A 
ATOM     19  C   UNL     1      45.999   1.740   7.999  0.00  0.00    +0.000 A 
ATOM     20  C   UNL     1      46.557   2.798   7.280  0.00  0.00    +0.000 A 
ATOM     21  C   UNL     1      46.236   4.075   7.699  0.00  0.00    +0.000 A 
ATOM     22  N   UNL     1      45.419   4.347   8.742  0.00  0.00    +0.000 NA
ATOM     23  H   UNL     1      43.117   3.104  10.328  0.00  0.00    +0.000 HD
BRANCH  20  24
ATOM     24  C   UNL     1      47.441   2.522   6.125  0.00  0.00    +0.000 C 
ATOM     25  N   UNL     1      48.802   2.530   6.307  0.00  0.00    +0.000 N 
ATOM     26  O   UNL     1      46.979   2.292   5.015  0.00  0.00    +0.000 OA
ATOM     27  H   UNL     1      49.290   2.707   7.172  0.00  0.00    +0.000 HD
ATOM     28  H   UNL     1      49.364   2.342   5.490  0.00  0.00    +0.000 HD
ENDBRANCH  20  24
ENDBRANCH  15  16
ENDBRANCH   1  15
TORSDOF 5
ENDMDL
MODEL 6
REMARK VINA RESULT:    -6.811      3.752      7.864
REMARK INTER + INTRA:          -9.525
REMARK INTER:                  -8.704
REMARK INTRA:                  -0.821
REMARK UNBOUND:                -0.723
REMARK  Name = 
REMARK  6 active torsions:
REMARK  status: ('A' for Active; 'I' for Inactive)
REMARK    1  A    between atoms: C_1  and  N_2
REMARK    2  A    between atoms: N_5  and  C_6
REMARK    3  A    between atoms: C_10  and  C_11
REMARK    4  A    between atoms: C_11  and  C_12
REMARK    5  A    between atoms: C_12  and  N_13
REMARK    6  A    between atoms: C_17  and  C_18
REMARK                            x       y       z     vdW  Elec       q    Type
REMARK                         _______ _______ _______ _____ _____    ______ ____
ROOT
ATOM      1  C   UNL     1      48.393   9.074  12.979  0.00  0.00    +0.000 C 
ENDROOT
BRANCH   1   6
ATOM      2  C   UNL     1      45.106   7.688  11.580  0.00  0.00    +0.000 A 
ATOM      3  C   UNL     1      44.398   8.878  11.360  0.00  0.00    +0.000 A 
ATOM      4  C   UNL     1      44.964  10.126  11.613  0.00  0.00    +0.000 A 
ATOM      5  C   UNL     1      46.257  10.216  12.116  0.00  0.00    +0.000 A 
ATOM      6  C   UNL     1      46.998   9.060  12.381  0.00  0.00    +0.000 A 
ATOM      7  C   UNL     1      46.410   7.816  12.089  0.00  0.00    +0.000 A 
BRANCH   2  12
ATOM      8  C   UNL     1      43.298   2.441  11.814  0.00  0.00    +0.000 C 
ATOM      9  N   UNL     1      43.577   3.730  11.192  0.00  0.00    +0.000 NA
ATOM     10  C   UNL     1      42.843   4.816  11.882  0.00  0.00    +0.000 C 
ATOM     11  C   UNL     1      43.129   6.200  11.258  0.00  0.00    +0.000 C 
ATOM     12  N   UNL     1      44.579   6.453  11.267  0.00  0.00    +0.000 N 
ATOM     13  C   UNL     1      45.375   5.401  10.614  0.00  0.00    +0.000 C 
ATOM     14  C   UNL     1      45.027   4.030  11.238  0.00  0.00    +0.000 C 
ENDBRANCH   2  12
ENDBRANCH   1   6
BRANCH   1  15
ATOM     15  C   UNL     1      48.989   7.685  13.213  0.00  0.00    +0.000 C 
BRANCH  15  16
ATOM     16  N   UNL     1      49.719   7.590  14.479  0.00  0.00    +0.000 N 
ATOM     17  C   UNL     1      49.195   6.562  15.293  0.00  0.00    +0.000 A 
ATOM     18  C   UNL     1      49.765   6.328  16.540  0.00  0.00    +0.000 A 
ATOM     19  C   UNL     1      49.245   5.314  17.350  0.00  0.00    +0.000 A 
ATOM     20  C   UNL     1      48.164   4.551  16.905  0.00  0.00    +0.000 A 
ATOM     21  C   UNL     1      47.671   4.843  15.648  0.00  0.00    +0.000 A 
ATOM     22  N   UNL     1      48.165   5.814  14.846  0.00  0.00    +0.000 NA
ATOM     23  H   UNL     1      49.694   8.460  15.006  0.00  0.00    +0.000 HD
BRANCH  20  24
ATOM     24  C   UNL     1      47.598   3.494  17.772  0.00  0.00    +0.000 C 
ATOM     25  N   UNL     1      48.234   3.182  18.949  0.00  0.00    +0.000 N 
ATOM     26  O   UNL     1      46.578   2.895  17.456  0.00  0.00    +0.000 OA
ATOM     27  H   UNL     1      49.076   3.607  19.305  0.00  0.00    +0.000 HD
ATOM     28  H   UNL     1      47.815   2.451  19.504  0.00  0.00    +0.000 HD
ENDBRANCH  20  24
ENDBRANCH  15  16
ENDBRANCH   1  15
TORSDOF 5
ENDMDL
MODEL 7
REMARK VINA RESULT:    -6.676      2.293      2.714
REMARK INTER + INTRA:          -9.349
REMARK INTER:                  -8.785
REMARK INTRA:                  -0.564
REMARK UNBOUND:                -0.723
REMARK  Name = 
REMARK  6 active torsions:
REMARK  status: ('A' for Active; 'I' for Inactive)
REMARK    1  A    between atoms: C_1  and  N_2
REMARK    2  A    between atoms: N_5  and  C_6
REMARK    3  A    between atoms: C_10  and  C_11
REMARK    4  A    between atoms: C_11  and  C_12
REMARK    5  A    between atoms: C_12  and  N_13
REMARK    6  A    between atoms: C_17  and  C_18
REMARK                            x       y       z     vdW  Elec       q    Type
REMARK                         _______ _______ _______ _____ _____    ______ ____
ROOT
ATOM      1  C   UNL     1      44.120   5.721  12.188  0.00  0.00    +0.000 C 
ENDROOT
BRANCH   1   6
ATOM      2  C   UNL     1      46.829   8.368  12.767  0.00  0.00    +0.000 A 
ATOM      3  C   UNL     1      46.284   9.452  12.066  0.00  0.00    +0.000 A 
ATOM      4  C   UNL     1      45.041   9.371  11.440  0.00  0.00    +0.000 A 
ATOM      5  C   UNL     1      44.316   8.185  11.482  0.00  0.00    +0.000 A 
ATOM      6  C   UNL     1      44.826   7.064  12.143  0.00  0.00    +0.000 A 
ATOM      7  C   UNL     1      46.070   7.186  12.790  0.00  0.00    +0.000 A 
BRANCH   2  12
ATOM      8  C   UNL     1      50.739   8.355  16.714  0.00  0.00    +0.000 C 
ATOM      9  N   UNL     1      50.205   8.497  15.364  0.00  0.00    +0.000 NA
ATOM     10  C   UNL     1      49.582   7.232  14.910  0.00  0.00    +0.000 C 
ATOM     11  C   UNL     1      48.991   7.352  13.488  0.00  0.00    +0.000 C 
ATOM     12  N   UNL     1      48.024   8.461  13.449  0.00  0.00    +0.000 N 
ATOM     13  C   UNL     1      48.570   9.748  13.908  0.00  0.00    +0.000 C 
ATOM     14  C   UNL     1      49.188   9.573  15.314  0.00  0.00    +0.000 C 
ENDBRANCH   2  12
ENDBRANCH   1   6
BRANCH   1  15
ATOM     15  C   UNL     1      43.581   5.250  10.836  0.00  0.00    +0.000 C 
BRANCH  15  16
ATOM     16  N   UNL     1      43.694   3.801  10.657  0.00  0.00    +0.000 N 
ATOM     17  C   UNL     1      44.629   3.484   9.648  0.00  0.00    +0.000 A 
ATOM     18  C   UNL     1      44.865   2.149   9.337  0.00  0.00    +0.000 A 
ATOM     19  C   UNL     1      45.787   1.832   8.335  0.00  0.00    +0.000 A 
ATOM     20  C   UNL     1      46.458   2.852   7.658  0.00  0.00    +0.000 A 
ATOM     21  C   UNL     1      46.172   4.148   8.041  0.00  0.00    +0.000 A 
ATOM     22  N   UNL     1      45.289   4.475   9.013  0.00  0.00    +0.000 NA
ATOM     23  H   UNL     1      42.804   3.371  10.416  0.00  0.00    +0.000 HD
BRANCH  20  24
ATOM     24  C   UNL     1      47.415   2.518   6.580  0.00  0.00    +0.000 C 
ATOM     25  N   UNL     1      47.306   3.152   5.367  0.00  0.00    +0.000 N 
ATOM     26  O   UNL     1      48.297   1.686   6.752  0.00  0.00    +0.000 OA
ATOM     27  H   UNL     1      46.622   3.849   5.115  0.00  0.00    +0.000 HD
ATOM     28  H   UNL     1      47.977   2.888   4.662  0.00  0.00    +0.000 HD
ENDBRANCH  20  24
ENDBRANCH  15  16
ENDBRANCH   1  15
TORSDOF 5
ENDMDL
MODEL 8
REMARK VINA RESULT:    -6.249      3.816      6.301
REMARK INTER + INTRA:          -8.798
REMARK INTER:                  -8.287
REMARK INTRA:                  -0.511
REMARK UNBOUND:                -0.723
REMARK  Name = 
REMARK  6 active torsions:
REMARK  status: ('A' for Active; 'I' for Inactive)
REMARK    1  A    between atoms: C_1  and  N_2
REMARK    2  A    between atoms: N_5  and  C_6
REMARK    3  A    between atoms: C_10  and  C_11
REMARK    4  A    between atoms: C_11  and  C_12
REMARK    5  A    between atoms: C_12  and  N_13
REMARK    6  A    between atoms: C_17  and  C_18
REMARK                            x       y       z     vdW  Elec       q    Type
REMARK                         _______ _______ _______ _____ _____    ______ ____
ROOT
ATOM      1  C   UNL     1      47.167   4.369  17.321  0.00  0.00    +0.000 C 
ENDROOT
BRANCH   1   6
ATOM      2  C   UNL     1      50.784   3.896  18.491  0.00  0.00    +0.000 A 
ATOM      3  C   UNL     1      50.854   4.858  19.507  0.00  0.00    +0.000 A 
ATOM      4  C   UNL     1      49.752   5.635  19.859  0.00  0.00    +0.000 A 
ATOM      5  C   UNL     1      48.547   5.483  19.182  0.00  0.00    +0.000 A 
ATOM      6  C   UNL     1      48.430   4.557  18.141  0.00  0.00    +0.000 A 
ATOM      7  C   UNL     1      49.552   3.767  17.828  0.00  0.00    +0.000 A 
BRANCH   2  12
ATOM      8  C   UNL     1      54.734  -0.007  18.649  0.00  0.00    +0.000 C 
ATOM      9  N   UNL     1      53.966   1.092  18.077  0.00  0.00    +0.000 NA
ATOM     10  C   UNL     1      52.539   0.721  17.940  0.00  0.00    +0.000 C 
ATOM     11  C   UNL     1      51.692   1.871  17.350  0.00  0.00    +0.000 C 
ATOM     12  N   UNL     1      51.849   3.074  18.184  0.00  0.00    +0.000 N 
ATOM     13  C   UNL     1      53.246   3.490  18.380  0.00  0.00    +0.000 C 
ATOM     14  C   UNL     1      54.065   2.299  18.929  0.00  0.00    +0.000 C 
ENDBRANCH   2  12
ENDBRANCH   1   6
BRANCH   1  15
ATOM     15  C   UNL     1      47.417   4.075  15.841  0.00  0.00    +0.000 C 
BRANCH  15  16
ATOM     16  N   UNL     1      47.246   5.258  14.994  0.00  0.00    +0.000 N 
ATOM     17  C   UNL     1      46.534   4.942  13.817  0.00  0.00    +0.000 A 
ATOM     18  C   UNL     1      46.279   5.945  12.888  0.00  0.00    +0.000 A 
ATOM     19  C   UNL     1      45.577   5.634  11.719  0.00  0.00    +0.000 A 
ATOM     20  C   UNL     1      45.143   4.326  11.494  0.00  0.00    +0.000 A 
ATOM     21  C   UNL     1      45.428   3.397  12.476  0.00  0.00    +0.000 A 
ATOM     22  N   UNL     1      46.098   3.680  13.617  0.00  0.00    +0.000 NA
ATOM     23  H   UNL     1      48.134   5.675  14.728  0.00  0.00    +0.000 HD
BRANCH  20  24
ATOM     24  C   UNL     1      44.423   3.991  10.246  0.00  0.00    +0.000 C 
ATOM     25  N   UNL     1      44.706   4.694   9.100  0.00  0.00    +0.000 N 
ATOM     26  O   UNL     1      43.580   3.104  10.220  0.00  0.00    +0.000 OA
ATOM     27  H   UNL     1      45.376   5.442   9.007  0.00  0.00    +0.000 HD
ATOM     28  H   UNL     1      44.186   4.434   8.276  0.00  0.00    +0.000 HD
ENDBRANCH  20  24
ENDBRANCH  15  16
ENDBRANCH   1  15
TORSDOF 5
ENDMDL
MODEL 9
REMARK VINA RESULT:    -6.215      4.408      8.283
REMARK INTER + INTRA:          -8.754
REMARK INTER:                  -7.846
REMARK INTRA:                  -0.908
REMARK UNBOUND:                -0.723
REMARK  Name = 
REMARK  6 active torsions:
REMARK  status: ('A' for Active; 'I' for Inactive)
REMARK    1  A    between atoms: C_1  and  N_2
REMARK    2  A    between atoms: N_5  and  C_6
REMARK    3  A    between atoms: C_10  and  C_11
REMARK    4  A    between atoms: C_11  and  C_12
REMARK    5  A    between atoms: C_12  and  N_13
REMARK    6  A    between atoms: C_17  and  C_18
REMARK                            x       y       z     vdW  Elec       q    Type
REMARK                         _______ _______ _______ _____ _____    ______ ____
ROOT
ATOM      1  C   UNL     1      49.729   8.006  12.055  0.00  0.00    +0.000 C 
ENDROOT
BRANCH   1   6
ATOM      2  C   UNL     1      46.070   7.037  12.652  0.00  0.00    +0.000 A 
ATOM      3  C   UNL     1      45.462   8.300  12.628  0.00  0.00    +0.000 A 
ATOM      4  C   UNL     1      46.193   9.461  12.384  0.00  0.00    +0.000 A 
ATOM      5  C   UNL     1      47.566   9.391  12.177  0.00  0.00    +0.000 A 
ATOM      6  C   UNL     1      48.227   8.159  12.219  0.00  0.00    +0.000 A 
ATOM      7  C   UNL     1      47.458   7.002  12.439  0.00  0.00    +0.000 A 
BRANCH   2  12
ATOM      8  C   UNL     1      43.297   2.301  11.793  0.00  0.00    +0.000 C 
ATOM      9  N   UNL     1      43.873   3.387  12.577  0.00  0.00    +0.000 NA
ATOM     10  C   UNL     1      45.341   3.451  12.386  0.00  0.00    +0.000 C 
ATOM     11  C   UNL     1      45.982   4.603  13.192  0.00  0.00    +0.000 C 
ATOM     12  N   UNL     1      45.344   5.876  12.822  0.00  0.00    +0.000 N 
ATOM     13  C   UNL     1      43.880   5.878  12.967  0.00  0.00    +0.000 C 
ATOM     14  C   UNL     1      43.284   4.687  12.183  0.00  0.00    +0.000 C 
ENDBRANCH   2  12
ENDBRANCH   1   6
BRANCH   1  15
ATOM     15  C   UNL     1      50.481   7.765  13.365  0.00  0.00    +0.000 C 
BRANCH  15  16
ATOM     16  N   UNL     1      50.033   8.649  14.444  0.00  0.00    +0.000 N 
ATOM     17  C   UNL     1      49.514   7.907  15.527  0.00  0.00    +0.000 A 
ATOM     18  C   UNL     1      49.037   8.584  16.645  0.00  0.00    +0.000 A 
ATOM     19  C   UNL     1      48.519   7.852  17.718  0.00  0.00    +0.000 A 
ATOM     20  C   UNL     1      48.483   6.458  17.658  0.00  0.00    +0.000 A 
ATOM     21  C   UNL     1      48.991   5.869  16.516  0.00  0.00    +0.000 A 
ATOM     22  N   UNL     1      49.504   6.559  15.471  0.00  0.00    +0.000 NA
ATOM     23  H   UNL     1      49.321   9.306  14.135  0.00  0.00    +0.000 HD
BRANCH  20  24
ATOM     24  C   UNL     1      47.911   5.684  18.783  0.00  0.00    +0.000 C 
ATOM     25  N   UNL     1      46.554   5.481  18.835  0.00  0.00    +0.000 N 
ATOM     26  O   UNL     1      48.627   5.227  19.665  0.00  0.00    +0.000 OA
ATOM     27  H   UNL     1      45.874   5.810  18.167  0.00  0.00    +0.000 HD
ATOM     28  H   UNL     1      46.210   4.953  19.623  0.00  0.00    +0.000 HD
ENDBRANCH  20  24
ENDBRANCH  15  16
ENDBRANCH   1  15
TORSDOF 5
ENDMDL
