MODEL 1
REMARK VINA RESULT:    -6.891      0.000      0.000
REMARK INTER + INTRA:         -10.815
REMARK INTER:                  -9.711
REMARK INTRA:                  -1.104
REMARK UNBOUND:                -1.104
REMARK  Name = 
REMARK  8 active torsions:
REMARK  status: ('A' for Active; 'I' for Inactive)
REMARK    1  A    between atoms: N_1  and  C_2
REMARK    2  A    between atoms: C_2  and  C_3
REMARK    3  A    between atoms: C_7  and  C_8
REMARK    4  A    between atoms: C_8  and  C_9
REMARK    5  A    between atoms: C_9  and  C_10
REMARK    6  A    between atoms: C_10  and  C_11
REMARK    7  A    between atoms: C_15  and  C_16
REMARK    8  A    between atoms: C_16  and  N_17
REMARK                            x       y       z     vdW  Elec       q    Type
REMARK                         _______ _______ _______ _____ _____    ______ ____
ROOT
ATOM      1  C   UNL     1      43.543   4.507  10.209  0.00  0.00    +0.000 C 
ENDROOT
BRANCH   1   2
ATOM      2  C   UNL     1      44.137   3.102  10.069  0.00  0.00    +0.000 C 
BRANCH   2   7
ATOM      3  C   UNL     1      46.710   1.860   7.537  0.00  0.00    +0.000 A 
ATOM      4  C   UNL     1      47.093   3.067   6.938  0.00  0.00    +0.000 A 
ATOM      5  C   UNL     1      46.568   4.281   7.384  0.00  0.00    +0.000 A 
ATOM      6  C   UNL     1      45.635   4.301   8.421  0.00  0.00    +0.000 A 
ATOM      7  C   UNL     1      45.227   3.105   9.028  0.00  0.00    +0.000 A 
ATOM      8  C   UNL     1      45.779   1.894   8.586  0.00  0.00    +0.000 A 
BRANCH   3   9
ATOM      9  C   UNL     1      47.228   0.543   7.022  0.00  0.00    +0.000 C 
BRANCH   9  10
ATOM     10  N   UNL     1      46.768  -0.582   7.831  0.00  0.00    +0.000 NA
ATOM     11  H   UNL     1      47.562  -1.177   8.051  0.00  0.00    +0.000 HD
ATOM     12  H   UNL     1      46.130  -1.143   7.273  0.00  0.00    +0.000 HD
ENDBRANCH   9  10
ENDBRANCH   3   9
ENDBRANCH   2   7
ENDBRANCH   1   2
BRANCH   1  13
ATOM     13  C   UNL     1      43.513   4.975  11.663  0.00  0.00    +0.000 C 
BRANCH  13  14
ATOM     14  C   UNL     1      44.889   5.359  12.148  0.00  0.00    +0.000 A 
ATOM     15  C   UNL     1      45.674   6.273  11.436  0.00  0.00    +0.000 A 
ATOM     16  C   UNL     1      46.947   6.616  11.892  0.00  0.00    +0.000 A 
ATOM     17  C   UNL     1      47.452   6.048  13.063  0.00  0.00    +0.000 A 
ATOM     18  C   UNL     1      46.687   5.125  13.788  0.00  0.00    +0.000 A 
ATOM     19  C   UNL     1      45.412   4.780  13.312  0.00  0.00    +0.000 A 
BRANCH  18  20
ATOM     20  C   UNL     1      47.223   4.498  15.051  0.00  0.00    +0.000 C 
BRANCH  20  21
ATOM     21  N   UNL     1      47.571   3.096  14.845  0.00  0.00    +0.000 NA
ATOM     22  H   UNL     1      47.592   2.630  15.750  0.00  0.00    +0.000 HD
ATOM     23  H   UNL     1      48.512   3.037  14.464  0.00  0.00    +0.000 HD
ENDBRANCH  20  21
ENDBRANCH  18  20
ENDBRANCH  13  14
ENDBRANCH   1  13
TORSDOF 8
ENDMDL
MODEL 2
REMARK VINA RESULT:    -6.730      0.327      5.827
REMARK INTER + INTRA:         -10.588
REMARK INTER:                  -9.495
REMARK INTRA:                  -1.093
REMARK UNBOUND:                -1.104
REMARK  Name = 
REMARK  8 active torsions:
REMARK  status: ('A' for Active; 'I' for Inactive)
REMARK    1  A    between atoms: N_1  and  C_2
REMARK    2  A    between atoms: C_2  and  C_3
REMARK    3  A    between atoms: C_7  and  C_8
REMARK    4  A    between atoms: C_8  and  C_9
REMARK    5  A    between atoms: C_9  and  C_10
REMARK    6  A    between atoms: C_10  and  C_11
REMARK    7  A    between atoms: C_15  and  C_16
REMARK    8  A    between atoms: C_16  and  N_17
REMARK                            x       y       z     vdW  Elec       q    Type
REMARK                         _______ _______ _______ _____ _____    ______ ____
ROOT
ATOM      1  C   UNL     1      43.279   4.325  10.589  0.00  0.00    +0.000 C 
ENDROOT
BRANCH   1   2
ATOM      2  C   UNL     1      43.257   4.877  12.018  0.00  0.00    +0.000 C 
BRANCH   2   7
ATOM      3  C   UNL     1      46.609   5.182  13.819  0.00  0.00    +0.000 A 
ATOM      4  C   UNL     1      47.264   6.112  13.000  0.00  0.00    +0.000 A 
ATOM      5  C   UNL     1      46.610   6.680  11.905  0.00  0.00    +0.000 A 
ATOM      6  C   UNL     1      45.300   6.308  11.603  0.00  0.00    +0.000 A 
ATOM      7  C   UNL     1      44.629   5.372  12.400  0.00  0.00    +0.000 A 
ATOM      8  C   UNL     1      45.289   4.825  13.511  0.00  0.00    +0.000 A 
BRANCH   3   9
ATOM      9  C   UNL     1      47.328   4.522  14.966  0.00  0.00    +0.000 C 
BRANCH   9  10
ATOM     10  N   UNL     1      47.571   3.104  14.718  0.00  0.00    +0.000 NA
ATOM     11  H   UNL     1      46.677   2.623  14.650  0.00  0.00    +0.000 HD
ATOM     12  H   UNL     1      48.052   2.712  15.523  0.00  0.00    +0.000 HD
ENDBRANCH   9  10
ENDBRANCH   3   9
ENDBRANCH   2   7
ENDBRANCH   1   2
BRANCH   1  13
ATOM     13  C   UNL     1      44.134   3.064  10.475  0.00  0.00    +0.000 C 
BRANCH  13  14
ATOM     14  C   UNL     1      45.092   3.150   9.312  0.00  0.00    +0.000 A 
ATOM     15  C   UNL     1      45.461   4.388   8.775  0.00  0.00    +0.000 A 
ATOM     16  C   UNL     1      46.344   4.455   7.696  0.00  0.00    +0.000 A 
ATOM     17  C   UNL     1      46.867   3.285   7.141  0.00  0.00    +0.000 A 
ATOM     18  C   UNL     1      46.507   2.034   7.659  0.00  0.00    +0.000 A 
ATOM     19  C   UNL     1      45.608   1.980   8.737  0.00  0.00    +0.000 A 
BRANCH  18  20
ATOM     20  C   UNL     1      47.059   0.762   7.066  0.00  0.00    +0.000 C 
BRANCH  20  21
ATOM     21  N   UNL     1      46.751  -0.394   7.901  0.00  0.00    +0.000 NA
ATOM     22  H   UNL     1      47.294  -0.328   8.760  0.00  0.00    +0.000 HD
ATOM     23  H   UNL     1      47.056  -1.240   7.428  0.00  0.00    +0.000 HD
ENDBRANCH  20  21
ENDBRANCH  18  20
ENDBRANCH  13  14
ENDBRANCH   1  13
TORSDOF 8
ENDMDL
MODEL 3
REMARK VINA RESULT:    -6.670      2.055      6.345
REMARK INTER + INTRA:         -10.503
REMARK INTER:                  -9.390
REMARK INTRA:                  -1.113
REMARK UNBOUND:                -1.104
REMARK  Name = 
REMARK  8 active torsions:
REMARK  status: ('A' for Active; 'I' for Inactive)
REMARK    1  A    between atoms: N_1  and  C_2
REMARK    2  A    between atoms: C_2  and  C_3
REMARK    3  A    between atoms: C_7  and  C_8
REMARK    4  A    between atoms: C_8  and  C_9
REMARK    5  A    between atoms: C_9  and  C_10
REMARK    6  A    between atoms: C_10  and  C_11
REMARK    7  A    between atoms: C_15  and  C_16
REMARK    8  A    between atoms: C_16  and  N_17
REMARK                            x       y       z     vdW  Elec       q    Type
REMARK                         _______ _______ _______ _____ _____    ______ ____
ROOT
ATOM      1  C   UNL     1      43.199   4.207  11.397  0.00  0.00    +0.000 C 
ENDROOT
BRANCH   1   2
ATOM      2  C   UNL     1      43.603   4.490  12.847  0.00  0.00    +0.000 C 
BRANCH   2   7
ATOM      3  C   UNL     1      46.050   7.419  12.741  0.00  0.00    +0.000 A 
ATOM      4  C   UNL     1      47.232   6.788  13.152  0.00  0.00    +0.000 A 
ATOM      5  C   UNL     1      47.255   5.416  13.408  0.00  0.00    +0.000 A 
ATOM      6  C   UNL     1      46.089   4.661  13.277  0.00  0.00    +0.000 A 
ATOM      7  C   UNL     1      44.892   5.271  12.880  0.00  0.00    +0.000 A 
ATOM      8  C   UNL     1      44.887   6.647  12.604  0.00  0.00    +0.000 A 
BRANCH   3   9
ATOM      9  C   UNL     1      46.005   8.907  12.521  0.00  0.00    +0.000 C 
BRANCH   9  10
ATOM     10  N   UNL     1      44.692   9.468  12.829  0.00  0.00    +0.000 NA
ATOM     11  H   UNL     1      44.772  10.066  13.647  0.00  0.00    +0.000 HD
ATOM     12  H   UNL     1      44.067   8.708  13.083  0.00  0.00    +0.000 HD
ENDBRANCH   9  10
ENDBRANCH   3   9
ENDBRANCH   2   7
ENDBRANCH   1   2
BRANCH   1  13
ATOM     13  C   UNL     1      43.788   2.893  10.884  0.00  0.00    +0.000 C 
BRANCH  13  14
ATOM     14  C   UNL     1      44.732   3.125   9.730  0.00  0.00    +0.000 A 
ATOM     15  C   UNL     1      44.983   4.417   9.255  0.00  0.00    +0.000 A 
ATOM     16  C   UNL     1      45.854   4.618   8.183  0.00  0.00    +0.000 A 
ATOM     17  C   UNL     1      46.483   3.530   7.574  0.00  0.00    +0.000 A 
ATOM     18  C   UNL     1      46.242   2.228   8.029  0.00  0.00    +0.000 A 
ATOM     19  C   UNL     1      45.354   2.038   9.101  0.00  0.00    +0.000 A 
BRANCH  18  20
ATOM     20  C   UNL     1      46.909   1.043   7.376  0.00  0.00    +0.000 C 
BRANCH  20  21
ATOM     21  N   UNL     1      48.092   1.446   6.623  0.00  0.00    +0.000 NA
ATOM     22  H   UNL     1      47.793   1.957   5.795  0.00  0.00    +0.000 HD
ATOM     23  H   UNL     1      48.579   0.615   6.295  0.00  0.00    +0.000 HD
ENDBRANCH  20  21
ENDBRANCH  18  20
ENDBRANCH  13  14
ENDBRANCH   1  13
TORSDOF 8
ENDMDL
MODEL 4
REMARK VINA RESULT:    -6.661      2.148      2.674
REMARK INTER + INTRA:         -10.490
REMARK INTER:                  -9.482
REMARK INTRA:                  -1.008
REMARK UNBOUND:                -1.104
REMARK  Name = 
REMARK  8 active torsions:
REMARK  status: ('A' for Active; 'I' for Inactive)
REMARK    1  A    between atoms: N_1  and  C_2
REMARK    2  A    between atoms: C_2  and  C_3
REMARK    3  A    between atoms: C_7  and  C_8
REMARK    4  A    between atoms: C_8  and  C_9
REMARK    5  A    between atoms: C_9  and  C_10
REMARK    6  A    between atoms: C_10  and  C_11
REMARK    7  A    between atoms: C_15  and  C_16
REMARK    8  A    between atoms: C_16  and  N_17
REMARK                            x       y       z     vdW  Elec       q    Type
REMARK                         _______ _______ _______ _____ _____    ______ ____
ROOT
ATOM      1  C   UNL     1      43.570   3.716  10.881  0.00  0.00    +0.000 C 
ENDROOT
BRANCH   1   2
ATOM      2  C   UNL     1      44.159   2.450  10.251  0.00  0.00    +0.000 C 
BRANCH   2   7
ATOM      3  C   UNL     1      46.683   2.136   7.404  0.00  0.00    +0.000 A 
ATOM      4  C   UNL     1      46.881   3.485   7.078  0.00  0.00    +0.000 A 
ATOM      5  C   UNL     1      46.249   4.492   7.808  0.00  0.00    +0.000 A 
ATOM      6  C   UNL     1      45.392   4.163   8.859  0.00  0.00    +0.000 A 
ATOM      7  C   UNL     1      45.169   2.822   9.195  0.00  0.00    +0.000 A 
ATOM      8  C   UNL     1      45.828   1.818   8.469  0.00  0.00    +0.000 A 
BRANCH   3   9
ATOM      9  C   UNL     1      47.315   1.042   6.584  0.00  0.00    +0.000 C 
BRANCH   9  10
ATOM     10  N   UNL     1      48.427   1.536   5.776  0.00  0.00    +0.000 NA
ATOM     11  H   UNL     1      48.446   2.551   5.826  0.00  0.00    +0.000 HD
ATOM     12  H   UNL     1      48.253   1.295   4.804  0.00  0.00    +0.000 HD
ENDBRANCH   9  10
ENDBRANCH   3   9
ENDBRANCH   2   7
ENDBRANCH   1   2
BRANCH   1  13
ATOM     13  C   UNL     1      44.065   3.927  12.311  0.00  0.00    +0.000 C 
BRANCH  13  14
ATOM     14  C   UNL     1      44.963   5.136  12.412  0.00  0.00    +0.000 A 
ATOM     15  C   UNL     1      46.248   5.033  12.956  0.00  0.00    +0.000 A 
ATOM     16  C   UNL     1      47.068   6.159  13.049  0.00  0.00    +0.000 A 
ATOM     17  C   UNL     1      46.612   7.400  12.600  0.00  0.00    +0.000 A 
ATOM     18  C   UNL     1      45.327   7.528  12.057  0.00  0.00    +0.000 A 
ATOM     19  C   UNL     1      44.508   6.389  11.980  0.00  0.00    +0.000 A 
BRANCH  18  20
ATOM     20  C   UNL     1      44.819   8.863  11.575  0.00  0.00    +0.000 C 
BRANCH  20  21
ATOM     21  N   UNL     1      44.668   9.807  12.678  0.00  0.00    +0.000 NA
ATOM     22  H   UNL     1      44.011  10.532  12.397  0.00  0.00    +0.000 HD
ATOM     23  H   UNL     1      45.558  10.268  12.848  0.00  0.00    +0.000 HD
ENDBRANCH  20  21
ENDBRANCH  18  20
ENDBRANCH  13  14
ENDBRANCH   1  13
TORSDOF 8
ENDMDL
MODEL 5
REMARK VINA RESULT:    -6.462      1.563      1.771
REMARK INTER + INTRA:         -10.210
REMARK INTER:                  -9.147
REMARK INTRA:                  -1.063
REMARK UNBOUND:                -1.104
REMARK  Name = 
REMARK  8 active torsions:
REMARK  status: ('A' for Active; 'I' for Inactive)
REMARK    1  A    between atoms: N_1  and  C_2
REMARK    2  A    between atoms: C_2  and  C_3
REMARK    3  A    between atoms: C_7  and  C_8
REMARK    4  A    between atoms: C_8  and  C_9
REMARK    5  A    between atoms: C_9  and  C_10
REMARK    6  A    between atoms: C_10  and  C_11
REMARK    7  A    between atoms: C_15  and  C_16
REMARK    8  A    between atoms: C_16  and  N_17
REMARK                            x       y       z     vdW  Elec       q    Type
REMARK                         _______ _______ _______ _____ _____    ______ ____
ROOT
ATOM      1  C   UNL     1      44.638   2.997  11.648  0.00  0.00    +0.000 C 
ENDROOT
BRANCH   1   2
ATOM      2  C   UNL     1      44.074   2.720  10.251  0.00  0.00    +0.000 C 
BRANCH   2   7
ATOM      3  C   UNL     1      46.664   2.160   7.503  0.00  0.00    +0.000 A 
ATOM      4  C   UNL     1      46.917   3.480   7.107  0.00  0.00    +0.000 A 
ATOM      5  C   UNL     1      46.298   4.549   7.758  0.00  0.00    +0.000 A 
ATOM      6  C   UNL     1      45.402   4.309   8.800  0.00  0.00    +0.000 A 
ATOM      7  C   UNL     1      45.125   2.997   9.206  0.00  0.00    +0.000 A 
ATOM      8  C   UNL     1      45.770   1.933   8.559  0.00  0.00    +0.000 A 
BRANCH   3   9
ATOM      9  C   UNL     1      47.282   1.001   6.767  0.00  0.00    +0.000 C 
BRANCH   9  10
ATOM     10  N   UNL     1      48.213   1.442   5.733  0.00  0.00    +0.000 NA
ATOM     11  H   UNL     1      48.681   2.288   6.048  0.00  0.00    +0.000 HD
ATOM     12  H   UNL     1      47.681   1.695   4.904  0.00  0.00    +0.000 HD
ENDBRANCH   9  10
ENDBRANCH   3   9
ENDBRANCH   2   7
ENDBRANCH   1   2
BRANCH   1  13
ATOM     13  C   UNL     1      43.886   4.122  12.358  0.00  0.00    +0.000 C 
BRANCH  13  14
ATOM     14  C   UNL     1      44.653   5.420  12.302  0.00  0.00    +0.000 A 
ATOM     15  C   UNL     1      44.188   6.497  11.539  0.00  0.00    +0.000 A 
ATOM     16  C   UNL     1      44.910   7.691  11.491  0.00  0.00    +0.000 A 
ATOM     17  C   UNL     1      46.103   7.822  12.204  0.00  0.00    +0.000 A 
ATOM     18  C   UNL     1      46.591   6.754  12.969  0.00  0.00    +0.000 A 
ATOM     19  C   UNL     1      45.862   5.554  12.999  0.00  0.00    +0.000 A 
BRANCH  18  20
ATOM     20  C   UNL     1      47.882   6.879  13.738  0.00  0.00    +0.000 C 
BRANCH  20  21
ATOM     21  N   UNL     1      48.988   6.244  13.029  0.00  0.00    +0.000 NA
ATOM     22  H   UNL     1      49.689   6.953  12.818  0.00  0.00    +0.000 HD
ATOM     23  H   UNL     1      48.655   5.889  12.136  0.00  0.00    +0.000 HD
ENDBRANCH  20  21
ENDBRANCH  18  20
ENDBRANCH  13  14
ENDBRANCH   1  13
TORSDOF 8
ENDMDL
MODEL 6
REMARK VINA RESULT:    -6.333      1.222      6.443
REMARK INTER + INTRA:         -10.028
REMARK INTER:                  -9.323
REMARK INTRA:                  -0.705
REMARK UNBOUND:                -1.104
REMARK  Name = 
REMARK  8 active torsions:
REMARK  status: ('A' for Active; 'I' for Inactive)
REMARK    1  A    between atoms: N_1  and  C_2
REMARK    2  A    between atoms: C_2  and  C_3
REMARK    3  A    between atoms: C_7  and  C_8
REMARK    4  A    between atoms: C_8  and  C_9
REMARK    5  A    between atoms: C_9  and  C_10
REMARK    6  A    between atoms: C_10  and  C_11
REMARK    7  A    between atoms: C_15  and  C_16
REMARK    8  A    between atoms: C_16  and  N_17
REMARK                            x       y       z     vdW  Elec       q    Type
REMARK                         _______ _______ _______ _____ _____    ______ ____
ROOT
ATOM      1  C   UNL     1      43.721   4.104  10.374  0.00  0.00    +0.000 C 
ENDROOT
BRANCH   1   2
ATOM      2  C   UNL     1      43.573   5.306  11.312  0.00  0.00    +0.000 C 
BRANCH   2   7
ATOM      3  C   UNL     1      46.588   5.141  13.648  0.00  0.00    +0.000 A 
ATOM      4  C   UNL     1      47.455   6.048  13.023  0.00  0.00    +0.000 A 
ATOM      5  C   UNL     1      47.051   6.750  11.887  0.00  0.00    +0.000 A 
ATOM      6  C   UNL     1      45.781   6.539  11.348  0.00  0.00    +0.000 A 
ATOM      7  C   UNL     1      44.901   5.628  11.949  0.00  0.00    +0.000 A 
ATOM      8  C   UNL     1      45.311   4.945  13.103  0.00  0.00    +0.000 A 
BRANCH   3   9
ATOM      9  C   UNL     1      47.039   4.338  14.839  0.00  0.00    +0.000 C 
BRANCH   9  10
ATOM     10  N   UNL     1      47.859   5.126  15.754  0.00  0.00    +0.000 NA
ATOM     11  H   UNL     1      48.711   4.610  15.961  0.00  0.00    +0.000 HD
ATOM     12  H   UNL     1      47.359   5.226  16.633  0.00  0.00    +0.000 HD
ENDBRANCH   9  10
ENDBRANCH   3   9
ENDBRANCH   2   7
ENDBRANCH   1   2
BRANCH   1  13
ATOM     13  C   UNL     1      44.344   4.494   9.035  0.00  0.00    +0.000 C 
BRANCH  13  14
ATOM     14  C   UNL     1      45.143   3.358   8.445  0.00  0.00    +0.000 A 
ATOM     15  C   UNL     1      45.106   2.081   9.016  0.00  0.00    +0.000 A 
ATOM     16  C   UNL     1      45.853   1.039   8.465  0.00  0.00    +0.000 A 
ATOM     17  C   UNL     1      46.648   1.262   7.338  0.00  0.00    +0.000 A 
ATOM     18  C   UNL     1      46.706   2.534   6.755  0.00  0.00    +0.000 A 
ATOM     19  C   UNL     1      45.958   3.577   7.326  0.00  0.00    +0.000 A 
BRANCH  18  20
ATOM     20  C   UNL     1      47.565   2.791   5.542  0.00  0.00    +0.000 C 
BRANCH  20  21
ATOM     21  N   UNL     1      48.514   1.705   5.321  0.00  0.00    +0.000 NA
ATOM     22  H   UNL     1      48.046   0.966   4.800  0.00  0.00    +0.000 HD
ATOM     23  H   UNL     1      48.782   1.306   6.217  0.00  0.00    +0.000 HD
ENDBRANCH  20  21
ENDBRANCH  18  20
ENDBRANCH  13  14
ENDBRANCH   1  13
TORSDOF 8
ENDMDL
MODEL 7
REMARK VINA RESULT:    -6.234      1.390      2.045
REMARK INTER + INTRA:          -9.889
REMARK INTER:                  -9.274
REMARK INTRA:                  -0.614
REMARK UNBOUND:                -1.104
REMARK  Name = 
REMARK  8 active torsions:
REMARK  status: ('A' for Active; 'I' for Inactive)
REMARK    1  A    between atoms: N_1  and  C_2
REMARK    2  A    between atoms: C_2  and  C_3
REMARK    3  A    between atoms: C_7  and  C_8
REMARK    4  A    between atoms: C_8  and  C_9
REMARK    5  A    between atoms: C_9  and  C_10
REMARK    6  A    between atoms: C_10  and  C_11
REMARK    7  A    between atoms: C_15  and  C_16
REMARK    8  A    between atoms: C_16  and  N_17
REMARK                            x       y       z     vdW  Elec       q    Type
REMARK                         _______ _______ _______ _____ _____    ______ ____
ROOT
ATOM      1  C   UNL     1      45.135   4.712  10.558  0.00  0.00    +0.000 C 
ENDROOT
BRANCH   1   2
ATOM      2  C   UNL     1      44.476   4.473   9.196  0.00  0.00    +0.000 C 
BRANCH   2   7
ATOM      3  C   UNL     1      46.599   2.549   6.673  0.00  0.00    +0.000 A 
ATOM      4  C   UNL     1      46.626   1.279   7.266  0.00  0.00    +0.000 A 
ATOM      5  C   UNL     1      45.919   1.029   8.443  0.00  0.00    +0.000 A 
ATOM      6  C   UNL     1      45.192   2.052   9.054  0.00  0.00    +0.000 A 
ATOM      7  C   UNL     1      45.161   3.332   8.486  0.00  0.00    +0.000 A 
ATOM      8  C   UNL     1      45.857   3.566   7.291  0.00  0.00    +0.000 A 
BRANCH   3   9
ATOM      9  C   UNL     1      47.407   2.841   5.436  0.00  0.00    +0.000 C 
BRANCH   9  10
ATOM     10  N   UNL     1      48.428   1.826   5.196  0.00  0.00    +0.000 NA
ATOM     11  H   UNL     1      48.104   0.936   5.567  0.00  0.00    +0.000 HD
ATOM     12  H   UNL     1      49.262   2.074   5.722  0.00  0.00    +0.000 HD
ENDBRANCH   9  10
ENDBRANCH   3   9
ENDBRANCH   2   7
ENDBRANCH   1   2
BRANCH   1  13
ATOM     13  C   UNL     1      45.564   6.167  10.740  0.00  0.00    +0.000 C 
BRANCH  13  14
ATOM     14  C   UNL     1      46.542   6.316  11.880  0.00  0.00    +0.000 A 
ATOM     15  C   UNL     1      47.502   7.334  11.874  0.00  0.00    +0.000 A 
ATOM     16  C   UNL     1      48.404   7.458  12.931  0.00  0.00    +0.000 A 
ATOM     17  C   UNL     1      48.358   6.567  14.005  0.00  0.00    +0.000 A 
ATOM     18  C   UNL     1      47.409   5.537  14.028  0.00  0.00    +0.000 A 
ATOM     19  C   UNL     1      46.514   5.415  12.953  0.00  0.00    +0.000 A 
BRANCH  18  20
ATOM     20  C   UNL     1      47.352   4.563  15.178  0.00  0.00    +0.000 C 
BRANCH  20  21
ATOM     21  N   UNL     1      47.494   3.185  14.718  0.00  0.00    +0.000 NA
ATOM     22  H   UNL     1      47.310   3.156  13.717  0.00  0.00    +0.000 HD
ATOM     23  H   UNL     1      46.782   2.609  15.161  0.00  0.00    +0.000 HD
ENDBRANCH  20  21
ENDBRANCH  18  20
ENDBRANCH  13  14
ENDBRANCH   1  13
TORSDOF 8
ENDMDL
MODEL 8
REMARK VINA RESULT:    -6.159      1.893      2.624
REMARK INTER + INTRA:          -9.783
REMARK INTER:                  -8.986
REMARK INTRA:                  -0.797
REMARK UNBOUND:                -1.104
REMARK  Name = 
REMARK  8 active torsions:
REMARK  status: ('A' for Active; 'I' for Inactive)
REMARK    1  A    between atoms: N_1  and  C_2
REMARK    2  A    between atoms: C_2  and  C_3
REMARK    3  A    between atoms: C_7  and  C_8
REMARK    4  A    between atoms: C_8  and  C_9
REMARK    5  A    between atoms: C_9  and  C_10
REMARK    6  A    between atoms: C_10  and  C_11
REMARK    7  A    between atoms: C_15  and  C_16
REMARK    8  A    between atoms: C_16  and  N_17
REMARK                            x       y       z     vdW  Elec       q    Type
REMARK                         _______ _______ _______ _____ _____    ______ ____
ROOT
ATOM      1  C   UNL     1      43.943   3.848  10.228  0.00  0.00    +0.000 C 
ENDROOT
BRANCH   1   2
ATOM      2  C   UNL     1      44.761   4.383   9.048  0.00  0.00    +0.000 C 
BRANCH   2   7
ATOM      3  C   UNL     1      46.736   2.446   6.417  0.00  0.00    +0.000 A 
ATOM      4  C   UNL     1      46.816   1.186   7.024  0.00  0.00    +0.000 A 
ATOM      5  C   UNL     1      46.191   0.945   8.249  0.00  0.00    +0.000 A 
ATOM      6  C   UNL     1      45.494   1.968   8.892  0.00  0.00    +0.000 A 
ATOM      7  C   UNL     1      45.410   3.240   8.310  0.00  0.00    +0.000 A 
ATOM      8  C   UNL     1      46.024   3.464   7.069  0.00  0.00    +0.000 A 
BRANCH   3   9
ATOM      9  C   UNL     1      47.457   2.729   5.126  0.00  0.00    +0.000 C 
BRANCH   9  10
ATOM     10  N   UNL     1      48.309   1.616   4.719  0.00  0.00    +0.000 NA
ATOM     11  H   UNL     1      47.733   0.902   4.280  0.00  0.00    +0.000 HD
ATOM     12  H   UNL     1      48.711   1.194   5.551  0.00  0.00    +0.000 HD
ENDBRANCH   9  10
ENDBRANCH   3   9
ENDBRANCH   2   7
ENDBRANCH   1   2
BRANCH   1  13
ATOM     13  C   UNL     1      43.731   4.909  11.306  0.00  0.00    +0.000 C 
BRANCH  13  14
ATOM     14  C   UNL     1      44.978   5.116  12.130  0.00  0.00    +0.000 A 
ATOM     15  C   UNL     1      45.560   4.056  12.834  0.00  0.00    +0.000 A 
ATOM     16  C   UNL     1      46.710   4.261  13.597  0.00  0.00    +0.000 A 
ATOM     17  C   UNL     1      47.292   5.529  13.665  0.00  0.00    +0.000 A 
ATOM     18  C   UNL     1      46.724   6.606  12.974  0.00  0.00    +0.000 A 
ATOM     19  C   UNL     1      45.559   6.389  12.220  0.00  0.00    +0.000 A 
BRANCH  18  20
ATOM     20  C   UNL     1      47.337   7.982  13.046  0.00  0.00    +0.000 C 
BRANCH  20  21
ATOM     21  N   UNL     1      46.645   8.826  14.014  0.00  0.00    +0.000 NA
ATOM     22  H   UNL     1      46.916   9.794  13.854  0.00  0.00    +0.000 HD
ATOM     23  H   UNL     1      46.958   8.586  14.952  0.00  0.00    +0.000 HD
ENDBRANCH  20  21
ENDBRANCH  18  20
ENDBRANCH  13  14
ENDBRANCH   1  13
TORSDOF 8
ENDMDL
MODEL 9
REMARK VINA RESULT:    -6.061      1.508      6.744
REMARK INTER + INTRA:          -9.645
REMARK INTER:                  -8.836
REMARK INTRA:                  -0.809
REMARK UNBOUND:                -1.104
REMARK  Name = 
REMARK  8 active torsions:
REMARK  status: ('A' for Active; 'I' for Inactive)
REMARK    1  A    between atoms: N_1  and  C_2
REMARK    2  A    between atoms: C_2  and  C_3
REMARK    3  A    between atoms: C_7  and  C_8
REMARK    4  A    between atoms: C_8  and  C_9
REMARK    5  A    between atoms: C_9  and  C_10
REMARK    6  A    between atoms: C_10  and  C_11
REMARK    7  A    between atoms: C_15  and  C_16
REMARK    8  A    between atoms: C_16  and  N_17
REMARK                            x       y       z     vdW  Elec       q    Type
REMARK                         _______ _______ _______ _____ _____    ______ ____
ROOT
ATOM      1  C   UNL     1      44.369   2.940   9.361  0.00  0.00    +0.000 C 
ENDROOT
BRANCH   1   2
ATOM      2  C   UNL     1      44.032   3.086  10.848  0.00  0.00    +0.000 C 
BRANCH   2   7
ATOM      3  C   UNL     1      46.375   4.851  13.292  0.00  0.00    +0.000 A 
ATOM      4  C   UNL     1      46.704   5.999  12.558  0.00  0.00    +0.000 A 
ATOM      5  C   UNL     1      46.131   6.231  11.307  0.00  0.00    +0.000 A 
ATOM      6  C   UNL     1      45.239   5.307  10.763  0.00  0.00    +0.000 A 
ATOM      7  C   UNL     1      44.904   4.146  11.473  0.00  0.00    +0.000 A 
ATOM      8  C   UNL     1      45.469   3.935  12.740  0.00  0.00    +0.000 A 
BRANCH   3   9
ATOM      9  C   UNL     1      47.033   4.566  14.616  0.00  0.00    +0.000 C 
BRANCH   9  10
ATOM     10  N   UNL     1      47.526   3.194  14.699  0.00  0.00    +0.000 NA
ATOM     11  H   UNL     1      48.504   3.177  14.420  0.00  0.00    +0.000 HD
ATOM     12  H   UNL     1      47.021   2.627  14.023  0.00  0.00    +0.000 HD
ENDBRANCH   9  10
ENDBRANCH   3   9
ENDBRANCH   2   7
ENDBRANCH   1   2
BRANCH   1  13
ATOM     13  C   UNL     1      45.592   2.054   9.135  0.00  0.00    +0.000 C 
BRANCH  13  14
ATOM     14  C   UNL     1      46.192   2.279   7.768  0.00  0.00    +0.000 A 
ATOM     15  C   UNL     1      46.436   3.573   7.294  0.00  0.00    +0.000 A 
ATOM     16  C   UNL     1      46.986   3.768   6.026  0.00  0.00    +0.000 A 
ATOM     17  C   UNL     1      47.296   2.673   5.217  0.00  0.00    +0.000 A 
ATOM     18  C   UNL     1      47.054   1.369   5.668  0.00  0.00    +0.000 A 
ATOM     19  C   UNL     1      46.489   1.186   6.942  0.00  0.00    +0.000 A 
BRANCH  18  20
ATOM     20  C   UNL     1      47.378   0.177   4.803  0.00  0.00    +0.000 C 
BRANCH  20  21
ATOM     21  N   UNL     1      47.377   0.531   3.387  0.00  0.00    +0.000 NA
ATOM     22  H   UNL     1      48.323   0.795   3.118  0.00  0.00    +0.000 HD
ATOM     23  H   UNL     1      46.794   1.351   3.247  0.00  0.00    +0.000 HD
ENDBRANCH  20  21
ENDBRANCH  18  20
ENDBRANCH  13  14
ENDBRANCH   1  13
TORSDOF 8
ENDMDL
