MODEL 1
REMARK VINA RESULT:    -8.199      0.000      0.000
REMARK INTER + INTRA:         -12.682
REMARK INTER:                 -11.554
REMARK INTRA:                  -1.128
REMARK UNBOUND:                -1.128
REMARK  Name = 
REMARK  8 active torsions:
REMARK  status: ('A' for Active; 'I' for Inactive)
REMARK    1  A    between atoms: C_1  and  C_2
REMARK    2  A    between atoms: C_2  and  C_3
REMARK    3  A    between atoms: C_2  and  C_14
REMARK    4  A    between atoms: C_3  and  O_4
REMARK    5  A    between atoms: O_4  and  C_5
REMARK    6  A    between atoms: C_8  and  C_9
REMARK    7  A    between atoms: C_18  and  O_19
REMARK    8  A    between atoms: O_19  and  C_20
REMARK                            x       y       z     vdW  Elec       q    Type
REMARK                         _______ _______ _______ _____ _____    ______ ____
ROOT
ATOM      1  C   UNL     1      43.663   3.828  12.961  0.00  0.00    +0.000 C 
ATOM      2  C   UNL     1      43.975   5.147  12.242  0.00  0.00    +0.000 C 
ENDROOT
BRANCH   2   3
ATOM      3  C   UNL     1      45.412   5.570  12.492  0.00  0.00    +0.000 A 
ATOM      4  C   UNL     1      46.062   6.422  11.587  0.00  0.00    +0.000 A 
ATOM      5  C   UNL     1      47.377   6.831  11.819  0.00  0.00    +0.000 A 
ATOM      6  C   UNL     1      48.065   6.393  12.952  0.00  0.00    +0.000 A 
ATOM      7  C   UNL     1      47.435   5.538  13.851  0.00  0.00    +0.000 A 
ATOM      8  C   UNL     1      46.117   5.135  13.624  0.00  0.00    +0.000 A 
BRANCH   7   9
ATOM      9  O   UNL     1      47.990   5.066  15.013  0.00  0.00    +0.000 OA
BRANCH   9  10
ATOM     10  C   UNL     1      47.186   4.251  15.893  0.00  0.00    +0.000 C 
ATOM     11  C   UNL     1      47.128   4.636  17.385  0.00  0.00    +0.000 C 
ATOM     12  N   UNL     1      47.510   3.269  17.770  0.00  0.00    +0.000 NA
ATOM     13  C   UNL     1      47.879   2.961  16.380  0.00  0.00    +0.000 C 
ATOM     14  H   UNL     1      46.740   2.704  18.127  0.00  0.00    +0.000 HD
ENDBRANCH   9  10
ENDBRANCH   7   9
ENDBRANCH   2   3
BRANCH   2  15
ATOM     15  C   UNL     1      43.642   5.016  10.744  0.00  0.00    +0.000 C 
BRANCH  15  16
ATOM     16  O   UNL     1      43.635   3.635  10.358  0.00  0.00    +0.000 OA
BRANCH  16  17
ATOM     17  C   UNL     1      44.557   3.295   9.407  0.00  0.00    +0.000 A 
ATOM     18  C   UNL     1      45.205   4.204   8.567  0.00  0.00    +0.000 A 
ATOM     19  C   UNL     1      46.146   3.757   7.637  0.00  0.00    +0.000 A 
ATOM     20  C   UNL     1      46.460   2.397   7.545  0.00  0.00    +0.000 A 
ATOM     21  C   UNL     1      45.818   1.483   8.387  0.00  0.00    +0.000 A 
ATOM     22  C   UNL     1      44.876   1.937   9.319  0.00  0.00    +0.000 A 
BRANCH  20  23
ATOM     23  C   UNL     1      47.464   1.989   6.527  0.00  0.00    +0.000 C 
ATOM     24  N   UNL     1      48.644   2.675   6.489  0.00  0.00    +0.000 N 
ATOM     25  O   UNL     1      47.233   1.097   5.720  0.00  0.00    +0.000 OA
ATOM     26  H   UNL     1      48.777   3.557   6.961  0.00  0.00    +0.000 HD
ATOM     27  H   UNL     1      49.257   2.456   5.714  0.00  0.00    +0.000 HD
ENDBRANCH  20  23
ENDBRANCH  16  17
ENDBRANCH  15  16
ENDBRANCH   2  15
TORSDOF 7
ENDMDL
MODEL 2
REMARK VINA RESULT:    -7.262      2.496      3.772
REMARK INTER + INTRA:         -11.362
REMARK INTER:                 -10.518
REMARK INTRA:                  -0.844
REMARK UNBOUND:                -1.128
REMARK  Name = 
REMARK  8 active torsions:
REMARK  status: ('A' for Active; 'I' for Inactive)
REMARK    1  A    between atoms: C_1  and  C_2
REMARK    2  A    between atoms: C_2  and  C_3
REMARK    3  A    between atoms: C_2  and  C_14
REMARK    4  A    between atoms: C_3  and  O_4
REMARK    5  A    between atoms: O_4  and  C_5
REMARK    6  A    between atoms: C_8  and  C_9
REMARK    7  A    between atoms: C_18  and  O_19
REMARK    8  A    between atoms: O_19  and  C_20
REMARK                            x       y       z     vdW  Elec       q    Type
REMARK                         _______ _______ _______ _____ _____    ______ ____
ROOT
ATOM      1  C   UNL     1      42.894   5.033  12.887  0.00  0.00    +0.000 C 
ATOM      2  C   UNL     1      44.012   4.871  11.849  0.00  0.00    +0.000 C 
ENDROOT
BRANCH   2   3
ATOM      3  C   UNL     1      45.350   5.302  12.426  0.00  0.00    +0.000 A 
ATOM      4  C   UNL     1      45.854   4.676  13.575  0.00  0.00    +0.000 A 
ATOM      5  C   UNL     1      47.091   5.053  14.101  0.00  0.00    +0.000 A 
ATOM      6  C   UNL     1      47.841   6.061  13.493  0.00  0.00    +0.000 A 
ATOM      7  C   UNL     1      47.347   6.698  12.359  0.00  0.00    +0.000 A 
ATOM      8  C   UNL     1      46.113   6.316  11.828  0.00  0.00    +0.000 A 
BRANCH   7   9
ATOM      9  O   UNL     1      48.000   7.676  11.654  0.00  0.00    +0.000 OA
BRANCH   9  10
ATOM     10  C   UNL     1      48.124   8.993  12.233  0.00  0.00    +0.000 C 
ATOM     11  C   UNL     1      46.986  10.003  11.984  0.00  0.00    +0.000 C 
ATOM     12  N   UNL     1      47.953  10.997  11.495  0.00  0.00    +0.000 NA
ATOM     13  C   UNL     1      49.001   9.968  11.421  0.00  0.00    +0.000 C 
ATOM     14  H   UNL     1      48.156  11.746  12.158  0.00  0.00    +0.000 HD
ENDBRANCH   9  10
ENDBRANCH   7   9
ENDBRANCH   2   3
BRANCH   2  15
ATOM     15  C   UNL     1      44.027   3.425  11.318  0.00  0.00    +0.000 C 
BRANCH  15  16
ATOM     16  O   UNL     1      43.655   3.403   9.934  0.00  0.00    +0.000 OA
BRANCH  16  17
ATOM     17  C   UNL     1      44.637   2.990   9.077  0.00  0.00    +0.000 A 
ATOM     18  C   UNL     1      45.171   1.700   9.041  0.00  0.00    +0.000 A 
ATOM     19  C   UNL     1      46.163   1.373   8.115  0.00  0.00    +0.000 A 
ATOM     20  C   UNL     1      46.623   2.328   7.202  0.00  0.00    +0.000 A 
ATOM     21  C   UNL     1      46.088   3.620   7.229  0.00  0.00    +0.000 A 
ATOM     22  C   UNL     1      45.093   3.943   8.160  0.00  0.00    +0.000 A 
BRANCH  20  23
ATOM     23  C   UNL     1      47.687   1.915   6.249  0.00  0.00    +0.000 C 
ATOM     24  N   UNL     1      48.888   2.560   6.321  0.00  0.00    +0.000 N 
ATOM     25  O   UNL     1      47.489   1.056   5.398  0.00  0.00    +0.000 OA
ATOM     26  H   UNL     1      49.015   3.423   6.830  0.00  0.00    +0.000 HD
ATOM     27  H   UNL     1      49.551   2.343   5.588  0.00  0.00    +0.000 HD
ENDBRANCH  20  23
ENDBRANCH  16  17
ENDBRANCH  15  16
ENDBRANCH   2  15
TORSDOF 7
ENDMDL
MODEL 3
REMARK VINA RESULT:    -7.097      2.404      3.220
REMARK INTER + INTRA:         -11.130
REMARK INTER:                 -10.503
REMARK INTRA:                  -0.627
REMARK UNBOUND:                -1.128
REMARK  Name = 
REMARK  8 active torsions:
REMARK  status: ('A' for Active; 'I' for Inactive)
REMARK    1  A    between atoms: C_1  and  C_2
REMARK    2  A    between atoms: C_2  and  C_3
REMARK    3  A    between atoms: C_2  and  C_14
REMARK    4  A    between atoms: C_3  and  O_4
REMARK    5  A    between atoms: O_4  and  C_5
REMARK    6  A    between atoms: C_8  and  C_9
REMARK    7  A    between atoms: C_18  and  O_19
REMARK    8  A    between atoms: O_19  and  C_20
REMARK                            x       y       z     vdW  Elec       q    Type
REMARK                         _______ _______ _______ _____ _____    ______ ____
ROOT
ATOM      1  C   UNL     1      45.650   3.301  12.727  0.00  0.00    +0.000 C 
ATOM      2  C   UNL     1      44.285   3.950  12.461  0.00  0.00    +0.000 C 
ENDROOT
BRANCH   2   3
ATOM      3  C   UNL     1      44.448   5.414  12.092  0.00  0.00    +0.000 A 
ATOM      4  C   UNL     1      43.386   6.113  11.499  0.00  0.00    +0.000 A 
ATOM      5  C   UNL     1      43.521   7.464  11.173  0.00  0.00    +0.000 A 
ATOM      6  C   UNL     1      44.716   8.137  11.429  0.00  0.00    +0.000 A 
ATOM      7  C   UNL     1      45.781   7.453  12.007  0.00  0.00    +0.000 A 
ATOM      8  C   UNL     1      45.644   6.104  12.340  0.00  0.00    +0.000 A 
BRANCH   7   9
ATOM      9  O   UNL     1      46.991   8.008  12.338  0.00  0.00    +0.000 OA
BRANCH   9  10
ATOM     10  C   UNL     1      48.163   7.165  12.374  0.00  0.00    +0.000 C 
ATOM     11  C   UNL     1      49.084   7.258  13.607  0.00  0.00    +0.000 C 
ATOM     12  N   UNL     1      50.250   7.482  12.739  0.00  0.00    +0.000 NA
ATOM     13  C   UNL     1      49.369   7.714  11.584  0.00  0.00    +0.000 C 
ATOM     14  H   UNL     1      50.859   6.670  12.638  0.00  0.00    +0.000 HD
ENDBRANCH   9  10
ENDBRANCH   7   9
ENDBRANCH   2   3
BRANCH   2  15
ATOM     15  C   UNL     1      43.523   3.145  11.392  0.00  0.00    +0.000 C 
BRANCH  15  16
ATOM     16  O   UNL     1      43.635   3.789  10.116  0.00  0.00    +0.000 OA
BRANCH  16  17
ATOM     17  C   UNL     1      44.592   3.270   9.288  0.00  0.00    +0.000 A 
ATOM     18  C   UNL     1      44.891   1.911   9.172  0.00  0.00    +0.000 A 
ATOM     19  C   UNL     1      45.878   1.479   8.284  0.00  0.00    +0.000 A 
ATOM     20  C   UNL     1      46.567   2.400   7.488  0.00  0.00    +0.000 A 
ATOM     21  C   UNL     1      46.268   3.763   7.595  0.00  0.00    +0.000 A 
ATOM     22  C   UNL     1      45.276   4.190   8.488  0.00  0.00    +0.000 A 
BRANCH  20  23
ATOM     23  C   UNL     1      47.611   1.874   6.570  0.00  0.00    +0.000 C 
ATOM     24  N   UNL     1      48.715   2.648   6.355  0.00  0.00    +0.000 N 
ATOM     25  O   UNL     1      47.476   0.803   5.990  0.00  0.00    +0.000 OA
ATOM     26  H   UNL     1      48.756   3.623   6.612  0.00  0.00    +0.000 HD
ATOM     27  H   UNL     1      49.351   2.321   5.638  0.00  0.00    +0.000 HD
ENDBRANCH  20  23
ENDBRANCH  16  17
ENDBRANCH  15  16
ENDBRANCH   2  15
TORSDOF 7
ENDMDL
MODEL 4
REMARK VINA RESULT:    -6.903      2.967      4.161
REMARK INTER + INTRA:         -10.855
REMARK INTER:                 -10.147
REMARK INTRA:                  -0.708
REMARK UNBOUND:                -1.128
REMARK  Name = 
REMARK  8 active torsions:
REMARK  status: ('A' for Active; 'I' for Inactive)
REMARK    1  A    between atoms: C_1  and  C_2
REMARK    2  A    between atoms: C_2  and  C_3
REMARK    3  A    between atoms: C_2  and  C_14
REMARK    4  A    between atoms: C_3  and  O_4
REMARK    5  A    between atoms: O_4  and  C_5
REMARK    6  A    between atoms: C_8  and  C_9
REMARK    7  A    between atoms: C_18  and  O_19
REMARK    8  A    between atoms: O_19  and  C_20
REMARK                            x       y       z     vdW  Elec       q    Type
REMARK                         _______ _______ _______ _____ _____    ______ ____
ROOT
ATOM      1  C   UNL     1      42.839   5.061  13.249  0.00  0.00    +0.000 C 
ATOM      2  C   UNL     1      43.773   5.214  12.041  0.00  0.00    +0.000 C 
ENDROOT
BRANCH   2   3
ATOM      3  C   UNL     1      45.080   5.871  12.450  0.00  0.00    +0.000 A 
ATOM      4  C   UNL     1      46.200   5.082  12.750  0.00  0.00    +0.000 A 
ATOM      5  C   UNL     1      47.410   5.677  13.109  0.00  0.00    +0.000 A 
ATOM      6  C   UNL     1      47.522   7.067  13.179  0.00  0.00    +0.000 A 
ATOM      7  C   UNL     1      46.415   7.861  12.894  0.00  0.00    +0.000 A 
ATOM      8  C   UNL     1      45.206   7.266  12.528  0.00  0.00    +0.000 A 
BRANCH   7   9
ATOM      9  O   UNL     1      46.405   9.232  12.895  0.00  0.00    +0.000 OA
BRANCH   9  10
ATOM     10  C   UNL     1      45.890   9.930  11.741  0.00  0.00    +0.000 C 
ATOM     11  C   UNL     1      46.389  11.366  11.480  0.00  0.00    +0.000 C 
ATOM     12  N   UNL     1      45.003  11.851  11.399  0.00  0.00    +0.000 NA
ATOM     13  C   UNL     1      44.508  10.582  11.953  0.00  0.00    +0.000 C 
ATOM     14  H   UNL     1      44.681  12.042  10.451  0.00  0.00    +0.000 HD
ENDBRANCH   9  10
ENDBRANCH   7   9
ENDBRANCH   2   3
BRANCH   2  15
ATOM     15  C   UNL     1      43.978   3.846  11.363  0.00  0.00    +0.000 C 
BRANCH  15  16
ATOM     16  O   UNL     1      43.726   3.950   9.955  0.00  0.00    +0.000 OA
BRANCH  16  17
ATOM     17  C   UNL     1      44.680   3.388   9.153  0.00  0.00    +0.000 A 
ATOM     18  C   UNL     1      44.993   2.027   9.123  0.00  0.00    +0.000 A 
ATOM     19  C   UNL     1      45.976   1.549   8.255  0.00  0.00    +0.000 A 
ATOM     20  C   UNL     1      46.648   2.423   7.394  0.00  0.00    +0.000 A 
ATOM     21  C   UNL     1      46.336   3.787   7.416  0.00  0.00    +0.000 A 
ATOM     22  C   UNL     1      45.348   4.261   8.289  0.00  0.00    +0.000 A 
BRANCH  20  23
ATOM     23  C   UNL     1      47.690   1.848   6.502  0.00  0.00    +0.000 C 
ATOM     24  N   UNL     1      48.833   2.571   6.314  0.00  0.00    +0.000 N 
ATOM     25  O   UNL     1      47.520   0.785   5.919  0.00  0.00    +0.000 OA
ATOM     26  H   UNL     1      48.912   3.544   6.572  0.00  0.00    +0.000 HD
ATOM     27  H   UNL     1      49.470   2.215   5.614  0.00  0.00    +0.000 HD
ENDBRANCH  20  23
ENDBRANCH  16  17
ENDBRANCH  15  16
ENDBRANCH   2  15
TORSDOF 7
ENDMDL
MODEL 5
REMARK VINA RESULT:    -6.410      2.209      3.105
REMARK INTER + INTRA:         -10.162
REMARK INTER:                  -9.428
REMARK INTRA:                  -0.734
REMARK UNBOUND:                -1.128
REMARK  Name = 
REMARK  8 active torsions:
REMARK  status: ('A' for Active; 'I' for Inactive)
REMARK    1  A    between atoms: C_1  and  C_2
REMARK    2  A    between atoms: C_2  and  C_3
REMARK    3  A    between atoms: C_2  and  C_14
REMARK    4  A    between atoms: C_3  and  O_4
REMARK    5  A    between atoms: O_4  and  C_5
REMARK    6  A    between atoms: C_8  and  C_9
REMARK    7  A    between atoms: C_18  and  O_19
REMARK    8  A    between atoms: O_19  and  C_20
REMARK                            x       y       z     vdW  Elec       q    Type
REMARK                         _______ _______ _______ _____ _____    ______ ____
ROOT
ATOM      1  C   UNL     1      45.301   6.902  11.373  0.00  0.00    +0.000 C 
ATOM      2  C   UNL     1      45.820   5.487  11.658  0.00  0.00    +0.000 C 
ENDROOT
BRANCH   2   3
ATOM      3  C   UNL     1      46.554   5.440  12.988  0.00  0.00    +0.000 A 
ATOM      4  C   UNL     1      46.400   4.336  13.838  0.00  0.00    +0.000 A 
ATOM      5  C   UNL     1      47.084   4.277  15.054  0.00  0.00    +0.000 A 
ATOM      6  C   UNL     1      47.928   5.319  15.442  0.00  0.00    +0.000 A 
ATOM      7  C   UNL     1      48.081   6.425  14.613  0.00  0.00    +0.000 A 
ATOM      8  C   UNL     1      47.402   6.482  13.393  0.00  0.00    +0.000 A 
BRANCH   7   9
ATOM      9  O   UNL     1      48.902   7.494  14.865  0.00  0.00    +0.000 OA
BRANCH   9  10
ATOM     10  C   UNL     1      50.317   7.264  15.041  0.00  0.00    +0.000 C 
ATOM     11  C   UNL     1      50.930   7.549  16.427  0.00  0.00    +0.000 C 
ATOM     12  N   UNL     1      51.956   8.407  15.815  0.00  0.00    +0.000 NA
ATOM     13  C   UNL     1      51.218   8.413  14.543  0.00  0.00    +0.000 C 
ATOM     14  H   UNL     1      52.879   7.978  15.755  0.00  0.00    +0.000 HD
ENDBRANCH   9  10
ENDBRANCH   7   9
ENDBRANCH   2   3
BRANCH   2  15
ATOM     15  C   UNL     1      44.659   4.478  11.580  0.00  0.00    +0.000 C 
BRANCH  15  16
ATOM     16  O   UNL     1      44.165   4.397  10.237  0.00  0.00    +0.000 OA
BRANCH  16  17
ATOM     17  C   UNL     1      44.977   3.734   9.360  0.00  0.00    +0.000 A 
ATOM     18  C   UNL     1      45.178   2.351   9.352  0.00  0.00    +0.000 A 
ATOM     19  C   UNL     1      46.018   1.767   8.402  0.00  0.00    +0.000 A 
ATOM     20  C   UNL     1      46.656   2.555   7.439  0.00  0.00    +0.000 A 
ATOM     21  C   UNL     1      46.454   3.940   7.438  0.00  0.00    +0.000 A 
ATOM     22  C   UNL     1      45.610   4.521   8.393  0.00  0.00    +0.000 A 
BRANCH  20  23
ATOM     23  C   UNL     1      47.543   1.869   6.463  0.00  0.00    +0.000 C 
ATOM     24  N   UNL     1      48.814   2.349   6.315  0.00  0.00    +0.000 N 
ATOM     25  O   UNL     1      47.146   0.932   5.782  0.00  0.00    +0.000 OA
ATOM     26  H   UNL     1      49.101   3.250   6.667  0.00  0.00    +0.000 HD
ATOM     27  H   UNL     1      49.355   1.940   5.564  0.00  0.00    +0.000 HD
ENDBRANCH  20  23
ENDBRANCH  16  17
ENDBRANCH  15  16
ENDBRANCH   2  15
TORSDOF 7
ENDMDL
MODEL 6
REMARK VINA RESULT:    -6.342      2.880      4.503
REMARK INTER + INTRA:         -10.065
REMARK INTER:                  -8.834
REMARK INTRA:                  -1.231
REMARK UNBOUND:                -1.128
REMARK  Name = 
REMARK  8 active torsions:
REMARK  status: ('A' for Active; 'I' for Inactive)
REMARK    1  A    between atoms: C_1  and  C_2
REMARK    2  A    between atoms: C_2  and  C_3
REMARK    3  A    between atoms: C_2  and  C_14
REMARK    4  A    between atoms: C_3  and  O_4
REMARK    5  A    between atoms: O_4  and  C_5
REMARK    6  A    between atoms: C_8  and  C_9
REMARK    7  A    between atoms: C_18  and  O_19
REMARK    8  A    between atoms: O_19  and  C_20
REMARK                            x       y       z     vdW  Elec       q    Type
REMARK                         _______ _______ _______ _____ _____    ______ ____
ROOT
ATOM      1  C   UNL     1      49.371   8.716  11.859  0.00  0.00    +0.000 C 
ATOM      2  C   UNL     1      48.256   7.886  12.509  0.00  0.00    +0.000 C 
ENDROOT
BRANCH   2   3
ATOM      3  C   UNL     1      48.494   7.742  14.003  0.00  0.00    +0.000 A 
ATOM      4  C   UNL     1      48.515   8.877  14.825  0.00  0.00    +0.000 A 
ATOM      5  C   UNL     1      48.715   8.752  16.201  0.00  0.00    +0.000 A 
ATOM      6  C   UNL     1      48.901   7.494  16.777  0.00  0.00    +0.000 A 
ATOM      7  C   UNL     1      48.894   6.360  15.971  0.00  0.00    +0.000 A 
ATOM      8  C   UNL     1      48.686   6.484  14.595  0.00  0.00    +0.000 A 
BRANCH   7   9
ATOM      9  O   UNL     1      49.032   5.072  16.419  0.00  0.00    +0.000 OA
BRANCH   9  10
ATOM     10  C   UNL     1      47.893   4.186  16.367  0.00  0.00    +0.000 C 
ATOM     11  C   UNL     1      46.834   4.303  17.482  0.00  0.00    +0.000 C 
ATOM     12  N   UNL     1      46.937   2.861  17.753  0.00  0.00    +0.000 NA
ATOM     13  C   UNL     1      48.155   2.775  16.934  0.00  0.00    +0.000 C 
ATOM     14  H   UNL     1      46.157   2.310  17.394  0.00  0.00    +0.000 HD
ENDBRANCH   9  10
ENDBRANCH   7   9
ENDBRANCH   2   3
BRANCH   2  15
ATOM     15  C   UNL     1      46.884   8.505  12.180  0.00  0.00    +0.000 C 
BRANCH  15  16
ATOM     16  O   UNL     1      45.858   7.876  12.960  0.00  0.00    +0.000 OA
BRANCH  16  17
ATOM     17  C   UNL     1      45.383   6.700  12.450  0.00  0.00    +0.000 A 
ATOM     18  C   UNL     1      44.996   6.508  11.122  0.00  0.00    +0.000 A 
ATOM     19  C   UNL     1      44.537   5.261  10.695  0.00  0.00    +0.000 A 
ATOM     20  C   UNL     1      44.474   4.185  11.587  0.00  0.00    +0.000 A 
ATOM     21  C   UNL     1      44.866   4.370  12.917  0.00  0.00    +0.000 A 
ATOM     22  C   UNL     1      45.326   5.623  13.340  0.00  0.00    +0.000 A 
BRANCH  20  23
ATOM     23  C   UNL     1      43.968   2.887  11.068  0.00  0.00    +0.000 C 
ATOM     24  N   UNL     1      44.645   2.312  10.031  0.00  0.00    +0.000 N 
ATOM     25  O   UNL     1      42.956   2.365  11.520  0.00  0.00    +0.000 OA
ATOM     26  H   UNL     1      45.323   2.813   9.476  0.00  0.00    +0.000 HD
ATOM     27  H   UNL     1      44.212   1.493   9.622  0.00  0.00    +0.000 HD
ENDBRANCH  20  23
ENDBRANCH  16  17
ENDBRANCH  15  16
ENDBRANCH   2  15
TORSDOF 7
ENDMDL
MODEL 7
REMARK VINA RESULT:    -6.211      4.353      6.973
REMARK INTER + INTRA:          -9.881
REMARK INTER:                  -8.526
REMARK INTRA:                  -1.355
REMARK UNBOUND:                -1.128
REMARK  Name = 
REMARK  8 active torsions:
REMARK  status: ('A' for Active; 'I' for Inactive)
REMARK    1  A    between atoms: C_1  and  C_2
REMARK    2  A    between atoms: C_2  and  C_3
REMARK    3  A    between atoms: C_2  and  C_14
REMARK    4  A    between atoms: C_3  and  O_4
REMARK    5  A    between atoms: O_4  and  C_5
REMARK    6  A    between atoms: C_8  and  C_9
REMARK    7  A    between atoms: C_18  and  O_19
REMARK    8  A    between atoms: O_19  and  C_20
REMARK                            x       y       z     vdW  Elec       q    Type
REMARK                         _______ _______ _______ _____ _____    ______ ____
ROOT
ATOM      1  C   UNL     1      50.089   7.968  11.593  0.00  0.00    +0.000 C 
ATOM      2  C   UNL     1      49.306   8.776  12.637  0.00  0.00    +0.000 C 
ENDROOT
BRANCH   2   3
ATOM      3  C   UNL     1      48.445   9.833  11.965  0.00  0.00    +0.000 A 
ATOM      4  C   UNL     1      48.991  10.658  10.972  0.00  0.00    +0.000 A 
ATOM      5  C   UNL     1      48.202  11.619  10.336  0.00  0.00    +0.000 A 
ATOM      6  C   UNL     1      46.859  11.774  10.684  0.00  0.00    +0.000 A 
ATOM      7  C   UNL     1      46.308  10.969  11.677  0.00  0.00    +0.000 A 
ATOM      8  C   UNL     1      47.095  10.003  12.307  0.00  0.00    +0.000 A 
BRANCH   7   9
ATOM      9  O   UNL     1      45.000  11.002  12.084  0.00  0.00    +0.000 OA
BRANCH   9  10
ATOM     10  C   UNL     1      43.954  10.923  11.091  0.00  0.00    +0.000 C 
ATOM     11  C   UNL     1      42.496  11.103  11.559  0.00  0.00    +0.000 C 
ATOM     12  N   UNL     1      42.114   9.841  10.907  0.00  0.00    +0.000 NA
ATOM     13  C   UNL     1      43.529   9.486  10.724  0.00  0.00    +0.000 C 
ATOM     14  H   UNL     1      41.601   9.958  10.033  0.00  0.00    +0.000 HD
ENDBRANCH   9  10
ENDBRANCH   7   9
ENDBRANCH   2   3
BRANCH   2  15
ATOM     15  C   UNL     1      48.493   7.824  13.533  0.00  0.00    +0.000 C 
BRANCH  15  16
ATOM     16  O   UNL     1      48.384   6.535  12.914  0.00  0.00    +0.000 OA
BRANCH  16  17
ATOM     17  C   UNL     1      47.107   6.126  12.650  0.00  0.00    +0.000 A 
ATOM     18  C   UNL     1      46.321   5.364  13.518  0.00  0.00    +0.000 A 
ATOM     19  C   UNL     1      45.018   5.010  13.162  0.00  0.00    +0.000 A 
ATOM     20  C   UNL     1      44.479   5.426  11.940  0.00  0.00    +0.000 A 
ATOM     21  C   UNL     1      45.260   6.194  11.069  0.00  0.00    +0.000 A 
ATOM     22  C   UNL     1      46.566   6.547  11.432  0.00  0.00    +0.000 A 
BRANCH  20  23
ATOM     23  C   UNL     1      43.090   5.006  11.620  0.00  0.00    +0.000 C 
ATOM     24  N   UNL     1      42.097   5.932  11.770  0.00  0.00    +0.000 N 
ATOM     25  O   UNL     1      42.828   3.860  11.274  0.00  0.00    +0.000 OA
ATOM     26  H   UNL     1      42.228   6.795  12.277  0.00  0.00    +0.000 HD
ATOM     27  H   UNL     1      41.152   5.587  11.661  0.00  0.00    +0.000 HD
ENDBRANCH  20  23
ENDBRANCH  16  17
ENDBRANCH  15  16
ENDBRANCH   2  15
TORSDOF 7
ENDMDL
MODEL 8
REMARK VINA RESULT:    -6.062      2.932      7.525
REMARK INTER + INTRA:          -9.671
REMARK INTER:                  -8.661
REMARK INTRA:                  -1.009
REMARK UNBOUND:                -1.128
REMARK  Name = 
REMARK  8 active torsions:
REMARK  status: ('A' for Active; 'I' for Inactive)
REMARK    1  A    between atoms: C_1  and  C_2
REMARK    2  A    between atoms: C_2  and  C_3
REMARK    3  A    between atoms: C_2  and  C_14
REMARK    4  A    between atoms: C_3  and  O_4
REMARK    5  A    between atoms: O_4  and  C_5
REMARK    6  A    between atoms: C_8  and  C_9
REMARK    7  A    between atoms: C_18  and  O_19
REMARK    8  A    between atoms: O_19  and  C_20
REMARK                            x       y       z     vdW  Elec       q    Type
REMARK                         _______ _______ _______ _____ _____    ______ ____
ROOT
ATOM      1  C   UNL     1      49.471   7.934  11.804  0.00  0.00    +0.000 C 
ATOM      2  C   UNL     1      48.369   8.679  12.570  0.00  0.00    +0.000 C 
ENDROOT
BRANCH   2   3
ATOM      3  C   UNL     1      46.995   8.172  12.166  0.00  0.00    +0.000 A 
ATOM      4  C   UNL     1      45.922   9.067  12.049  0.00  0.00    +0.000 A 
ATOM      5  C   UNL     1      44.660   8.612  11.660  0.00  0.00    +0.000 A 
ATOM      6  C   UNL     1      44.449   7.260  11.388  0.00  0.00    +0.000 A 
ATOM      7  C   UNL     1      45.503   6.360  11.512  0.00  0.00    +0.000 A 
ATOM      8  C   UNL     1      46.767   6.815  11.893  0.00  0.00    +0.000 A 
BRANCH   7   9
ATOM      9  O   UNL     1      45.431   5.017  11.243  0.00  0.00    +0.000 OA
BRANCH   9  10
ATOM     10  C   UNL     1      44.135   4.385  11.173  0.00  0.00    +0.000 C 
ATOM     11  C   UNL     1      43.727   3.439  12.321  0.00  0.00    +0.000 C 
ATOM     12  N   UNL     1      43.414   2.375  11.356  0.00  0.00    +0.000 NA
ATOM     13  C   UNL     1      44.085   3.125  10.283  0.00  0.00    +0.000 C 
ATOM     14  H   UNL     1      42.417   2.232  11.198  0.00  0.00    +0.000 HD
ENDBRANCH   9  10
ENDBRANCH   7   9
ENDBRANCH   2   3
BRANCH   2  15
ATOM     15  C   UNL     1      48.624   8.574  14.086  0.00  0.00    +0.000 C 
BRANCH  15  16
ATOM     16  O   UNL     1      49.521   7.490  14.362  0.00  0.00    +0.000 OA
BRANCH  16  17
ATOM     17  C   UNL     1      49.011   6.505  15.160  0.00  0.00    +0.000 A 
ATOM     18  C   UNL     1      47.928   5.690  14.824  0.00  0.00    +0.000 A 
ATOM     19  C   UNL     1      47.491   4.698  15.704  0.00  0.00    +0.000 A 
ATOM     20  C   UNL     1      48.142   4.499  16.926  0.00  0.00    +0.000 A 
ATOM     21  C   UNL     1      49.231   5.309  17.267  0.00  0.00    +0.000 A 
ATOM     22  C   UNL     1      49.665   6.302  16.379  0.00  0.00    +0.000 A 
BRANCH  20  23
ATOM     23  C   UNL     1      47.619   3.432  17.820  0.00  0.00    +0.000 C 
ATOM     24  N   UNL     1      48.320   3.161  18.961  0.00  0.00    +0.000 N 
ATOM     25  O   UNL     1      46.620   2.785  17.531  0.00  0.00    +0.000 OA
ATOM     26  H   UNL     1      49.261   3.490  19.114  0.00  0.00    +0.000 HD
ATOM     27  H   UNL     1      48.010   2.354  19.487  0.00  0.00    +0.000 HD
ENDBRANCH  20  23
ENDBRANCH  16  17
ENDBRANCH  15  16
ENDBRANCH   2  15
TORSDOF 7
ENDMDL
MODEL 9
REMARK VINA RESULT:    -5.926      3.193      5.316
REMARK INTER + INTRA:          -9.479
REMARK INTER:                  -8.374
REMARK INTRA:                  -1.105
REMARK UNBOUND:                -1.128
REMARK  Name = 
REMARK  8 active torsions:
REMARK  status: ('A' for Active; 'I' for Inactive)
REMARK    1  A    between atoms: C_1  and  C_2
REMARK    2  A    between atoms: C_2  and  C_3
REMARK    3  A    between atoms: C_2  and  C_14
REMARK    4  A    between atoms: C_3  and  O_4
REMARK    5  A    between atoms: O_4  and  C_5
REMARK    6  A    between atoms: C_8  and  C_9
REMARK    7  A    between atoms: C_18  and  O_19
REMARK    8  A    between atoms: O_19  and  C_20
REMARK                            x       y       z     vdW  Elec       q    Type
REMARK                         _______ _______ _______ _____ _____    ______ ____
ROOT
ATOM      1  C   UNL     1      48.923   9.511  14.010  0.00  0.00    +0.000 C 
ATOM      2  C   UNL     1      49.829   8.341  13.605  0.00  0.00    +0.000 C 
ENDROOT
BRANCH   2   3
ATOM      3  C   UNL     1      50.294   7.571  14.830  0.00  0.00    +0.000 A 
ATOM      4  C   UNL     1      51.650   7.572  15.188  0.00  0.00    +0.000 A 
ATOM      5  C   UNL     1      52.083   6.882  16.323  0.00  0.00    +0.000 A 
ATOM      6  C   UNL     1      51.173   6.178  17.113  0.00  0.00    +0.000 A 
ATOM      7  C   UNL     1      49.827   6.160  16.762  0.00  0.00    +0.000 A 
ATOM      8  C   UNL     1      49.392   6.856  15.632  0.00  0.00    +0.000 A 
BRANCH   7   9
ATOM      9  O   UNL     1      48.833   5.535  17.471  0.00  0.00    +0.000 OA
BRANCH   9  10
ATOM     10  C   UNL     1      48.423   4.207  17.082  0.00  0.00    +0.000 C 
ATOM     11  C   UNL     1      46.928   3.967  16.788  0.00  0.00    +0.000 C 
ATOM     12  N   UNL     1      46.908   2.836  17.727  0.00  0.00    +0.000 NA
ATOM     13  C   UNL     1      48.221   3.230  18.259  0.00  0.00    +0.000 C 
ATOM     14  H   UNL     1      46.902   1.919  17.279  0.00  0.00    +0.000 HD
ENDBRANCH   9  10
ENDBRANCH   7   9
ENDBRANCH   2   3
BRANCH   2  15
ATOM     15  C   UNL     1      49.105   7.450  12.578  0.00  0.00    +0.000 C 
BRANCH  15  16
ATOM     16  O   UNL     1      47.690   7.672  12.642  0.00  0.00    +0.000 OA
BRANCH  16  17
ATOM     17  C   UNL     1      46.921   6.551  12.494  0.00  0.00    +0.000 A 
ATOM     18  C   UNL     1      46.865   5.498  13.411  0.00  0.00    +0.000 A 
ATOM     19  C   UNL     1      46.034   4.402  13.175  0.00  0.00    +0.000 A 
ATOM     20  C   UNL     1      45.236   4.351  12.027  0.00  0.00    +0.000 A 
ATOM     21  C   UNL     1      45.284   5.405  11.108  0.00  0.00    +0.000 A 
ATOM     22  C   UNL     1      46.120   6.503  11.350  0.00  0.00    +0.000 A 
BRANCH  20  23
ATOM     23  C   UNL     1      44.381   3.151  11.834  0.00  0.00    +0.000 C 
ATOM     24  N   UNL     1      44.438   2.519  10.624  0.00  0.00    +0.000 N 
ATOM     25  O   UNL     1      43.618   2.758  12.707  0.00  0.00    +0.000 OA
ATOM     26  H   UNL     1      44.858   2.940   9.808  0.00  0.00    +0.000 HD
ATOM     27  H   UNL     1      43.762   1.780  10.480  0.00  0.00    +0.000 HD
ENDBRANCH  20  23
ENDBRANCH  16  17
ENDBRANCH  15  16
ENDBRANCH   2  15
TORSDOF 7
ENDMDL
