MODEL 1
REMARK VINA RESULT:    -7.220      0.000      0.000
REMARK INTER + INTRA:         -11.110
REMARK INTER:                  -9.753
REMARK INTRA:                  -1.357
REMARK UNBOUND:                -1.357
REMARK  Name = 
REMARK  7 active torsions:
REMARK  status: ('A' for Active; 'I' for Inactive)
REMARK    1  A    between atoms: C_1  and  C_2
REMARK    2  A    between atoms: C_2  and  N_3
REMARK    3  A    between atoms: N_3  and  C_4
REMARK    4  A    between atoms: C_4  and  C_5
REMARK    5  A    between atoms: C_8  and  C_9
REMARK    6  A    between atoms: C_9  and  N_10
REMARK    7  A    between atoms: C_18  and  C_20
REMARK                            x       y       z     vdW  Elec       q    Type
REMARK                         _______ _______ _______ _____ _____    ______ ____
ROOT
ATOM      1  N   UNL     1      46.073   7.219  11.823  0.00  0.00    +0.000 N 
ATOM      2  C   UNL     1      44.805   6.775  11.391  0.00  0.00    +0.000 C 
ATOM      3  O   UNL     1      43.939   7.569  11.028  0.00  0.00    +0.000 OA
ENDROOT
BRANCH   2   4
ATOM      4  C   UNL     1      44.489   5.334  11.418  0.00  0.00    +0.000 A 
ATOM      5  C   UNL     1      43.746   4.701  12.403  0.00  0.00    +0.000 A 
ATOM      6  S   UNL     1      43.469   3.042  12.101  0.00  0.00    +0.000 S 
ATOM      7  C   UNL     1      44.184   3.155  10.563  0.00  0.00    +0.000 A 
ATOM      8  N   UNL     1      44.151   2.106   9.699  0.00  0.00    +0.000 NA
ATOM      9  C   UNL     1      44.664   2.369   8.539  0.00  0.00    +0.000 A 
ATOM     10  N   UNL     1      45.246   3.562   8.190  0.00  0.00    +0.000 N 
ATOM     11  C   UNL     1      45.427   4.597   9.083  0.00  0.00    +0.000 A 
ATOM     12  O   UNL     1      46.169   5.537   8.825  0.00  0.00    +0.000 OA
ATOM     13  C   UNL     1      44.737   4.402  10.344  0.00  0.00    +0.000 A 
ATOM     14  H   UNL     1      45.698   3.672   7.294  0.00  0.00    +0.000 HD
ENDBRANCH   2   4
BRANCH   1  16
ATOM     15  C   UNL     1      45.891   9.223  13.285  0.00  0.00    +0.000 C 
ATOM     16  C   UNL     1      46.283   8.666  11.923  0.00  0.00    +0.000 C 
ENDBRANCH   1  16
BRANCH   1  17
ATOM     17  C   UNL     1      47.118   6.289  12.232  0.00  0.00    +0.000 C 
BRANCH  17  18
ATOM     18  C   UNL     1      47.371   5.971  13.683  0.00  0.00    +0.000 A 
ATOM     19  C   UNL     1      46.831   4.797  14.234  0.00  0.00    +0.000 A 
ATOM     20  C   UNL     1      47.291   4.309  15.455  0.00  0.00    +0.000 A 
ATOM     21  C   UNL     1      48.294   4.991  16.156  0.00  0.00    +0.000 A 
ATOM     22  C   UNL     1      48.758   6.217  15.654  0.00  0.00    +0.000 A 
ATOM     23  C   UNL     1      48.297   6.706  14.429  0.00  0.00    +0.000 A 
BRANCH  21  24
ATOM     24  C   UNL     1      48.878   4.390  17.418  0.00  0.00    +0.000 C 
BRANCH  24  25
ATOM     25  N   UNL     1      50.205   3.766  17.219  0.00  0.00    +0.000 NA
ATOM     26  C   UNL     1      51.226   4.372  18.093  0.00  0.00    +0.000 C 
ATOM     27  C   UNL     1      52.597   3.704  17.933  0.00  0.00    +0.000 C 
ATOM     28  C   UNL     1      52.512   2.199  18.150  0.00  0.00    +0.000 C 
ATOM     29  C   UNL     1      51.440   1.605  17.249  0.00  0.00    +0.000 C 
ATOM     30  C   UNL     1      50.101   2.316  17.450  0.00  0.00    +0.000 C 
ENDBRANCH  24  25
ENDBRANCH  21  24
ENDBRANCH  17  18
ENDBRANCH   1  17
TORSDOF 6
ENDMDL
MODEL 2
REMARK VINA RESULT:    -7.087      1.670      2.474
REMARK INTER + INTRA:         -10.930
REMARK INTER:                  -9.807
REMARK INTRA:                  -1.123
REMARK UNBOUND:                -1.357
REMARK  Name = 
REMARK  7 active torsions:
REMARK  status: ('A' for Active; 'I' for Inactive)
REMARK    1  A    between atoms: C_1  and  C_2
REMARK    2  A    between atoms: C_2  and  N_3
REMARK    3  A    between atoms: N_3  and  C_4
REMARK    4  A    between atoms: C_4  and  C_5
REMARK    5  A    between atoms: C_8  and  C_9
REMARK    6  A    between atoms: C_9  and  N_10
REMARK    7  A    between atoms: C_18  and  C_20
REMARK                            x       y       z     vdW  Elec       q    Type
REMARK                         _______ _______ _______ _____ _____    ______ ____
ROOT
ATOM      1  N   UNL     1      46.217   7.108  12.177  0.00  0.00    +0.000 N 
ATOM      2  C   UNL     1      44.964   6.733  11.646  0.00  0.00    +0.000 C 
ATOM      3  O   UNL     1      44.150   7.576  11.273  0.00  0.00    +0.000 OA
ENDROOT
BRANCH   2   4
ATOM      4  C   UNL     1      44.598   5.305  11.578  0.00  0.00    +0.000 A 
ATOM      5  C   UNL     1      43.858   4.627  12.535  0.00  0.00    +0.000 A 
ATOM      6  S   UNL     1      43.516   3.005  12.123  0.00  0.00    +0.000 S 
ATOM      7  C   UNL     1      44.196   3.205  10.579  0.00  0.00    +0.000 A 
ATOM      8  N   UNL     1      44.105   2.223   9.643  0.00  0.00    +0.000 NA
ATOM      9  C   UNL     1      44.599   2.552   8.491  0.00  0.00    +0.000 A 
ATOM     10  N   UNL     1      45.213   3.747   8.213  0.00  0.00    +0.000 N 
ATOM     11  C   UNL     1      45.452   4.708   9.172  0.00  0.00    +0.000 A 
ATOM     12  O   UNL     1      46.220   5.639   8.962  0.00  0.00    +0.000 OA
ATOM     13  C   UNL     1      44.787   4.446  10.434  0.00  0.00    +0.000 A 
ATOM     14  H   UNL     1      45.646   3.907   7.316  0.00  0.00    +0.000 HD
ENDBRANCH   2   4
BRANCH   1  16
ATOM     15  C   UNL     1      47.898   8.934  12.017  0.00  0.00    +0.000 C 
ATOM     16  C   UNL     1      46.469   8.539  12.365  0.00  0.00    +0.000 C 
ENDBRANCH   1  16
BRANCH   1  17
ATOM     17  C   UNL     1      47.201   6.121  12.601  0.00  0.00    +0.000 C 
BRANCH  17  18
ATOM     18  C   UNL     1      47.448   5.822  14.057  0.00  0.00    +0.000 A 
ATOM     19  C   UNL     1      46.873   4.676  14.631  0.00  0.00    +0.000 A 
ATOM     20  C   UNL     1      47.320   4.197  15.860  0.00  0.00    +0.000 A 
ATOM     21  C   UNL     1      48.345   4.860  16.546  0.00  0.00    +0.000 A 
ATOM     22  C   UNL     1      48.846   6.062  16.022  0.00  0.00    +0.000 A 
ATOM     23  C   UNL     1      48.397   6.542  14.788  0.00  0.00    +0.000 A 
BRANCH  21  24
ATOM     24  C   UNL     1      48.913   4.266  17.819  0.00  0.00    +0.000 C 
BRANCH  24  25
ATOM     25  N   UNL     1      48.755   5.139  19.003  0.00  0.00    +0.000 NA
ATOM     26  C   UNL     1      47.477   5.875  18.968  0.00  0.00    +0.000 C 
ATOM     27  C   UNL     1      47.277   6.749  20.212  0.00  0.00    +0.000 C 
ATOM     28  C   UNL     1      47.405   5.934  21.492  0.00  0.00    +0.000 C 
ATOM     29  C   UNL     1      48.723   5.173  21.491  0.00  0.00    +0.000 C 
ATOM     30  C   UNL     1      48.866   4.328  20.226  0.00  0.00    +0.000 C 
ENDBRANCH  24  25
ENDBRANCH  21  24
ENDBRANCH  17  18
ENDBRANCH   1  17
TORSDOF 6
ENDMDL
MODEL 3
REMARK VINA RESULT:    -6.588      3.615      8.194
REMARK INTER + INTRA:         -10.256
REMARK INTER:                  -9.009
REMARK INTRA:                  -1.247
REMARK UNBOUND:                -1.357
REMARK  Name = 
REMARK  7 active torsions:
REMARK  status: ('A' for Active; 'I' for Inactive)
REMARK    1  A    between atoms: C_1  and  C_2
REMARK    2  A    between atoms: C_2  and  N_3
REMARK    3  A    between atoms: N_3  and  C_4
REMARK    4  A    between atoms: C_4  and  C_5
REMARK    5  A    between atoms: C_8  and  C_9
REMARK    6  A    between atoms: C_9  and  N_10
REMARK    7  A    between atoms: C_18  and  C_20
REMARK                            x       y       z     vdW  Elec       q    Type
REMARK                         _______ _______ _______ _____ _____    ______ ____
ROOT
ATOM      1  N   UNL     1      48.777   7.448  13.778  0.00  0.00    +0.000 N 
ATOM      2  C   UNL     1      49.674   7.731  14.829  0.00  0.00    +0.000 C 
ATOM      3  O   UNL     1      50.891   7.663  14.667  0.00  0.00    +0.000 OA
ENDROOT
BRANCH   2   4
ATOM      4  C   UNL     1      49.149   8.072  16.166  0.00  0.00    +0.000 A 
ATOM      5  C   UNL     1      48.934   9.360  16.631  0.00  0.00    +0.000 A 
ATOM      6  S   UNL     1      48.226   9.424  18.185  0.00  0.00    +0.000 S 
ATOM      7  C   UNL     1      48.026   7.737  18.214  0.00  0.00    +0.000 A 
ATOM      8  N   UNL     1      47.340   7.131  19.221  0.00  0.00    +0.000 NA
ATOM      9  C   UNL     1      47.201   5.853  19.063  0.00  0.00    +0.000 A 
ATOM     10  N   UNL     1      47.728   5.129  18.023  0.00  0.00    +0.000 N 
ATOM     11  C   UNL     1      48.548   5.683  17.064  0.00  0.00    +0.000 A 
ATOM     12  O   UNL     1      49.207   4.979  16.307  0.00  0.00    +0.000 OA
ATOM     13  C   UNL     1      48.608   7.131  17.117  0.00  0.00    +0.000 A 
ATOM     14  H   UNL     1      47.649   4.123  18.005  0.00  0.00    +0.000 HD
ENDBRANCH   2   4
BRANCH   1  16
ATOM     15  C   UNL     1      49.341   8.029  11.426  0.00  0.00    +0.000 C 
ATOM     16  C   UNL     1      49.346   6.966  12.516  0.00  0.00    +0.000 C 
ENDBRANCH   1  16
BRANCH   1  17
ATOM     17  C   UNL     1      47.333   7.548  13.948  0.00  0.00    +0.000 C 
BRANCH  17  18
ATOM     18  C   UNL     1      46.382   6.657  13.192  0.00  0.00    +0.000 A 
ATOM     19  C   UNL     1      45.718   7.162  12.062  0.00  0.00    +0.000 A 
ATOM     20  C   UNL     1      45.088   6.300  11.166  0.00  0.00    +0.000 A 
ATOM     21  C   UNL     1      45.101   4.918  11.387  0.00  0.00    +0.000 A 
ATOM     22  C   UNL     1      45.675   4.425  12.569  0.00  0.00    +0.000 A 
ATOM     23  C   UNL     1      46.307   5.289  13.468  0.00  0.00    +0.000 A 
BRANCH  21  24
ATOM     24  C   UNL     1      44.525   3.979  10.347  0.00  0.00    +0.000 C 
BRANCH  24  25
ATOM     25  N   UNL     1      45.541   3.416   9.429  0.00  0.00    +0.000 NA
ATOM     26  C   UNL     1      45.216   2.030   9.045  0.00  0.00    +0.000 C 
ATOM     27  C   UNL     1      46.234   1.448   8.057  0.00  0.00    +0.000 C 
ATOM     28  C   UNL     1      46.388   2.335   6.829  0.00  0.00    +0.000 C 
ATOM     29  C   UNL     1      46.704   3.760   7.256  0.00  0.00    +0.000 C 
ATOM     30  C   UNL     1      45.660   4.280   8.244  0.00  0.00    +0.000 C 
ENDBRANCH  24  25
ENDBRANCH  21  24
ENDBRANCH  17  18
ENDBRANCH   1  17
TORSDOF 6
ENDMDL
MODEL 4
REMARK VINA RESULT:    -6.409      3.482      8.268
REMARK INTER + INTRA:         -10.014
REMARK INTER:                  -8.946
REMARK INTRA:                  -1.068
REMARK UNBOUND:                -1.357
REMARK  Name = 
REMARK  7 active torsions:
REMARK  status: ('A' for Active; 'I' for Inactive)
REMARK    1  A    between atoms: C_1  and  C_2
REMARK    2  A    between atoms: C_2  and  N_3
REMARK    3  A    between atoms: N_3  and  C_4
REMARK    4  A    between atoms: C_4  and  C_5
REMARK    5  A    between atoms: C_8  and  C_9
REMARK    6  A    between atoms: C_9  and  N_10
REMARK    7  A    between atoms: C_18  and  C_20
REMARK                            x       y       z     vdW  Elec       q    Type
REMARK                         _______ _______ _______ _____ _____    ______ ____
ROOT
ATOM      1  N   UNL     1      49.172   7.522  14.278  0.00  0.00    +0.000 N 
ATOM      2  C   UNL     1      49.731   6.867  15.396  0.00  0.00    +0.000 C 
ATOM      3  O   UNL     1      50.944   6.695  15.496  0.00  0.00    +0.000 OA
ENDROOT
BRANCH   2   4
ATOM      4  C   UNL     1      48.844   6.331  16.447  0.00  0.00    +0.000 A 
ATOM      5  C   UNL     1      48.356   5.034  16.492  0.00  0.00    +0.000 A 
ATOM      6  S   UNL     1      47.432   4.691  17.888  0.00  0.00    +0.000 S 
ATOM      7  C   UNL     1      47.796   6.209  18.558  0.00  0.00    +0.000 A 
ATOM      8  N   UNL     1      47.426   6.519  19.830  0.00  0.00    +0.000 NA
ATOM      9  C   UNL     1      47.843   7.679  20.228  0.00  0.00    +0.000 A 
ATOM     10  N   UNL     1      48.547   8.567  19.454  0.00  0.00    +0.000 N 
ATOM     11  C   UNL     1      48.816   8.351  18.120  0.00  0.00    +0.000 A 
ATOM     12  O   UNL     1      49.211   9.256  17.396  0.00  0.00    +0.000 OA
ATOM     13  C   UNL     1      48.499   7.007  17.675  0.00  0.00    +0.000 A 
ATOM     14  H   UNL     1      48.773   9.487  19.803  0.00  0.00    +0.000 HD
ENDBRANCH   2   4
BRANCH   1  16
ATOM     15  C   UNL     1      49.790   9.283  12.634  0.00  0.00    +0.000 C 
ATOM     16  C   UNL     1      50.081   7.896  13.192  0.00  0.00    +0.000 C 
ENDBRANCH   1  16
BRANCH   1  17
ATOM     17  C   UNL     1      47.738   7.754  14.157  0.00  0.00    +0.000 C 
BRANCH  17  18
ATOM     18  C   UNL     1      46.900   7.023  13.140  0.00  0.00    +0.000 A 
ATOM     19  C   UNL     1      46.673   5.646  13.299  0.00  0.00    +0.000 A 
ATOM     20  C   UNL     1      45.667   5.006  12.578  0.00  0.00    +0.000 A 
ATOM     21  C   UNL     1      44.874   5.727  11.678  0.00  0.00    +0.000 A 
ATOM     22  C   UNL     1      45.170   7.079  11.445  0.00  0.00    +0.000 A 
ATOM     23  C   UNL     1      46.179   7.723  12.168  0.00  0.00    +0.000 A 
BRANCH  21  24
ATOM     24  C   UNL     1      43.703   5.054  10.992  0.00  0.00    +0.000 C 
BRANCH  24  25
ATOM     25  N   UNL     1      44.090   4.236   9.821  0.00  0.00    +0.000 NA
ATOM     26  C   UNL     1      45.338   4.726   9.207  0.00  0.00    +0.000 C 
ATOM     27  C   UNL     1      45.779   3.861   8.021  0.00  0.00    +0.000 C 
ATOM     28  C   UNL     1      45.901   2.395   8.415  0.00  0.00    +0.000 C 
ATOM     29  C   UNL     1      44.606   1.924   9.061  0.00  0.00    +0.000 C 
ATOM     30  C   UNL     1      44.217   2.829  10.230  0.00  0.00    +0.000 C 
ENDBRANCH  24  25
ENDBRANCH  21  24
ENDBRANCH  17  18
ENDBRANCH   1  17
TORSDOF 6
ENDMDL
MODEL 5
REMARK VINA RESULT:    -6.332      3.518      7.844
REMARK INTER + INTRA:          -9.910
REMARK INTER:                  -8.260
REMARK INTRA:                  -1.649
REMARK UNBOUND:                -1.357
REMARK  Name = 
REMARK  7 active torsions:
REMARK  status: ('A' for Active; 'I' for Inactive)
REMARK    1  A    between atoms: C_1  and  C_2
REMARK    2  A    between atoms: C_2  and  N_3
REMARK    3  A    between atoms: N_3  and  C_4
REMARK    4  A    between atoms: C_4  and  C_5
REMARK    5  A    between atoms: C_8  and  C_9
REMARK    6  A    between atoms: C_9  and  N_10
REMARK    7  A    between atoms: C_18  and  C_20
REMARK                            x       y       z     vdW  Elec       q    Type
REMARK                         _______ _______ _______ _____ _____    ______ ____
ROOT
ATOM      1  N   UNL     1      48.617   8.103  17.432  0.00  0.00    +0.000 N 
ATOM      2  C   UNL     1      48.860   7.033  18.319  0.00  0.00    +0.000 C 
ATOM      3  O   UNL     1      48.279   6.954  19.400  0.00  0.00    +0.000 OA
ENDROOT
BRANCH   2   4
ATOM      4  C   UNL     1      49.864   6.009  17.970  0.00  0.00    +0.000 A 
ATOM      5  C   UNL     1      51.222   6.103  18.235  0.00  0.00    +0.000 A 
ATOM      6  S   UNL     1      52.109   4.711  17.796  0.00  0.00    +0.000 S 
ATOM      7  C   UNL     1      50.686   3.872  17.397  0.00  0.00    +0.000 A 
ATOM      8  N   UNL     1      50.720   2.551  17.075  0.00  0.00    +0.000 NA
ATOM      9  C   UNL     1      49.551   2.032  16.876  0.00  0.00    +0.000 A 
ATOM     10  N   UNL     1      48.366   2.725  16.920  0.00  0.00    +0.000 N 
ATOM     11  C   UNL     1      48.303   4.090  17.100  0.00  0.00    +0.000 A 
ATOM     12  O   UNL     1      47.271   4.712  16.879  0.00  0.00    +0.000 OA
ATOM     13  C   UNL     1      49.571   4.685  17.474  0.00  0.00    +0.000 A 
ATOM     14  H   UNL     1      47.497   2.274  16.675  0.00  0.00    +0.000 HD
ENDBRANCH   2   4
BRANCH   1  16
ATOM     15  C   UNL     1      48.375  10.549  17.816  0.00  0.00    +0.000 C 
ATOM     16  C   UNL     1      47.727   9.172  17.893  0.00  0.00    +0.000 C 
ENDBRANCH   1  16
BRANCH   1  17
ATOM     17  C   UNL     1      49.279   8.197  16.137  0.00  0.00    +0.000 C 
BRANCH  17  18
ATOM     18  C   UNL     1      48.546   7.919  14.850  0.00  0.00    +0.000 A 
ATOM     19  C   UNL     1      48.509   6.606  14.350  0.00  0.00    +0.000 A 
ATOM     20  C   UNL     1      47.598   6.251  13.357  0.00  0.00    +0.000 A 
ATOM     21  C   UNL     1      46.712   7.203  12.838  0.00  0.00    +0.000 A 
ATOM     22  C   UNL     1      46.822   8.536  13.264  0.00  0.00    +0.000 A 
ATOM     23  C   UNL     1      47.735   8.893  14.261  0.00  0.00    +0.000 A 
BRANCH  21  24
ATOM     24  C   UNL     1      45.642   6.783  11.852  0.00  0.00    +0.000 C 
BRANCH  24  25
ATOM     25  N   UNL     1      45.237   5.366  11.984  0.00  0.00    +0.000 NA
ATOM     26  C   UNL     1      44.026   5.224  12.814  0.00  0.00    +0.000 C 
ATOM     27  C   UNL     1      43.566   3.765  12.922  0.00  0.00    +0.000 C 
ATOM     28  C   UNL     1      43.365   3.141  11.548  0.00  0.00    +0.000 C 
ATOM     29  C   UNL     1      44.622   3.318  10.710  0.00  0.00    +0.000 C 
ATOM     30  C   UNL     1      45.033   4.789  10.646  0.00  0.00    +0.000 C 
ENDBRANCH  24  25
ENDBRANCH  21  24
ENDBRANCH  17  18
ENDBRANCH   1  17
TORSDOF 6
ENDMDL
MODEL 6
REMARK VINA RESULT:    -6.148      3.494      8.327
REMARK INTER + INTRA:          -9.662
REMARK INTER:                  -8.157
REMARK INTRA:                  -1.504
REMARK UNBOUND:                -1.357
REMARK  Name = 
REMARK  7 active torsions:
REMARK  status: ('A' for Active; 'I' for Inactive)
REMARK    1  A    between atoms: C_1  and  C_2
REMARK    2  A    between atoms: C_2  and  N_3
REMARK    3  A    between atoms: N_3  and  C_4
REMARK    4  A    between atoms: C_4  and  C_5
REMARK    5  A    between atoms: C_8  and  C_9
REMARK    6  A    between atoms: C_9  and  N_10
REMARK    7  A    between atoms: C_18  and  C_20
REMARK                            x       y       z     vdW  Elec       q    Type
REMARK                         _______ _______ _______ _____ _____    ______ ____
ROOT
ATOM      1  N   UNL     1      48.602   8.310  13.552  0.00  0.00    +0.000 N 
ATOM      2  C   UNL     1      49.503   7.841  14.531  0.00  0.00    +0.000 C 
ATOM      3  O   UNL     1      50.717   7.848  14.338  0.00  0.00    +0.000 OA
ENDROOT
BRANCH   2   4
ATOM      4  C   UNL     1      48.982   7.286  15.795  0.00  0.00    +0.000 A 
ATOM      5  C   UNL     1      48.853   5.934  16.077  0.00  0.00    +0.000 A 
ATOM      6  S   UNL     1      48.311   5.608  17.664  0.00  0.00    +0.000 S 
ATOM      7  C   UNL     1      48.397   7.253  18.082  0.00  0.00    +0.000 A 
ATOM      8  N   UNL     1      48.196   7.660  19.364  0.00  0.00    +0.000 NA
ATOM      9  C   UNL     1      48.373   8.931  19.542  0.00  0.00    +0.000 A 
ATOM     10  N   UNL     1      48.681   9.827  18.548  0.00  0.00    +0.000 N 
ATOM     11  C   UNL     1      48.750   9.477  17.217  0.00  0.00    +0.000 A 
ATOM     12  O   UNL     1      48.768  10.328  16.336  0.00  0.00    +0.000 OA
ATOM     13  C   UNL     1      48.706   8.045  16.992  0.00  0.00    +0.000 A 
ATOM     14  H   UNL     1      48.727  10.817  18.744  0.00  0.00    +0.000 HD
ENDBRANCH   2   4
BRANCH   1  16
ATOM     15  C   UNL     1      49.374   7.524  11.322  0.00  0.00    +0.000 C 
ATOM     16  C   UNL     1      49.160   8.707  12.256  0.00  0.00    +0.000 C 
ENDBRANCH   1  16
BRANCH   1  17
ATOM     17  C   UNL     1      47.162   8.331  13.775  0.00  0.00    +0.000 C 
BRANCH  17  18
ATOM     18  C   UNL     1      46.249   7.305  13.156  0.00  0.00    +0.000 A 
ATOM     19  C   UNL     1      45.257   7.723  12.253  0.00  0.00    +0.000 A 
ATOM     20  C   UNL     1      44.612   6.800  11.432  0.00  0.00    +0.000 A 
ATOM     21  C   UNL     1      44.939   5.441  11.503  0.00  0.00    +0.000 A 
ATOM     22  C   UNL     1      45.854   5.013  12.477  0.00  0.00    +0.000 A 
ATOM     23  C   UNL     1      46.502   5.938  13.301  0.00  0.00    +0.000 A 
BRANCH  21  24
ATOM     24  C   UNL     1      44.327   4.462  10.522  0.00  0.00    +0.000 C 
BRANCH  24  25
ATOM     25  N   UNL     1      45.325   3.756   9.687  0.00  0.00    +0.000 NA
ATOM     26  C   UNL     1      44.875   2.396   9.338  0.00  0.00    +0.000 C 
ATOM     27  C   UNL     1      45.877   1.668   8.435  0.00  0.00    +0.000 C 
ATOM     28  C   UNL     1      46.191   2.479   7.185  0.00  0.00    +0.000 C 
ATOM     29  C   UNL     1      46.635   3.881   7.575  0.00  0.00    +0.000 C 
ATOM     30  C   UNL     1      45.600   4.550   8.479  0.00  0.00    +0.000 C 
ENDBRANCH  24  25
ENDBRANCH  21  24
ENDBRANCH  17  18
ENDBRANCH   1  17
TORSDOF 6
ENDMDL
MODEL 7
REMARK VINA RESULT:    -6.114      3.157      7.908
REMARK INTER + INTRA:          -9.615
REMARK INTER:                  -8.671
REMARK INTRA:                  -0.944
REMARK UNBOUND:                -1.357
REMARK  Name = 
REMARK  7 active torsions:
REMARK  status: ('A' for Active; 'I' for Inactive)
REMARK    1  A    between atoms: C_1  and  C_2
REMARK    2  A    between atoms: C_2  and  N_3
REMARK    3  A    between atoms: N_3  and  C_4
REMARK    4  A    between atoms: C_4  and  C_5
REMARK    5  A    between atoms: C_8  and  C_9
REMARK    6  A    between atoms: C_9  and  N_10
REMARK    7  A    between atoms: C_18  and  C_20
REMARK                            x       y       z     vdW  Elec       q    Type
REMARK                         _______ _______ _______ _____ _____    ______ ____
ROOT
ATOM      1  N   UNL     1      48.682   7.517  15.851  0.00  0.00    +0.000 N 
ATOM      2  C   UNL     1      48.363   6.989  17.120  0.00  0.00    +0.000 C 
ATOM      3  O   UNL     1      48.105   7.723  18.072  0.00  0.00    +0.000 OA
ENDROOT
BRANCH   2   4
ATOM      4  C   UNL     1      48.383   5.528  17.328  0.00  0.00    +0.000 A 
ATOM      5  C   UNL     1      47.284   4.691  17.206  0.00  0.00    +0.000 A 
ATOM      6  S   UNL     1      47.650   3.036  17.415  0.00  0.00    +0.000 S 
ATOM      7  C   UNL     1      49.314   3.366  17.503  0.00  0.00    +0.000 A 
ATOM      8  N   UNL     1      50.226   2.358  17.540  0.00  0.00    +0.000 NA
ATOM      9  C   UNL     1      51.456   2.765  17.525  0.00  0.00    +0.000 A 
ATOM     10  N   UNL     1      51.847   4.081  17.528  0.00  0.00    +0.000 N 
ATOM     11  C   UNL     1      50.957   5.127  17.636  0.00  0.00    +0.000 A 
ATOM     12  O   UNL     1      51.338   6.262  17.895  0.00  0.00    +0.000 OA
ATOM     13  C   UNL     1      49.569   4.724  17.505  0.00  0.00    +0.000 A 
ATOM     14  H   UNL     1      52.823   4.327  17.596  0.00  0.00    +0.000 HD
ENDBRANCH   2   4
BRANCH   1  16
ATOM     15  C   UNL     1      50.239   9.457  15.838  0.00  0.00    +0.000 C 
ATOM     16  C   UNL     1      48.798   8.974  15.736  0.00  0.00    +0.000 C 
ENDBRANCH   1  16
BRANCH   1  17
ATOM     17  C   UNL     1      48.967   6.660  14.707  0.00  0.00    +0.000 C 
BRANCH  17  18
ATOM     18  C   UNL     1      47.903   6.299  13.703  0.00  0.00    +0.000 A 
ATOM     19  C   UNL     1      47.332   5.015  13.738  0.00  0.00    +0.000 A 
ATOM     20  C   UNL     1      46.149   4.747  13.052  0.00  0.00    +0.000 A 
ATOM     21  C   UNL     1      45.518   5.752  12.311  0.00  0.00    +0.000 A 
ATOM     22  C   UNL     1      46.144   7.003  12.194  0.00  0.00    +0.000 A 
ATOM     23  C   UNL     1      47.330   7.274  12.882  0.00  0.00    +0.000 A 
BRANCH  21  24
ATOM     24  C   UNL     1      44.169   5.490  11.672  0.00  0.00    +0.000 C 
BRANCH  24  25
ATOM     25  N   UNL     1      44.248   4.702  10.422  0.00  0.00    +0.000 NA
ATOM     26  C   UNL     1      45.430   5.073   9.621  0.00  0.00    +0.000 C 
ATOM     27  C   UNL     1      45.552   4.233   8.345  0.00  0.00    +0.000 C 
ATOM     28  C   UNL     1      45.546   2.742   8.656  0.00  0.00    +0.000 C 
ATOM     29  C   UNL     1      44.326   2.394   9.496  0.00  0.00    +0.000 C 
ATOM     30  C   UNL     1      44.257   3.268  10.748  0.00  0.00    +0.000 C 
ENDBRANCH  24  25
ENDBRANCH  21  24
ENDBRANCH  17  18
ENDBRANCH   1  17
TORSDOF 6
ENDMDL
MODEL 8
REMARK VINA RESULT:    -6.096      3.628      8.464
REMARK INTER + INTRA:          -9.591
REMARK INTER:                  -8.167
REMARK INTRA:                  -1.424
REMARK UNBOUND:                -1.357
REMARK  Name = 
REMARK  7 active torsions:
REMARK  status: ('A' for Active; 'I' for Inactive)
REMARK    1  A    between atoms: C_1  and  C_2
REMARK    2  A    between atoms: C_2  and  N_3
REMARK    3  A    between atoms: N_3  and  C_4
REMARK    4  A    between atoms: C_4  and  C_5
REMARK    5  A    between atoms: C_8  and  C_9
REMARK    6  A    between atoms: C_9  and  N_10
REMARK    7  A    between atoms: C_18  and  C_20
REMARK                            x       y       z     vdW  Elec       q    Type
REMARK                         _______ _______ _______ _____ _____    ______ ____
ROOT
ATOM      1  N   UNL     1      49.904   7.685  15.082  0.00  0.00    +0.000 N 
ATOM      2  C   UNL     1      50.189   6.715  16.066  0.00  0.00    +0.000 C 
ATOM      3  O   UNL     1      51.332   6.299  16.242  0.00  0.00    +0.000 OA
ENDROOT
BRANCH   2   4
ATOM      4  C   UNL     1      49.090   6.149  16.873  0.00  0.00    +0.000 A 
ATOM      5  C   UNL     1      48.456   4.942  16.618  0.00  0.00    +0.000 A 
ATOM      6  S   UNL     1      47.289   4.514  17.789  0.00  0.00    +0.000 S 
ATOM      7  C   UNL     1      47.713   5.840  18.764  0.00  0.00    +0.000 A 
ATOM      8  N   UNL     1      47.183   5.991  20.008  0.00  0.00    +0.000 NA
ATOM      9  C   UNL     1      47.662   7.003  20.660  0.00  0.00    +0.000 A 
ATOM     10  N   UNL     1      48.578   7.896  20.161  0.00  0.00    +0.000 N 
ATOM     11  C   UNL     1      49.028   7.859  18.859  0.00  0.00    +0.000 A 
ATOM     12  O   UNL     1      49.635   8.805  18.370  0.00  0.00    +0.000 OA
ATOM     13  C   UNL     1      48.634   6.662  18.142  0.00  0.00    +0.000 A 
ATOM     14  H   UNL     1      48.848   8.708  20.696  0.00  0.00    +0.000 HD
ENDBRANCH   2   4
BRANCH   1  16
ATOM     15  C   UNL     1      51.006   9.600  13.939  0.00  0.00    +0.000 C 
ATOM     16  C   UNL     1      51.002   8.101  14.206  0.00  0.00    +0.000 C 
ENDBRANCH   1  16
BRANCH   1  17
ATOM     17  C   UNL     1      48.557   8.206  14.879  0.00  0.00    +0.000 C 
BRANCH  17  18
ATOM     18  C   UNL     1      47.693   7.744  13.734  0.00  0.00    +0.000 A 
ATOM     19  C   UNL     1      47.835   6.432  13.252  0.00  0.00    +0.000 A 
ATOM     20  C   UNL     1      46.862   5.871  12.427  0.00  0.00    +0.000 A 
ATOM     21  C   UNL     1      45.733   6.614  12.060  0.00  0.00    +0.000 A 
ATOM     22  C   UNL     1      45.645   7.957  12.457  0.00  0.00    +0.000 A 
ATOM     23  C   UNL     1      46.621   8.520  13.285  0.00  0.00    +0.000 A 
BRANCH  21  24
ATOM     24  C   UNL     1      44.620   5.958  11.268  0.00  0.00    +0.000 C 
BRANCH  24  25
ATOM     25  N   UNL     1      45.057   4.770  10.502  0.00  0.00    +0.000 NA
ATOM     26  C   UNL     1      44.011   3.731  10.468  0.00  0.00    +0.000 C 
ATOM     27  C   UNL     1      44.431   2.513   9.638  0.00  0.00    +0.000 C 
ATOM     28  C   UNL     1      44.849   2.914   8.230  0.00  0.00    +0.000 C 
ATOM     29  C   UNL     1      45.915   3.998   8.297  0.00  0.00    +0.000 C 
ATOM     30  C   UNL     1      45.441   5.180   9.142  0.00  0.00    +0.000 C 
ENDBRANCH  24  25
ENDBRANCH  21  24
ENDBRANCH  17  18
ENDBRANCH   1  17
TORSDOF 6
ENDMDL
MODEL 9
REMARK VINA RESULT:    -5.540      2.557      3.309
REMARK INTER + INTRA:          -8.841
REMARK INTER:                  -7.601
REMARK INTRA:                  -1.240
REMARK UNBOUND:                -1.357
REMARK  Name = 
REMARK  7 active torsions:
REMARK  status: ('A' for Active; 'I' for Inactive)
REMARK    1  A    between atoms: C_1  and  C_2
REMARK    2  A    between atoms: C_2  and  N_3
REMARK    3  A    between atoms: N_3  and  C_4
REMARK    4  A    between atoms: C_4  and  C_5
REMARK    5  A    between atoms: C_8  and  C_9
REMARK    6  A    between atoms: C_9  and  N_10
REMARK    7  A    between atoms: C_18  and  C_20
REMARK                            x       y       z     vdW  Elec       q    Type
REMARK                         _______ _______ _______ _____ _____    ______ ____
ROOT
ATOM      1  N   UNL     1      48.265   8.487  13.183  0.00  0.00    +0.000 N 
ATOM      2  C   UNL     1      47.996   7.449  12.266  0.00  0.00    +0.000 C 
ATOM      3  O   UNL     1      48.303   7.548  11.080  0.00  0.00    +0.000 OA
ENDROOT
BRANCH   2   4
ATOM      4  C   UNL     1      47.290   6.236  12.723  0.00  0.00    +0.000 A 
ATOM      5  C   UNL     1      47.861   5.217  13.472  0.00  0.00    +0.000 A 
ATOM      6  S   UNL     1      46.759   3.994  13.927  0.00  0.00    +0.000 S 
ATOM      7  C   UNL     1      45.450   4.870  13.288  0.00  0.00    +0.000 A 
ATOM      8  N   UNL     1      44.170   4.447  13.471  0.00  0.00    +0.000 NA
ATOM      9  C   UNL     1      43.280   5.259  12.997  0.00  0.00    +0.000 A 
ATOM     10  N   UNL     1      43.558   6.420  12.318  0.00  0.00    +0.000 N 
ATOM     11  C   UNL     1      44.839   6.807  11.989  0.00  0.00    +0.000 A 
ATOM     12  O   UNL     1      45.043   7.696  11.171  0.00  0.00    +0.000 OA
ATOM     13  C   UNL     1      45.868   6.008  12.626  0.00  0.00    +0.000 A 
ATOM     14  H   UNL     1      42.815   6.966  11.906  0.00  0.00    +0.000 HD
ENDBRANCH   2   4
BRANCH   1  16
ATOM     15  C   UNL     1      48.816  10.864  13.666  0.00  0.00    +0.000 C 
ATOM     16  C   UNL     1      48.827   9.730  12.649  0.00  0.00    +0.000 C 
ENDBRANCH   1  16
BRANCH   1  17
ATOM     17  C   UNL     1      47.929   8.374  14.597  0.00  0.00    +0.000 C 
BRANCH  17  18
ATOM     18  C   UNL     1      48.917   7.852  15.607  0.00  0.00    +0.000 A 
ATOM     19  C   UNL     1      48.489   7.597  16.921  0.00  0.00    +0.000 A 
ATOM     20  C   UNL     1      49.268   6.832  17.786  0.00  0.00    +0.000 A 
ATOM     21  C   UNL     1      50.497   6.314  17.358  0.00  0.00    +0.000 A 
ATOM     22  C   UNL     1      50.970   6.656  16.082  0.00  0.00    +0.000 A 
ATOM     23  C   UNL     1      50.188   7.423  15.213  0.00  0.00    +0.000 A 
BRANCH  21  24
ATOM     24  C   UNL     1      51.279   5.380  18.258  0.00  0.00    +0.000 C 
BRANCH  24  25
ATOM     25  N   UNL     1      51.562   4.063  17.645  0.00  0.00    +0.000 NA
ATOM     26  C   UNL     1      52.656   3.363  18.344  0.00  0.00    +0.000 C 
ATOM     27  C   UNL     1      52.929   1.977  17.749  0.00  0.00    +0.000 C 
ATOM     28  C   UNL     1      51.667   1.126  17.715  0.00  0.00    +0.000 C 
ATOM     29  C   UNL     1      50.553   1.880  17.005  0.00  0.00    +0.000 C 
ATOM     30  C   UNL     1      50.333   3.254  17.638  0.00  0.00    +0.000 C 
ENDBRANCH  24  25
ENDBRANCH  21  24
ENDBRANCH  17  18
ENDBRANCH   1  17
TORSDOF 6
ENDMDL
