MODEL 1
REMARK VINA RESULT:    -8.063      0.000      0.000
REMARK INTER + INTRA:         -11.738
REMARK INTER:                 -10.891
REMARK INTRA:                  -0.847
REMARK UNBOUND:                -0.847
REMARK  Name = 
REMARK  8 active torsions:
REMARK  status: ('A' for Active; 'I' for Inactive)
REMARK    1  A    between atoms: C_1  and  C_2
REMARK    2  A    between atoms: C_7  and  C_8
REMARK    3  A    between atoms: N_10  and  C_11
REMARK    4  A    between atoms: C_11  and  C_12
REMARK    5  A    between atoms: C_15  and  N_16
REMARK    6  A    between atoms: N_16  and  C_17
REMARK    7  A    between atoms: C_17  and  C_18
REMARK    8  A    between atoms: C_27  and  C_28
REMARK                            x       y       z     vdW  Elec       q    Type
REMARK                         _______ _______ _______ _____ _____    ______ ____
ROOT
ATOM      1  C   UNL     1      46.246   4.690  14.721  0.00  0.00    +0.000 C 
ENDROOT
BRANCH   1   2
ATOM      2  C   UNL     1      46.036   4.675  13.232  0.00  0.00    +0.000 A 
ATOM      3  C   UNL     1      45.485   3.556  12.593  0.00  0.00    +0.000 A 
ATOM      4  C   UNL     1      45.152   3.598  11.231  0.00  0.00    +0.000 A 
ATOM      5  C   UNL     1      45.356   4.756  10.478  0.00  0.00    +0.000 A 
ATOM      6  C   UNL     1      46.002   5.833  11.096  0.00  0.00    +0.000 A 
ATOM      7  C   UNL     1      46.327   5.803  12.457  0.00  0.00    +0.000 A 
BRANCH   5   8
ATOM      8  N   UNL     1      45.016   4.891   9.132  0.00  0.00    +0.000 N 
ATOM      9  H   UNL     1      45.739   5.396   8.623  0.00  0.00    +0.000 HD
BRANCH   8  10
ATOM     10  C   UNL     1      44.553   3.721   8.394  0.00  0.00    +0.000 C 
BRANCH  10  11
ATOM     11  C   UNL     1      45.749   2.933   7.911  0.00  0.00    +0.000 A 
ATOM     12  C   UNL     1      45.882   1.567   8.170  0.00  0.00    +0.000 A 
ATOM     13  C   UNL     1      46.986   0.898   7.660  0.00  0.00    +0.000 A 
ATOM     14  N   UNL     1      47.950   1.486   6.921  0.00  0.00    +0.000 NA
ATOM     15  C   UNL     1      47.808   2.808   6.682  0.00  0.00    +0.000 A 
ATOM     16  C   UNL     1      46.742   3.559   7.147  0.00  0.00    +0.000 A 
ENDBRANCH  10  11
ENDBRANCH   8  10
ENDBRANCH   5   8
ENDBRANCH   1   2
BRANCH   1  19
ATOM     17  C   UNL     1      47.579   3.565  16.425  0.00  0.00    +0.000 C 
ATOM     18  O   UNL     1      46.576   3.535  17.140  0.00  0.00    +0.000 OA
ATOM     19  N   UNL     1      47.495   4.092  15.141  0.00  0.00    +0.000 N 
ATOM     20  H   UNL     1      48.328   4.327  14.619  0.00  0.00    +0.000 HD
BRANCH  17  27
ATOM     21  C   UNL     1      52.241   6.236  18.941  0.00  0.00    +0.000 C 
ATOM     22  C   UNL     1      51.501   5.087  18.330  0.00  0.00    +0.000 A 
ATOM     23  S   UNL     1      52.279   3.522  18.262  0.00  0.00    +0.000 S 
ATOM     24  C   UNL     1      50.938   2.860  17.520  0.00  0.00    +0.000 A 
ATOM     25  N   UNL     1      50.628   1.610  17.060  0.00  0.00    +0.000 NA
ATOM     26  C   UNL     1      49.347   1.765  16.601  0.00  0.00    +0.000 C 
ATOM     27  C   UNL     1      48.900   3.105  16.744  0.00  0.00    +0.000 C 
ATOM     28  C   UNL     1      49.977   3.782  17.357  0.00  0.00    +0.000 A 
ATOM     29  C   UNL     1      50.212   5.092  17.772  0.00  0.00    +0.000 A 
ATOM     30  C   UNL     1      49.366   6.313  17.686  0.00  0.00    +0.000 C 
ENDBRANCH  17  27
ENDBRANCH   1  19
TORSDOF 6
ENDMDL
MODEL 2
REMARK VINA RESULT:    -7.990      2.242      2.890
REMARK INTER + INTRA:         -11.640
REMARK INTER:                 -10.645
REMARK INTRA:                  -0.995
REMARK UNBOUND:                -0.847
REMARK  Name = 
REMARK  8 active torsions:
REMARK  status: ('A' for Active; 'I' for Inactive)
REMARK    1  A    between atoms: C_1  and  C_2
REMARK    2  A    between atoms: C_7  and  C_8
REMARK    3  A    between atoms: N_10  and  C_11
REMARK    4  A    between atoms: C_11  and  C_12
REMARK    5  A    between atoms: C_15  and  N_16
REMARK    6  A    between atoms: N_16  and  C_17
REMARK    7  A    between atoms: C_17  and  C_18
REMARK    8  A    between atoms: C_27  and  C_28
REMARK                            x       y       z     vdW  Elec       q    Type
REMARK                         _______ _______ _______ _____ _____    ______ ____
ROOT
ATOM      1  C   UNL     1      47.754   6.584  13.799  0.00  0.00    +0.000 C 
ENDROOT
BRANCH   1   2
ATOM      2  C   UNL     1      46.744   5.916  12.907  0.00  0.00    +0.000 A 
ATOM      3  C   UNL     1      46.341   6.511  11.704  0.00  0.00    +0.000 A 
ATOM      4  C   UNL     1      45.515   5.820  10.803  0.00  0.00    +0.000 A 
ATOM      5  C   UNL     1      45.078   4.523  11.080  0.00  0.00    +0.000 A 
ATOM      6  C   UNL     1      45.399   3.978  12.329  0.00  0.00    +0.000 A 
ATOM      7  C   UNL     1      46.231   4.655  13.227  0.00  0.00    +0.000 A 
BRANCH   5   8
ATOM      8  N   UNL     1      44.290   3.758  10.221  0.00  0.00    +0.000 N 
ATOM      9  H   UNL     1      43.320   3.742  10.534  0.00  0.00    +0.000 HD
BRANCH   8  10
ATOM     10  C   UNL     1      44.390   3.971   8.781  0.00  0.00    +0.000 C 
BRANCH  10  11
ATOM     11  C   UNL     1      45.497   3.104   8.227  0.00  0.00    +0.000 A 
ATOM     12  C   UNL     1      45.582   1.742   8.524  0.00  0.00    +0.000 A 
ATOM     13  C   UNL     1      46.602   0.997   7.947  0.00  0.00    +0.000 A 
ATOM     14  N   UNL     1      47.527   1.508   7.107  0.00  0.00    +0.000 NA
ATOM     15  C   UNL     1      47.432   2.828   6.833  0.00  0.00    +0.000 A 
ATOM     16  C   UNL     1      46.451   3.650   7.359  0.00  0.00    +0.000 A 
ENDBRANCH  10  11
ENDBRANCH   8  10
ENDBRANCH   5   8
ENDBRANCH   1   2
BRANCH   1  19
ATOM     17  C   UNL     1      48.882   6.128  15.912  0.00  0.00    +0.000 C 
ATOM     18  O   UNL     1      49.917   6.576  15.418  0.00  0.00    +0.000 OA
ATOM     19  N   UNL     1      47.703   6.139  15.175  0.00  0.00    +0.000 N 
ATOM     20  H   UNL     1      46.903   5.591  15.463  0.00  0.00    +0.000 HD
BRANCH  17  27
ATOM     21  C   UNL     1      47.305   8.507  21.114  0.00  0.00    +0.000 C 
ATOM     22  C   UNL     1      47.693   7.394  20.192  0.00  0.00    +0.000 A 
ATOM     23  S   UNL     1      47.715   5.756  20.809  0.00  0.00    +0.000 S 
ATOM     24  C   UNL     1      48.198   5.176  19.319  0.00  0.00    +0.000 A 
ATOM     25  N   UNL     1      48.487   3.931  18.834  0.00  0.00    +0.000 NA
ATOM     26  C   UNL     1      48.777   4.177  17.519  0.00  0.00    +0.000 C 
ATOM     27  C   UNL     1      48.705   5.563  17.220  0.00  0.00    +0.000 C 
ATOM     28  C   UNL     1      48.315   6.175  18.431  0.00  0.00    +0.000 A 
ATOM     29  C   UNL     1      48.066   7.484  18.841  0.00  0.00    +0.000 A 
ATOM     30  C   UNL     1      48.152   8.774  18.104  0.00  0.00    +0.000 C 
ENDBRANCH  17  27
ENDBRANCH   1  19
TORSDOF 6
ENDMDL
MODEL 3
REMARK VINA RESULT:    -7.824      2.429      3.274
REMARK INTER + INTRA:         -11.416
REMARK INTER:                 -10.550
REMARK INTRA:                  -0.866
REMARK UNBOUND:                -0.847
REMARK  Name = 
REMARK  8 active torsions:
REMARK  status: ('A' for Active; 'I' for Inactive)
REMARK    1  A    between atoms: C_1  and  C_2
REMARK    2  A    between atoms: C_7  and  C_8
REMARK    3  A    between atoms: N_10  and  C_11
REMARK    4  A    between atoms: C_11  and  C_12
REMARK    5  A    between atoms: C_15  and  N_16
REMARK    6  A    between atoms: N_16  and  C_17
REMARK    7  A    between atoms: C_17  and  C_18
REMARK    8  A    between atoms: C_27  and  C_28
REMARK                            x       y       z     vdW  Elec       q    Type
REMARK                         _______ _______ _______ _____ _____    ______ ____
ROOT
ATOM      1  C   UNL     1      46.867   4.470  14.508  0.00  0.00    +0.000 C 
ENDROOT
BRANCH   1   2
ATOM      2  C   UNL     1      46.250   4.680  13.152  0.00  0.00    +0.000 A 
ATOM      3  C   UNL     1      46.516   5.839  12.412  0.00  0.00    +0.000 A 
ATOM      4  C   UNL     1      46.062   5.967  11.090  0.00  0.00    +0.000 A 
ATOM      5  C   UNL     1      45.339   4.941  10.478  0.00  0.00    +0.000 A 
ATOM      6  C   UNL     1      44.987   3.833  11.258  0.00  0.00    +0.000 A 
ATOM      7  C   UNL     1      45.446   3.693  12.573  0.00  0.00    +0.000 A 
BRANCH   5   8
ATOM      8  N   UNL     1      44.887   4.975   9.159  0.00  0.00    +0.000 N 
ATOM      9  H   UNL     1      45.529   5.500   8.567  0.00  0.00    +0.000 HD
BRANCH   8  10
ATOM     10  C   UNL     1      44.455   3.736   8.521  0.00  0.00    +0.000 C 
BRANCH  10  11
ATOM     11  C   UNL     1      45.668   2.993   8.009  0.00  0.00    +0.000 A 
ATOM     12  C   UNL     1      45.863   1.635   8.270  0.00  0.00    +0.000 A 
ATOM     13  C   UNL     1      46.978   1.007   7.733  0.00  0.00    +0.000 A 
ATOM     14  N   UNL     1      47.897   1.629   6.965  0.00  0.00    +0.000 NA
ATOM     15  C   UNL     1      47.696   2.943   6.724  0.00  0.00    +0.000 A 
ATOM     16  C   UNL     1      46.614   3.654   7.215  0.00  0.00    +0.000 A 
ENDBRANCH  10  11
ENDBRANCH   8  10
ENDBRANCH   5   8
ENDBRANCH   1   2
BRANCH   1  19
ATOM     17  C   UNL     1      48.398   5.497  16.104  0.00  0.00    +0.000 C 
ATOM     18  O   UNL     1      48.693   4.367  16.496  0.00  0.00    +0.000 OA
ATOM     19  N   UNL     1      47.506   5.650  15.048  0.00  0.00    +0.000 N 
ATOM     20  H   UNL     1      47.082   6.547  14.850  0.00  0.00    +0.000 HD
BRANCH  17  27
ATOM     21  C   UNL     1      47.618   8.266  21.293  0.00  0.00    +0.000 C 
ATOM     22  C   UNL     1      48.170   8.101  19.912  0.00  0.00    +0.000 A 
ATOM     23  S   UNL     1      49.290   9.299  19.301  0.00  0.00    +0.000 S 
ATOM     24  C   UNL     1      49.420   8.476  17.854  0.00  0.00    +0.000 A 
ATOM     25  N   UNL     1      50.117   8.693  16.698  0.00  0.00    +0.000 NA
ATOM     26  C   UNL     1      49.790   7.602  15.938  0.00  0.00    +0.000 C 
ATOM     27  C   UNL     1      48.871   6.754  16.609  0.00  0.00    +0.000 C 
ATOM     28  C   UNL     1      48.664   7.367  17.865  0.00  0.00    +0.000 A 
ATOM     29  C   UNL     1      47.897   7.076  18.991  0.00  0.00    +0.000 A 
ATOM     30  C   UNL     1      46.951   5.961  19.271  0.00  0.00    +0.000 C 
ENDBRANCH  17  27
ENDBRANCH   1  19
TORSDOF 6
ENDMDL
MODEL 4
REMARK VINA RESULT:    -7.758      1.376      2.489
REMARK INTER + INTRA:         -11.327
REMARK INTER:                 -10.442
REMARK INTRA:                  -0.885
REMARK UNBOUND:                -0.847
REMARK  Name = 
REMARK  8 active torsions:
REMARK  status: ('A' for Active; 'I' for Inactive)
REMARK    1  A    between atoms: C_1  and  C_2
REMARK    2  A    between atoms: C_7  and  C_8
REMARK    3  A    between atoms: N_10  and  C_11
REMARK    4  A    between atoms: C_11  and  C_12
REMARK    5  A    between atoms: C_15  and  N_16
REMARK    6  A    between atoms: N_16  and  C_17
REMARK    7  A    between atoms: C_17  and  C_18
REMARK    8  A    between atoms: C_27  and  C_28
REMARK                            x       y       z     vdW  Elec       q    Type
REMARK                         _______ _______ _______ _____ _____    ______ ____
ROOT
ATOM      1  C   UNL     1      46.324   4.380  14.709  0.00  0.00    +0.000 C 
ENDROOT
BRANCH   1   2
ATOM      2  C   UNL     1      45.951   4.652  13.278  0.00  0.00    +0.000 A 
ATOM      3  C   UNL     1      46.411   5.800  12.619  0.00  0.00    +0.000 A 
ATOM      4  C   UNL     1      46.187   5.978  11.245  0.00  0.00    +0.000 A 
ATOM      5  C   UNL     1      45.505   5.015  10.499  0.00  0.00    +0.000 A 
ATOM      6  C   UNL     1      44.958   3.923  11.184  0.00  0.00    +0.000 A 
ATOM      7  C   UNL     1      45.187   3.733  12.551  0.00  0.00    +0.000 A 
BRANCH   5   8
ATOM      8  N   UNL     1      45.277   5.099   9.125  0.00  0.00    +0.000 N 
ATOM      9  H   UNL     1      46.101   5.451   8.640  0.00  0.00    +0.000 HD
BRANCH   8  10
ATOM     10  C   UNL     1      44.685   3.962   8.430  0.00  0.00    +0.000 C 
BRANCH  10  11
ATOM     11  C   UNL     1      45.788   3.084   7.885  0.00  0.00    +0.000 A 
ATOM     12  C   UNL     1      46.788   3.593   7.053  0.00  0.00    +0.000 A 
ATOM     13  C   UNL     1      47.794   2.739   6.622  0.00  0.00    +0.000 A 
ATOM     14  N   UNL     1      47.872   1.434   6.960  0.00  0.00    +0.000 NA
ATOM     15  C   UNL     1      46.895   0.957   7.762  0.00  0.00    +0.000 A 
ATOM     16  C   UNL     1      45.853   1.731   8.242  0.00  0.00    +0.000 A 
ENDBRANCH  10  11
ENDBRANCH   8  10
ENDBRANCH   5   8
ENDBRANCH   1   2
BRANCH   1  19
ATOM     17  C   UNL     1      47.878   5.005  16.482  0.00  0.00    +0.000 C 
ATOM     18  O   UNL     1      47.208   4.325  17.261  0.00  0.00    +0.000 OA
ATOM     19  N   UNL     1      47.532   5.052  15.135  0.00  0.00    +0.000 N 
ATOM     20  H   UNL     1      47.919   5.757  14.523  0.00  0.00    +0.000 HD
BRANCH  17  27
ATOM     21  C   UNL     1      53.414   3.577  18.067  0.00  0.00    +0.000 C 
ATOM     22  C   UNL     1      52.304   4.514  17.707  0.00  0.00    +0.000 A 
ATOM     23  S   UNL     1      52.646   6.226  17.598  0.00  0.00    +0.000 S 
ATOM     24  C   UNL     1      51.056   6.543  17.196  0.00  0.00    +0.000 A 
ATOM     25  N   UNL     1      50.358   7.685  16.916  0.00  0.00    +0.000 NA
ATOM     26  C   UNL     1      49.105   7.211  16.632  0.00  0.00    +0.000 C 
ATOM     27  C   UNL     1      49.033   5.801  16.780  0.00  0.00    +0.000 C 
ATOM     28  C   UNL     1      50.341   5.409  17.144  0.00  0.00    +0.000 A 
ATOM     29  C   UNL     1      50.961   4.197  17.440  0.00  0.00    +0.000 A 
ATOM     30  C   UNL     1      50.424   2.810  17.502  0.00  0.00    +0.000 C 
ENDBRANCH  17  27
ENDBRANCH   1  19
TORSDOF 6
ENDMDL
MODEL 5
REMARK VINA RESULT:    -7.602      3.789      5.360
REMARK INTER + INTRA:         -11.116
REMARK INTER:                 -10.002
REMARK INTRA:                  -1.114
REMARK UNBOUND:                -0.847
REMARK  Name = 
REMARK  8 active torsions:
REMARK  status: ('A' for Active; 'I' for Inactive)
REMARK    1  A    between atoms: C_1  and  C_2
REMARK    2  A    between atoms: C_7  and  C_8
REMARK    3  A    between atoms: N_10  and  C_11
REMARK    4  A    between atoms: C_11  and  C_12
REMARK    5  A    between atoms: C_15  and  N_16
REMARK    6  A    between atoms: N_16  and  C_17
REMARK    7  A    between atoms: C_17  and  C_18
REMARK    8  A    between atoms: C_27  and  C_28
REMARK                            x       y       z     vdW  Elec       q    Type
REMARK                         _______ _______ _______ _____ _____    ______ ____
ROOT
ATOM      1  C   UNL     1      47.286   5.483  14.325  0.00  0.00    +0.000 C 
ENDROOT
BRANCH   1   2
ATOM      2  C   UNL     1      46.418   5.039  13.179  0.00  0.00    +0.000 A 
ATOM      3  C   UNL     1      46.208   5.870  12.071  0.00  0.00    +0.000 A 
ATOM      4  C   UNL     1      45.523   5.399  10.940  0.00  0.00    +0.000 A 
ATOM      5  C   UNL     1      45.039   4.090  10.888  0.00  0.00    +0.000 A 
ATOM      6  C   UNL     1      45.161   3.302  12.038  0.00  0.00    +0.000 A 
ATOM      7  C   UNL     1      45.853   3.760  13.165  0.00  0.00    +0.000 A 
BRANCH   5   8
ATOM      8  N   UNL     1      44.385   3.536   9.788  0.00  0.00    +0.000 N 
ATOM      9  H   UNL     1      43.376   3.532   9.929  0.00  0.00    +0.000 HD
BRANCH   8  10
ATOM     10  C   UNL     1      44.741   3.984   8.446  0.00  0.00    +0.000 C 
BRANCH  10  11
ATOM     11  C   UNL     1      45.799   3.064   7.881  0.00  0.00    +0.000 A 
ATOM     12  C   UNL     1      46.772   3.522   6.990  0.00  0.00    +0.000 A 
ATOM     13  C   UNL     1      47.738   2.631   6.543  0.00  0.00    +0.000 A 
ATOM     14  N   UNL     1      47.801   1.336   6.918  0.00  0.00    +0.000 NA
ATOM     15  C   UNL     1      46.851   0.908   7.778  0.00  0.00    +0.000 A 
ATOM     16  C   UNL     1      45.849   1.721   8.279  0.00  0.00    +0.000 A 
ENDBRANCH  10  11
ENDBRANCH   8  10
ENDBRANCH   5   8
ENDBRANCH   1   2
BRANCH   1  19
ATOM     17  C   UNL     1      48.832   7.311  14.788  0.00  0.00    +0.000 C 
ATOM     18  O   UNL     1      49.669   6.472  15.123  0.00  0.00    +0.000 OA
ATOM     19  N   UNL     1      47.593   6.897  14.312  0.00  0.00    +0.000 N 
ATOM     20  H   UNL     1      46.821   7.545  14.237  0.00  0.00    +0.000 HD
BRANCH  17  27
ATOM     21  C   UNL     1      49.145  11.385  10.486  0.00  0.00    +0.000 C 
ATOM     22  C   UNL     1      49.097  10.909  11.904  0.00  0.00    +0.000 A 
ATOM     23  S   UNL     1      49.068  12.093  13.192  0.00  0.00    +0.000 S 
ATOM     24  C   UNL     1      49.021  10.881  14.339  0.00  0.00    +0.000 A 
ATOM     25  N   UNL     1      48.986  10.868  15.706  0.00  0.00    +0.000 NA
ATOM     26  C   UNL     1      48.921   9.532  15.995  0.00  0.00    +0.000 C 
ATOM     27  C   UNL     1      48.959   8.740  14.817  0.00  0.00    +0.000 C 
ATOM     28  C   UNL     1      49.018   9.671  13.757  0.00  0.00    +0.000 A 
ATOM     29  C   UNL     1      49.079   9.583  12.368  0.00  0.00    +0.000 A 
ATOM     30  C   UNL     1      49.129   8.403  11.462  0.00  0.00    +0.000 C 
ENDBRANCH  17  27
ENDBRANCH   1  19
TORSDOF 6
ENDMDL
MODEL 6
REMARK VINA RESULT:    -7.597      2.635      3.716
REMARK INTER + INTRA:         -11.109
REMARK INTER:                 -10.132
REMARK INTRA:                  -0.977
REMARK UNBOUND:                -0.847
REMARK  Name = 
REMARK  8 active torsions:
REMARK  status: ('A' for Active; 'I' for Inactive)
REMARK    1  A    between atoms: C_1  and  C_2
REMARK    2  A    between atoms: C_7  and  C_8
REMARK    3  A    between atoms: N_10  and  C_11
REMARK    4  A    between atoms: C_11  and  C_12
REMARK    5  A    between atoms: C_15  and  N_16
REMARK    6  A    between atoms: N_16  and  C_17
REMARK    7  A    between atoms: C_17  and  C_18
REMARK    8  A    between atoms: C_27  and  C_28
REMARK                            x       y       z     vdW  Elec       q    Type
REMARK                         _______ _______ _______ _____ _____    ______ ____
ROOT
ATOM      1  C   UNL     1      46.753   4.419  14.578  0.00  0.00    +0.000 C 
ENDROOT
BRANCH   1   2
ATOM      2  C   UNL     1      46.190   4.617  13.197  0.00  0.00    +0.000 A 
ATOM      3  C   UNL     1      46.430   5.800  12.484  0.00  0.00    +0.000 A 
ATOM      4  C   UNL     1      46.033   5.924  11.144  0.00  0.00    +0.000 A 
ATOM      5  C   UNL     1      45.394   4.871  10.485  0.00  0.00    +0.000 A 
ATOM      6  C   UNL     1      45.065   3.735  11.233  0.00  0.00    +0.000 A 
ATOM      7  C   UNL     1      45.468   3.599  12.567  0.00  0.00    +0.000 A 
BRANCH   5   8
ATOM      8  N   UNL     1      45.004   4.902   9.146  0.00  0.00    +0.000 N 
ATOM      9  H   UNL     1      45.697   5.383   8.576  0.00  0.00    +0.000 HD
BRANCH   8  10
ATOM     10  C   UNL     1      44.539   3.674   8.511  0.00  0.00    +0.000 C 
BRANCH  10  11
ATOM     11  C   UNL     1      45.724   2.936   7.931  0.00  0.00    +0.000 A 
ATOM     12  C   UNL     1      46.690   3.587   7.161  0.00  0.00    +0.000 A 
ATOM     13  C   UNL     1      47.774   2.857   6.695  0.00  0.00    +0.000 A 
ATOM     14  N   UNL     1      47.960   1.542   6.941  0.00  0.00    +0.000 NA
ATOM     15  C   UNL     1      47.015   0.927   7.684  0.00  0.00    +0.000 A 
ATOM     16  C   UNL     1      45.900   1.571   8.194  0.00  0.00    +0.000 A 
ENDBRANCH  10  11
ENDBRANCH   8  10
ENDBRANCH   5   8
ENDBRANCH   1   2
BRANCH   1  19
ATOM     17  C   UNL     1      48.362   5.468  16.080  0.00  0.00    +0.000 C 
ATOM     18  O   UNL     1      48.802   4.347  16.336  0.00  0.00    +0.000 OA
ATOM     19  N   UNL     1      47.342   5.612  15.145  0.00  0.00    +0.000 N 
ATOM     20  H   UNL     1      46.819   6.474  15.074  0.00  0.00    +0.000 HD
BRANCH  17  27
ATOM     21  C   UNL     1      50.480  10.432  13.615  0.00  0.00    +0.000 C 
ATOM     22  C   UNL     1      50.016   9.569  14.746  0.00  0.00    +0.000 A 
ATOM     23  S   UNL     1      49.948  10.252  16.356  0.00  0.00    +0.000 S 
ATOM     24  C   UNL     1      49.392   8.803  16.973  0.00  0.00    +0.000 A 
ATOM     25  N   UNL     1      49.049   8.374  18.225  0.00  0.00    +0.000 NA
ATOM     26  C   UNL     1      48.642   7.086  18.004  0.00  0.00    +0.000 C 
ATOM     27  C   UNL     1      48.776   6.724  16.638  0.00  0.00    +0.000 C 
ATOM     28  C   UNL     1      49.266   7.886  16.002  0.00  0.00    +0.000 A 
ATOM     29  C   UNL     1      49.616   8.223  14.696  0.00  0.00    +0.000 A 
ATOM     30  C   UNL     1      49.620   7.419  13.443  0.00  0.00    +0.000 C 
ENDBRANCH  17  27
ENDBRANCH   1  19
TORSDOF 6
ENDMDL
MODEL 7
REMARK VINA RESULT:    -7.417      2.782      3.755
REMARK INTER + INTRA:         -10.866
REMARK INTER:                  -9.802
REMARK INTRA:                  -1.064
REMARK UNBOUND:                -0.847
REMARK  Name = 
REMARK  8 active torsions:
REMARK  status: ('A' for Active; 'I' for Inactive)
REMARK    1  A    between atoms: C_1  and  C_2
REMARK    2  A    between atoms: C_7  and  C_8
REMARK    3  A    between atoms: N_10  and  C_11
REMARK    4  A    between atoms: C_11  and  C_12
REMARK    5  A    between atoms: C_15  and  N_16
REMARK    6  A    between atoms: N_16  and  C_17
REMARK    7  A    between atoms: C_17  and  C_18
REMARK    8  A    between atoms: C_27  and  C_28
REMARK                            x       y       z     vdW  Elec       q    Type
REMARK                         _______ _______ _______ _____ _____    ______ ____
ROOT
ATOM      1  C   UNL     1      47.460   4.147  15.267  0.00  0.00    +0.000 C 
ENDROOT
BRANCH   1   2
ATOM      2  C   UNL     1      46.731   4.630  14.043  0.00  0.00    +0.000 A 
ATOM      3  C   UNL     1      47.203   5.726  13.309  0.00  0.00    +0.000 A 
ATOM      4  C   UNL     1      46.610   6.082  12.088  0.00  0.00    +0.000 A 
ATOM      5  C   UNL     1      45.540   5.351  11.571  0.00  0.00    +0.000 A 
ATOM      6  C   UNL     1      45.008   4.323  12.359  0.00  0.00    +0.000 A 
ATOM      7  C   UNL     1      45.600   3.955  13.572  0.00  0.00    +0.000 A 
BRANCH   5   8
ATOM      8  N   UNL     1      44.922   5.616  10.348  0.00  0.00    +0.000 N 
ATOM      9  H   UNL     1      45.568   6.072   9.706  0.00  0.00    +0.000 HD
BRANCH   8  10
ATOM     10  C   UNL     1      44.161   4.560   9.690  0.00  0.00    +0.000 C 
BRANCH  10  11
ATOM     11  C   UNL     1      45.109   3.672   8.918  0.00  0.00    +0.000 A 
ATOM     12  C   UNL     1      45.143   2.289   9.112  0.00  0.00    +0.000 A 
ATOM     13  C   UNL     1      46.010   1.530   8.339  0.00  0.00    +0.000 A 
ATOM     14  N   UNL     1      46.831   2.045   7.399  0.00  0.00    +0.000 NA
ATOM     15  C   UNL     1      46.788   3.384   7.227  0.00  0.00    +0.000 A 
ATOM     16  C   UNL     1      45.957   4.223   7.949  0.00  0.00    +0.000 A 
ENDBRANCH  10  11
ENDBRANCH   8  10
ENDBRANCH   5   8
ENDBRANCH   1   2
BRANCH   1  19
ATOM     17  C   UNL     1      48.425   5.657  16.921  0.00  0.00    +0.000 C 
ATOM     18  O   UNL     1      49.501   5.560  16.331  0.00  0.00    +0.000 OA
ATOM     19  N   UNL     1      47.301   5.008  16.419  0.00  0.00    +0.000 N 
ATOM     20  H   UNL     1      46.472   4.889  16.985  0.00  0.00    +0.000 HD
BRANCH  17  27
ATOM     21  C   UNL     1      47.779  11.452  18.016  0.00  0.00    +0.000 C 
ATOM     22  C   UNL     1      47.802   9.998  18.369  0.00  0.00    +0.000 A 
ATOM     23  S   UNL     1      47.382   9.518  19.999  0.00  0.00    +0.000 S 
ATOM     24  C   UNL     1      47.626   7.912  19.615  0.00  0.00    +0.000 A 
ATOM     25  N   UNL     1      47.532   6.743  20.319  0.00  0.00    +0.000 NA
ATOM     26  C   UNL     1      47.831   5.796  19.376  0.00  0.00    +0.000 C 
ATOM     27  C   UNL     1      48.144   6.388  18.124  0.00  0.00    +0.000 C 
ATOM     28  C   UNL     1      47.988   7.776  18.330  0.00  0.00    +0.000 A 
ATOM     29  C   UNL     1      48.135   8.914  17.539  0.00  0.00    +0.000 A 
ATOM     30  C   UNL     1      48.556   9.074  16.121  0.00  0.00    +0.000 C 
ENDBRANCH  17  27
ENDBRANCH   1  19
TORSDOF 6
ENDMDL
MODEL 8
REMARK VINA RESULT:    -6.910      3.422      4.551
REMARK INTER + INTRA:         -10.181
REMARK INTER:                  -9.174
REMARK INTRA:                  -1.006
REMARK UNBOUND:                -0.847
REMARK  Name = 
REMARK  8 active torsions:
REMARK  status: ('A' for Active; 'I' for Inactive)
REMARK    1  A    between atoms: C_1  and  C_2
REMARK    2  A    between atoms: C_7  and  C_8
REMARK    3  A    between atoms: N_10  and  C_11
REMARK    4  A    between atoms: C_11  and  C_12
REMARK    5  A    between atoms: C_15  and  N_16
REMARK    6  A    between atoms: N_16  and  C_17
REMARK    7  A    between atoms: C_17  and  C_18
REMARK    8  A    between atoms: C_27  and  C_28
REMARK                            x       y       z     vdW  Elec       q    Type
REMARK                         _______ _______ _______ _____ _____    ______ ____
ROOT
ATOM      1  C   UNL     1      47.713   5.767  14.539  0.00  0.00    +0.000 C 
ENDROOT
BRANCH   1   2
ATOM      2  C   UNL     1      46.930   5.487  13.286  0.00  0.00    +0.000 A 
ATOM      3  C   UNL     1      46.042   4.405  13.218  0.00  0.00    +0.000 A 
ATOM      4  C   UNL     1      45.203   4.233  12.106  0.00  0.00    +0.000 A 
ATOM      5  C   UNL     1      45.228   5.137  11.042  0.00  0.00    +0.000 A 
ATOM      6  C   UNL     1      46.191   6.153  11.070  0.00  0.00    +0.000 A 
ATOM      7  C   UNL     1      47.022   6.339  12.180  0.00  0.00    +0.000 A 
BRANCH   5   8
ATOM      8  N   UNL     1      44.402   5.058   9.921  0.00  0.00    +0.000 N 
ATOM      9  H   UNL     1      44.750   5.651   9.170  0.00  0.00    +0.000 HD
BRANCH   8  10
ATOM     10  C   UNL     1      43.991   3.747   9.430  0.00  0.00    +0.000 C 
BRANCH  10  11
ATOM     11  C   UNL     1      45.128   3.133   8.647  0.00  0.00    +0.000 A 
ATOM     12  C   UNL     1      45.473   1.786   8.785  0.00  0.00    +0.000 A 
ATOM     13  C   UNL     1      46.501   1.278   8.004  0.00  0.00    +0.000 A 
ATOM     14  N   UNL     1      47.198   2.008   7.106  0.00  0.00    +0.000 NA
ATOM     15  C   UNL     1      46.855   3.309   6.987  0.00  0.00    +0.000 A 
ATOM     16  C   UNL     1      45.843   3.904   7.722  0.00  0.00    +0.000 A 
ENDBRANCH  10  11
ENDBRANCH   8  10
ENDBRANCH   5   8
ENDBRANCH   1   2
BRANCH   1  19
ATOM     17  C   UNL     1      49.024   7.688  15.272  0.00  0.00    +0.000 C 
ATOM     18  O   UNL     1      50.026   6.972  15.242  0.00  0.00    +0.000 OA
ATOM     19  N   UNL     1      47.795   7.171  14.875  0.00  0.00    +0.000 N 
ATOM     20  H   UNL     1      46.933   7.654  15.091  0.00  0.00    +0.000 HD
BRANCH  17  27
ATOM     21  C   UNL     1      47.452  10.247  20.388  0.00  0.00    +0.000 C 
ATOM     22  C   UNL     1      47.931  10.229  18.971  0.00  0.00    +0.000 A 
ATOM     23  S   UNL     1      48.380  11.740  18.211  0.00  0.00    +0.000 S 
ATOM     24  C   UNL     1      48.762  10.943  16.794  0.00  0.00    +0.000 A 
ATOM     25  N   UNL     1      49.221  11.347  15.572  0.00  0.00    +0.000 NA
ATOM     26  C   UNL     1      49.352  10.167  14.891  0.00  0.00    +0.000 C 
ATOM     27  C   UNL     1      48.936   9.061  15.678  0.00  0.00    +0.000 C 
ATOM     28  C   UNL     1      48.564   9.621  16.920  0.00  0.00    +0.000 A 
ATOM     29  C   UNL     1      48.072   9.117  18.123  0.00  0.00    +0.000 A 
ATOM     30  C   UNL     1      47.723   7.730  18.534  0.00  0.00    +0.000 C 
ENDBRANCH  17  27
ENDBRANCH   1  19
TORSDOF 6
ENDMDL
MODEL 9
REMARK VINA RESULT:    -6.863      3.206      4.381
REMARK INTER + INTRA:         -10.117
REMARK INTER:                  -9.292
REMARK INTRA:                  -0.825
REMARK UNBOUND:                -0.847
REMARK  Name = 
REMARK  8 active torsions:
REMARK  status: ('A' for Active; 'I' for Inactive)
REMARK    1  A    between atoms: C_1  and  C_2
REMARK    2  A    between atoms: C_7  and  C_8
REMARK    3  A    between atoms: N_10  and  C_11
REMARK    4  A    between atoms: C_11  and  C_12
REMARK    5  A    between atoms: C_15  and  N_16
REMARK    6  A    between atoms: N_16  and  C_17
REMARK    7  A    between atoms: C_17  and  C_18
REMARK    8  A    between atoms: C_27  and  C_28
REMARK                            x       y       z     vdW  Elec       q    Type
REMARK                         _______ _______ _______ _____ _____    ______ ____
ROOT
ATOM      1  C   UNL     1      47.627   8.805  13.712  0.00  0.00    +0.000 C 
ENDROOT
BRANCH   1   2
ATOM      2  C   UNL     1      46.641   7.981  12.930  0.00  0.00    +0.000 A 
ATOM      3  C   UNL     1      45.541   8.579  12.301  0.00  0.00    +0.000 A 
ATOM      4  C   UNL     1      44.707   7.835  11.451  0.00  0.00    +0.000 A 
ATOM      5  C   UNL     1      44.956   6.483  11.206  0.00  0.00    +0.000 A 
ATOM      6  C   UNL     1      45.993   5.869  11.919  0.00  0.00    +0.000 A 
ATOM      7  C   UNL     1      46.835   6.606  12.759  0.00  0.00    +0.000 A 
BRANCH   5   8
ATOM      8  N   UNL     1      44.200   5.687  10.347  0.00  0.00    +0.000 N 
ATOM      9  H   UNL     1      44.379   5.930   9.374  0.00  0.00    +0.000 HD
BRANCH   8  10
ATOM     10  C   UNL     1      44.178   4.242  10.548  0.00  0.00    +0.000 C 
BRANCH  10  11
ATOM     11  C   UNL     1      44.997   3.578   9.465  0.00  0.00    +0.000 A 
ATOM     12  C   UNL     1      45.159   2.192   9.412  0.00  0.00    +0.000 A 
ATOM     13  C   UNL     1      45.890   1.646   8.366  0.00  0.00    +0.000 A 
ATOM     14  N   UNL     1      46.460   2.375   7.383  0.00  0.00    +0.000 NA
ATOM     15  C   UNL     1      46.297   3.714   7.451  0.00  0.00    +0.000 A 
ATOM     16  C   UNL     1      45.584   4.349   8.454  0.00  0.00    +0.000 A 
ENDBRANCH  10  11
ENDBRANCH   8  10
ENDBRANCH   5   8
ENDBRANCH   1   2
BRANCH   1  19
ATOM     17  C   UNL     1      48.418   9.191  15.986  0.00  0.00    +0.000 C 
ATOM     18  O   UNL     1      49.478   9.602  15.510  0.00  0.00    +0.000 OA
ATOM     19  N   UNL     1      47.384   8.808  15.138  0.00  0.00    +0.000 N 
ATOM     20  H   UNL     1      46.600   8.272  15.483  0.00  0.00    +0.000 HD
BRANCH  17  27
ATOM     21  C   UNL     1      48.676   4.568  19.694  0.00  0.00    +0.000 C 
ATOM     22  C   UNL     1      48.408   5.990  19.315  0.00  0.00    +0.000 A 
ATOM     23  S   UNL     1      47.908   7.116  20.558  0.00  0.00    +0.000 S 
ATOM     24  C   UNL     1      47.823   8.352  19.438  0.00  0.00    +0.000 A 
ATOM     25  N   UNL     1      47.488   9.676  19.510  0.00  0.00    +0.000 NA
ATOM     26  C   UNL     1      47.672  10.105  18.223  0.00  0.00    +0.000 C 
ATOM     27  C   UNL     1      48.075   9.043  17.371  0.00  0.00    +0.000 C 
ATOM     28  C   UNL     1      48.166   7.916  18.217  0.00  0.00    +0.000 A 
ATOM     29  C   UNL     1      48.499   6.574  18.040  0.00  0.00    +0.000 A 
ATOM     30  C   UNL     1      48.875   5.810  16.820  0.00  0.00    +0.000 C 
ENDBRANCH  17  27
ENDBRANCH   1  19
TORSDOF 6
ENDMDL
