MODEL 1
REMARK VINA RESULT:    -8.192      0.000      0.000
REMARK INTER + INTRA:         -12.089
REMARK INTER:                 -11.065
REMARK INTRA:                  -1.024
REMARK UNBOUND:                -1.024
REMARK  Name = 
REMARK  6 active torsions:
REMARK  status: ('A' for Active; 'I' for Inactive)
REMARK    1  A    between atoms: C_2  and  C_4
REMARK    2  A    between atoms: C_8  and  O_9
REMARK    3  A    between atoms: O_9  and  C_10
REMARK    4  A    between atoms: C_10  and  C_11
REMARK    5  A    between atoms: C_11  and  C_12
REMARK    6  A    between atoms: C_16  and  C_17
REMARK                            x       y       z     vdW  Elec       q    Type
REMARK                         _______ _______ _______ _____ _____    ______ ____
ROOT
ATOM      1  C   UNL     1      43.195   4.254  11.157  0.00  0.00    +0.000 C 
ENDROOT
BRANCH   1   2
ATOM      2  O   UNL     1      43.568   2.992  10.601  0.00  0.00    +0.000 OA
BRANCH   2   7
ATOM      3  C   UNL     1      46.148   2.153   8.071  0.00  0.00    +0.000 A 
ATOM      4  C   UNL     1      46.302   3.434   7.560  0.00  0.00    +0.000 A 
ATOM      5  N   UNL     1      45.589   4.502   7.991  0.00  0.00    +0.000 NA
ATOM      6  C   UNL     1      44.703   4.273   8.992  0.00  0.00    +0.000 A 
ATOM      7  C   UNL     1      44.492   3.033   9.591  0.00  0.00    +0.000 A 
ATOM      8  C   UNL     1      45.236   1.955   9.113  0.00  0.00    +0.000 A 
BRANCH   3  10
ATOM      9  N   UNL     1      47.995   1.410   6.680  0.00  0.00    +0.000 N 
ATOM     10  C   UNL     1      46.965   1.056   7.511  0.00  0.00    +0.000 C 
ATOM     11  O   UNL     1      46.757  -0.111   7.806  0.00  0.00    +0.000 OA
ATOM     12  H   UNL     1      48.610   0.660   6.390  0.00  0.00    +0.000 HD
ATOM     13  H   UNL     1      48.352   2.352   6.624  0.00  0.00    +0.000 HD
ENDBRANCH   3  10
ENDBRANCH   2   7
ENDBRANCH   1   2
BRANCH   1  14
ATOM     14  C   UNL     1      43.461   4.259  12.663  0.00  0.00    +0.000 C 
BRANCH  14  15
ATOM     15  C   UNL     1      44.756   4.977  12.956  0.00  0.00    +0.000 A 
ATOM     16  C   UNL     1      45.908   4.260  13.294  0.00  0.00    +0.000 A 
ATOM     17  C   UNL     1      47.122   4.923  13.449  0.00  0.00    +0.000 A 
ATOM     18  C   UNL     1      47.198   6.302  13.247  0.00  0.00    +0.000 A 
ATOM     19  C   UNL     1      46.070   7.053  12.873  0.00  0.00    +0.000 A 
ATOM     20  C   UNL     1      44.846   6.366  12.765  0.00  0.00    +0.000 A 
BRANCH  19  21
ATOM     21  C   UNL     1      46.179   8.482  12.499  0.00  0.00    +0.000 A 
ATOM     22  C   UNL     1      47.439   9.108  12.425  0.00  0.00    +0.000 A 
ATOM     23  C   UNL     1      47.578  10.424  11.982  0.00  0.00    +0.000 A 
ATOM     24  C   UNL     1      46.458  11.148  11.591  0.00  0.00    +0.000 A 
ATOM     25  C   UNL     1      45.198  10.563  11.667  0.00  0.00    +0.000 A 
ATOM     26  C   UNL     1      45.061   9.248  12.126  0.00  0.00    +0.000 A 
ENDBRANCH  19  21
ENDBRANCH  14  15
ENDBRANCH   1  14
TORSDOF 6
ENDMDL
MODEL 2
REMARK VINA RESULT:    -7.990      2.066      4.093
REMARK INTER + INTRA:         -11.816
REMARK INTER:                 -10.861
REMARK INTRA:                  -0.956
REMARK UNBOUND:                -1.024
REMARK  Name = 
REMARK  6 active torsions:
REMARK  status: ('A' for Active; 'I' for Inactive)
REMARK    1  A    between atoms: C_2  and  C_4
REMARK    2  A    between atoms: C_8  and  O_9
REMARK    3  A    between atoms: O_9  and  C_10
REMARK    4  A    between atoms: C_10  and  C_11
REMARK    5  A    between atoms: C_11  and  C_12
REMARK    6  A    between atoms: C_16  and  C_17
REMARK                            x       y       z     vdW  Elec       q    Type
REMARK                         _______ _______ _______ _____ _____    ______ ____
ROOT
ATOM      1  C   UNL     1      43.437   4.437  11.131  0.00  0.00    +0.000 C 
ENDROOT
BRANCH   1   2
ATOM      2  O   UNL     1      43.593   3.187  10.456  0.00  0.00    +0.000 OA
BRANCH   2   7
ATOM      3  C   UNL     1      46.187   2.148   8.017  0.00  0.00    +0.000 A 
ATOM      4  C   UNL     1      46.425   3.407   7.481  0.00  0.00    +0.000 A 
ATOM      5  N   UNL     1      45.761   4.521   7.869  0.00  0.00    +0.000 NA
ATOM      6  C   UNL     1      44.838   4.365   8.851  0.00  0.00    +0.000 A 
ATOM      7  C   UNL     1      44.543   3.153   9.471  0.00  0.00    +0.000 A 
ATOM      8  C   UNL     1      45.239   2.025   9.038  0.00  0.00    +0.000 A 
BRANCH   3  10
ATOM      9  N   UNL     1      47.992   1.269   6.650  0.00  0.00    +0.000 N 
ATOM     10  C   UNL     1      46.956   0.995   7.504  0.00  0.00    +0.000 C 
ATOM     11  O   UNL     1      46.706  -0.148   7.855  0.00  0.00    +0.000 OA
ATOM     12  H   UNL     1      48.576   0.483   6.393  0.00  0.00    +0.000 HD
ATOM     13  H   UNL     1      48.385   2.193   6.548  0.00  0.00    +0.000 HD
ENDBRANCH   3  10
ENDBRANCH   2   7
ENDBRANCH   1   2
BRANCH   1  14
ATOM     14  C   UNL     1      43.771   4.274  12.615  0.00  0.00    +0.000 C 
BRANCH  14  15
ATOM     15  C   UNL     1      45.164   4.786  12.889  0.00  0.00    +0.000 A 
ATOM     16  C   UNL     1      45.728   5.781  12.086  0.00  0.00    +0.000 A 
ATOM     17  C   UNL     1      46.965   6.327  12.416  0.00  0.00    +0.000 A 
ATOM     18  C   UNL     1      47.637   5.896  13.562  0.00  0.00    +0.000 A 
ATOM     19  C   UNL     1      47.087   4.923  14.413  0.00  0.00    +0.000 A 
ATOM     20  C   UNL     1      45.855   4.357  14.033  0.00  0.00    +0.000 A 
BRANCH  19  21
ATOM     21  C   UNL     1      47.715   4.584  15.712  0.00  0.00    +0.000 A 
ATOM     22  C   UNL     1      48.305   5.588  16.505  0.00  0.00    +0.000 A 
ATOM     23  C   UNL     1      48.817   5.313  17.774  0.00  0.00    +0.000 A 
ATOM     24  C   UNL     1      48.745   4.024  18.288  0.00  0.00    +0.000 A 
ATOM     25  C   UNL     1      48.182   3.007  17.523  0.00  0.00    +0.000 A 
ATOM     26  C   UNL     1      47.683   3.283  16.245  0.00  0.00    +0.000 A 
ENDBRANCH  19  21
ENDBRANCH  14  15
ENDBRANCH   1  14
TORSDOF 6
ENDMDL
MODEL 3
REMARK VINA RESULT:    -7.606      1.414      2.541
REMARK INTER + INTRA:         -11.298
REMARK INTER:                 -10.325
REMARK INTRA:                  -0.973
REMARK UNBOUND:                -1.024
REMARK  Name = 
REMARK  6 active torsions:
REMARK  status: ('A' for Active; 'I' for Inactive)
REMARK    1  A    between atoms: C_2  and  C_4
REMARK    2  A    between atoms: C_8  and  O_9
REMARK    3  A    between atoms: O_9  and  C_10
REMARK    4  A    between atoms: C_10  and  C_11
REMARK    5  A    between atoms: C_11  and  C_12
REMARK    6  A    between atoms: C_16  and  C_17
REMARK                            x       y       z     vdW  Elec       q    Type
REMARK                         _______ _______ _______ _____ _____    ______ ____
ROOT
ATOM      1  C   UNL     1      44.188   2.968  11.908  0.00  0.00    +0.000 C 
ENDROOT
BRANCH   1   2
ATOM      2  O   UNL     1      43.640   3.047  10.590  0.00  0.00    +0.000 OA
BRANCH   2   7
ATOM      3  C   UNL     1      46.170   2.121   8.041  0.00  0.00    +0.000 A 
ATOM      4  C   UNL     1      46.323   3.387   7.491  0.00  0.00    +0.000 A 
ATOM      5  N   UNL     1      45.624   4.470   7.905  0.00  0.00    +0.000 NA
ATOM      6  C   UNL     1      44.754   4.275   8.927  0.00  0.00    +0.000 A 
ATOM      7  C   UNL     1      44.546   3.054   9.564  0.00  0.00    +0.000 A 
ATOM      8  C   UNL     1      45.275   1.958   9.104  0.00  0.00    +0.000 A 
BRANCH   3  10
ATOM      9  N   UNL     1      47.984   1.327   6.634  0.00  0.00    +0.000 N 
ATOM     10  C   UNL     1      46.971   1.003   7.498  0.00  0.00    +0.000 C 
ATOM     11  O   UNL     1      46.765  -0.153   7.833  0.00  0.00    +0.000 OA
ATOM     12  H   UNL     1      48.591   0.565   6.356  0.00  0.00    +0.000 HD
ATOM     13  H   UNL     1      48.344   2.265   6.542  0.00  0.00    +0.000 HD
ENDBRANCH   3  10
ENDBRANCH   2   7
ENDBRANCH   1   2
BRANCH   1  14
ATOM     14  C   UNL     1      43.700   4.149  12.747  0.00  0.00    +0.000 C 
BRANCH  14  15
ATOM     15  C   UNL     1      44.397   5.415  12.313  0.00  0.00    +0.000 A 
ATOM     16  C   UNL     1      43.680   6.453  11.711  0.00  0.00    +0.000 A 
ATOM     17  C   UNL     1      44.311   7.659  11.419  0.00  0.00    +0.000 A 
ATOM     18  C   UNL     1      45.656   7.843  11.745  0.00  0.00    +0.000 A 
ATOM     19  C   UNL     1      46.401   6.835  12.382  0.00  0.00    +0.000 A 
ATOM     20  C   UNL     1      45.752   5.611  12.627  0.00  0.00    +0.000 A 
BRANCH  19  21
ATOM     21  C   UNL     1      47.776   7.084  12.877  0.00  0.00    +0.000 A 
ATOM     22  C   UNL     1      48.751   7.645  12.029  0.00  0.00    +0.000 A 
ATOM     23  C   UNL     1      50.023   7.979  12.496  0.00  0.00    +0.000 A 
ATOM     24  C   UNL     1      50.352   7.766  13.830  0.00  0.00    +0.000 A 
ATOM     25  C   UNL     1      49.415   7.199  14.689  0.00  0.00    +0.000 A 
ATOM     26  C   UNL     1      48.146   6.852  14.213  0.00  0.00    +0.000 A 
ENDBRANCH  19  21
ENDBRANCH  14  15
ENDBRANCH   1  14
TORSDOF 6
ENDMDL
MODEL 4
REMARK VINA RESULT:    -7.523      3.158      6.612
REMARK INTER + INTRA:         -11.185
REMARK INTER:                  -9.962
REMARK INTRA:                  -1.223
REMARK UNBOUND:                -1.024
REMARK  Name = 
REMARK  6 active torsions:
REMARK  status: ('A' for Active; 'I' for Inactive)
REMARK    1  A    between atoms: C_2  and  C_4
REMARK    2  A    between atoms: C_8  and  O_9
REMARK    3  A    between atoms: O_9  and  C_10
REMARK    4  A    between atoms: C_10  and  C_11
REMARK    5  A    between atoms: C_11  and  C_12
REMARK    6  A    between atoms: C_16  and  C_17
REMARK                            x       y       z     vdW  Elec       q    Type
REMARK                         _______ _______ _______ _____ _____    ______ ____
ROOT
ATOM      1  C   UNL     1      44.412   7.446  11.063  0.00  0.00    +0.000 C 
ENDROOT
BRANCH   1   2
ATOM      2  O   UNL     1      44.799   7.905  12.359  0.00  0.00    +0.000 OA
BRANCH   2   7
ATOM      3  C   UNL     1      47.093   5.431  13.900  0.00  0.00    +0.000 A 
ATOM      4  C   UNL     1      48.175   6.285  14.060  0.00  0.00    +0.000 A 
ATOM      5  N   UNL     1      48.170   7.580  13.664  0.00  0.00    +0.000 NA
ATOM      6  C   UNL     1      47.021   8.038  13.106  0.00  0.00    +0.000 A 
ATOM      7  C   UNL     1      45.872   7.271  12.925  0.00  0.00    +0.000 A 
ATOM      8  C   UNL     1      45.919   5.939  13.334  0.00  0.00    +0.000 A 
BRANCH   3  10
ATOM      9  N   UNL     1      46.681   3.065  13.535  0.00  0.00    +0.000 N 
ATOM     10  C   UNL     1      47.215   4.028  14.350  0.00  0.00    +0.000 C 
ATOM     11  O   UNL     1      47.799   3.736  15.382  0.00  0.00    +0.000 OA
ATOM     12  H   UNL     1      46.865   2.106  13.800  0.00  0.00    +0.000 HD
ATOM     13  H   UNL     1      46.431   3.242  12.573  0.00  0.00    +0.000 HD
ENDBRANCH   3  10
ENDBRANCH   2   7
ENDBRANCH   1   2
BRANCH   1  14
ATOM     14  C   UNL     1      43.172   6.557  11.174  0.00  0.00    +0.000 C 
BRANCH  14  15
ATOM     15  C   UNL     1      43.566   5.105  11.059  0.00  0.00    +0.000 A 
ATOM     16  C   UNL     1      42.975   4.139  11.879  0.00  0.00    +0.000 A 
ATOM     17  C   UNL     1      43.262   2.791  11.686  0.00  0.00    +0.000 A 
ATOM     18  C   UNL     1      44.124   2.397  10.661  0.00  0.00    +0.000 A 
ATOM     19  C   UNL     1      44.710   3.335   9.794  0.00  0.00    +0.000 A 
ATOM     20  C   UNL     1      44.439   4.694  10.037  0.00  0.00    +0.000 A 
BRANCH  19  21
ATOM     21  C   UNL     1      45.490   2.912   8.608  0.00  0.00    +0.000 A 
ATOM     22  C   UNL     1      45.787   3.831   7.581  0.00  0.00    +0.000 A 
ATOM     23  C   UNL     1      46.601   3.485   6.502  0.00  0.00    +0.000 A 
ATOM     24  C   UNL     1      47.148   2.210   6.423  0.00  0.00    +0.000 A 
ATOM     25  C   UNL     1      46.861   1.275   7.413  0.00  0.00    +0.000 A 
ATOM     26  C   UNL     1      46.033   1.621   8.487  0.00  0.00    +0.000 A 
ENDBRANCH  19  21
ENDBRANCH  14  15
ENDBRANCH   1  14
TORSDOF 6
ENDMDL
MODEL 5
REMARK VINA RESULT:    -7.298      2.972      7.312
REMARK INTER + INTRA:         -10.881
REMARK INTER:                 -10.333
REMARK INTRA:                  -0.548
REMARK UNBOUND:                -1.024
REMARK  Name = 
REMARK  6 active torsions:
REMARK  status: ('A' for Active; 'I' for Inactive)
REMARK    1  A    between atoms: C_2  and  C_4
REMARK    2  A    between atoms: C_8  and  O_9
REMARK    3  A    between atoms: O_9  and  C_10
REMARK    4  A    between atoms: C_10  and  C_11
REMARK    5  A    between atoms: C_11  and  C_12
REMARK    6  A    between atoms: C_16  and  C_17
REMARK                            x       y       z     vdW  Elec       q    Type
REMARK                         _______ _______ _______ _____ _____    ______ ____
ROOT
ATOM      1  C   UNL     1      43.404   4.021  12.297  0.00  0.00    +0.000 C 
ENDROOT
BRANCH   1   2
ATOM      2  O   UNL     1      44.294   3.805  13.394  0.00  0.00    +0.000 OA
BRANCH   2   7
ATOM      3  C   UNL     1      46.637   6.673  13.187  0.00  0.00    +0.000 A 
ATOM      4  C   UNL     1      47.766   5.997  13.630  0.00  0.00    +0.000 A 
ATOM      5  N   UNL     1      47.760   4.695  14.001  0.00  0.00    +0.000 NA
ATOM      6  C   UNL     1      46.575   4.043  13.901  0.00  0.00    +0.000 A 
ATOM      7  C   UNL     1      45.392   4.621  13.445  0.00  0.00    +0.000 A 
ATOM      8  C   UNL     1      45.434   5.966  13.082  0.00  0.00    +0.000 A 
BRANCH   3  10
ATOM      9  N   UNL     1      46.255   9.011  13.723  0.00  0.00    +0.000 N 
ATOM     10  C   UNL     1      46.753   8.102  12.827  0.00  0.00    +0.000 C 
ATOM     11  O   UNL     1      47.303   8.459  11.796  0.00  0.00    +0.000 OA
ATOM     12  H   UNL     1      46.437   9.985  13.515  0.00  0.00    +0.000 HD
ATOM     13  H   UNL     1      46.038   8.772  14.679  0.00  0.00    +0.000 HD
ENDBRANCH   3  10
ENDBRANCH   2   7
ENDBRANCH   1   2
BRANCH   1  14
ATOM     14  C   UNL     1      43.688   3.008  11.187  0.00  0.00    +0.000 C 
BRANCH  14  15
ATOM     15  C   UNL     1      44.511   3.652  10.099  0.00  0.00    +0.000 A 
ATOM     16  C   UNL     1      44.933   4.980  10.216  0.00  0.00    +0.000 A 
ATOM     17  C   UNL     1      45.786   5.527   9.262  0.00  0.00    +0.000 A 
ATOM     18  C   UNL     1      46.239   4.746   8.197  0.00  0.00    +0.000 A 
ATOM     19  C   UNL     1      45.865   3.398   8.064  0.00  0.00    +0.000 A 
ATOM     20  C   UNL     1      44.968   2.882   9.017  0.00  0.00    +0.000 A 
BRANCH  19  21
ATOM     21  C   UNL     1      46.471   2.523   7.033  0.00  0.00    +0.000 A 
ATOM     22  C   UNL     1      46.791   1.183   7.329  0.00  0.00    +0.000 A 
ATOM     23  C   UNL     1      47.272   0.312   6.351  0.00  0.00    +0.000 A 
ATOM     24  C   UNL     1      47.440   0.756   5.045  0.00  0.00    +0.000 A 
ATOM     25  C   UNL     1      47.148   2.079   4.724  0.00  0.00    +0.000 A 
ATOM     26  C   UNL     1      46.679   2.954   5.711  0.00  0.00    +0.000 A 
ENDBRANCH  19  21
ENDBRANCH  14  15
ENDBRANCH   1  14
TORSDOF 6
ENDMDL
MODEL 6
REMARK VINA RESULT:    -7.184      3.812      7.136
REMARK INTER + INTRA:         -10.727
REMARK INTER:                  -9.684
REMARK INTRA:                  -1.043
REMARK UNBOUND:                -1.024
REMARK  Name = 
REMARK  6 active torsions:
REMARK  status: ('A' for Active; 'I' for Inactive)
REMARK    1  A    between atoms: C_2  and  C_4
REMARK    2  A    between atoms: C_8  and  O_9
REMARK    3  A    between atoms: O_9  and  C_10
REMARK    4  A    between atoms: C_10  and  C_11
REMARK    5  A    between atoms: C_11  and  C_12
REMARK    6  A    between atoms: C_16  and  C_17
REMARK                            x       y       z     vdW  Elec       q    Type
REMARK                         _______ _______ _______ _____ _____    ______ ____
ROOT
ATOM      1  C   UNL     1      45.811   7.924  12.725  0.00  0.00    +0.000 C 
ENDROOT
BRANCH   1   2
ATOM      2  O   UNL     1      47.070   7.259  12.600  0.00  0.00    +0.000 OA
BRANCH   2   7
ATOM      3  C   UNL     1      47.899   5.019  15.438  0.00  0.00    +0.000 A 
ATOM      4  C   UNL     1      48.726   5.905  16.113  0.00  0.00    +0.000 A 
ATOM      5  N   UNL     1      49.020   7.146  15.659  0.00  0.00    +0.000 NA
ATOM      6  C   UNL     1      48.440   7.516  14.490  0.00  0.00    +0.000 A 
ATOM      7  C   UNL     1      47.576   6.713  13.749  0.00  0.00    +0.000 A 
ATOM      8  C   UNL     1      47.305   5.437  14.242  0.00  0.00    +0.000 A 
BRANCH   3  10
ATOM      9  N   UNL     1      47.251   3.629  17.322  0.00  0.00    +0.000 N 
ATOM     10  C   UNL     1      47.662   3.679  16.016  0.00  0.00    +0.000 C 
ATOM     11  O   UNL     1      47.788   2.663  15.350  0.00  0.00    +0.000 OA
ATOM     12  H   UNL     1      46.989   2.716  17.672  0.00  0.00    +0.000 HD
ATOM     13  H   UNL     1      46.891   4.435  17.811  0.00  0.00    +0.000 HD
ENDBRANCH   3  10
ENDBRANCH   2   7
ENDBRANCH   1   2
BRANCH   1  14
ATOM     14  C   UNL     1      45.008   7.768  11.433  0.00  0.00    +0.000 C 
BRANCH  14  15
ATOM     15  C   UNL     1      44.576   6.333  11.265  0.00  0.00    +0.000 A 
ATOM     16  C   UNL     1      43.425   5.856  11.899  0.00  0.00    +0.000 A 
ATOM     17  C   UNL     1      42.973   4.564  11.646  0.00  0.00    +0.000 A 
ATOM     18  C   UNL     1      43.655   3.748  10.742  0.00  0.00    +0.000 A 
ATOM     19  C   UNL     1      44.796   4.203  10.059  0.00  0.00    +0.000 A 
ATOM     20  C   UNL     1      45.257   5.497  10.365  0.00  0.00    +0.000 A 
BRANCH  19  21
ATOM     21  C   UNL     1      45.424   3.403   8.981  0.00  0.00    +0.000 A 
ATOM     22  C   UNL     1      46.045   4.039   7.887  0.00  0.00    +0.000 A 
ATOM     23  C   UNL     1      46.728   3.313   6.909  0.00  0.00    +0.000 A 
ATOM     24  C   UNL     1      46.814   1.930   7.004  0.00  0.00    +0.000 A 
ATOM     25  C   UNL     1      46.198   1.271   8.064  0.00  0.00    +0.000 A 
ATOM     26  C   UNL     1      45.502   2.000   9.035  0.00  0.00    +0.000 A 
ENDBRANCH  19  21
ENDBRANCH  14  15
ENDBRANCH   1  14
TORSDOF 6
ENDMDL
MODEL 7
REMARK VINA RESULT:    -7.086      3.104      7.365
REMARK INTER + INTRA:         -10.595
REMARK INTER:                  -9.447
REMARK INTRA:                  -1.148
REMARK UNBOUND:                -1.024
REMARK  Name = 
REMARK  6 active torsions:
REMARK  status: ('A' for Active; 'I' for Inactive)
REMARK    1  A    between atoms: C_2  and  C_4
REMARK    2  A    between atoms: C_8  and  O_9
REMARK    3  A    between atoms: O_9  and  C_10
REMARK    4  A    between atoms: C_10  and  C_11
REMARK    5  A    between atoms: C_11  and  C_12
REMARK    6  A    between atoms: C_16  and  C_17
REMARK                            x       y       z     vdW  Elec       q    Type
REMARK                         _______ _______ _______ _____ _____    ______ ____
ROOT
ATOM      1  C   UNL     1      46.006   4.752  13.695  0.00  0.00    +0.000 C 
ENDROOT
BRANCH   1   2
ATOM      2  O   UNL     1      47.331   5.101  13.291  0.00  0.00    +0.000 OA
BRANCH   2   7
ATOM      3  C   UNL     1      46.877   8.652  12.321  0.00  0.00    +0.000 A 
ATOM      4  C   UNL     1      48.223   8.958  12.176  0.00  0.00    +0.000 A 
ATOM      5  N   UNL     1      49.220   8.072  12.408  0.00  0.00    +0.000 NA
ATOM      6  C   UNL     1      48.844   6.822  12.778  0.00  0.00    +0.000 A 
ATOM      7  C   UNL     1      47.523   6.407  12.927  0.00  0.00    +0.000 A 
ATOM      8  C   UNL     1      46.524   7.350  12.690  0.00  0.00    +0.000 A 
BRANCH   3  10
ATOM      9  N   UNL     1      44.717   9.656  12.798  0.00  0.00    +0.000 N 
ATOM     10  C   UNL     1      45.871   9.704  12.061  0.00  0.00    +0.000 C 
ATOM     11  O   UNL     1      46.074  10.598  11.254  0.00  0.00    +0.000 OA
ATOM     12  H   UNL     1      44.087  10.441  12.688  0.00  0.00    +0.000 HD
ATOM     13  H   UNL     1      44.629   9.103  13.638  0.00  0.00    +0.000 HD
ENDBRANCH   3  10
ENDBRANCH   2   7
ENDBRANCH   1   2
BRANCH   1  14
ATOM     14  C   UNL     1      45.595   3.428  13.051  0.00  0.00    +0.000 C 
BRANCH  14  15
ATOM     15  C   UNL     1      45.033   3.676  11.673  0.00  0.00    +0.000 A 
ATOM     16  C   UNL     1      44.076   4.674  11.463  0.00  0.00    +0.000 A 
ATOM     17  C   UNL     1      43.649   4.971  10.172  0.00  0.00    +0.000 A 
ATOM     18  C   UNL     1      44.190   4.289   9.081  0.00  0.00    +0.000 A 
ATOM     19  C   UNL     1      45.179   3.303   9.248  0.00  0.00    +0.000 A 
ATOM     20  C   UNL     1      45.561   2.992  10.566  0.00  0.00    +0.000 A 
BRANCH  19  21
ATOM     21  C   UNL     1      45.871   2.696   8.088  0.00  0.00    +0.000 A 
ATOM     22  C   UNL     1      46.121   3.453   6.926  0.00  0.00    +0.000 A 
ATOM     23  C   UNL     1      46.856   2.936   5.858  0.00  0.00    +0.000 A 
ATOM     24  C   UNL     1      47.368   1.646   5.927  0.00  0.00    +0.000 A 
ATOM     25  C   UNL     1      47.126   0.867   7.055  0.00  0.00    +0.000 A 
ATOM     26  C   UNL     1      46.376   1.384   8.118  0.00  0.00    +0.000 A 
ENDBRANCH  19  21
ENDBRANCH  14  15
ENDBRANCH   1  14
TORSDOF 6
ENDMDL
MODEL 8
REMARK VINA RESULT:    -7.074      3.664      7.457
REMARK INTER + INTRA:         -10.580
REMARK INTER:                 -10.016
REMARK INTRA:                  -0.563
REMARK UNBOUND:                -1.024
REMARK  Name = 
REMARK  6 active torsions:
REMARK  status: ('A' for Active; 'I' for Inactive)
REMARK    1  A    between atoms: C_2  and  C_4
REMARK    2  A    between atoms: C_8  and  O_9
REMARK    3  A    between atoms: O_9  and  C_10
REMARK    4  A    between atoms: C_10  and  C_11
REMARK    5  A    between atoms: C_11  and  C_12
REMARK    6  A    between atoms: C_16  and  C_17
REMARK                            x       y       z     vdW  Elec       q    Type
REMARK                         _______ _______ _______ _____ _____    ______ ____
ROOT
ATOM      1  C   UNL     1      45.679   6.793  12.159  0.00  0.00    +0.000 C 
ENDROOT
BRANCH   1   2
ATOM      2  O   UNL     1      46.331   5.577  12.529  0.00  0.00    +0.000 OA
BRANCH   2   7
ATOM      3  C   UNL     1      47.856   4.844  15.830  0.00  0.00    +0.000 A 
ATOM      4  C   UNL     1      48.631   5.994  15.914  0.00  0.00    +0.000 A 
ATOM      5  N   UNL     1      48.677   6.936  14.942  0.00  0.00    +0.000 NA
ATOM      6  C   UNL     1      47.895   6.722  13.854  0.00  0.00    +0.000 A 
ATOM      7  C   UNL     1      47.063   5.617  13.685  0.00  0.00    +0.000 A 
ATOM      8  C   UNL     1      47.051   4.663  14.701  0.00  0.00    +0.000 A 
BRANCH   3  10
ATOM      9  N   UNL     1      46.759   3.144  17.173  0.00  0.00    +0.000 N 
ATOM     10  C   UNL     1      47.897   3.871  16.941  0.00  0.00    +0.000 C 
ATOM     11  O   UNL     1      48.911   3.693  17.599  0.00  0.00    +0.000 OA
ATOM     12  H   UNL     1      46.835   2.407  17.864  0.00  0.00    +0.000 HD
ATOM     13  H   UNL     1      46.010   3.075  16.501  0.00  0.00    +0.000 HD
ENDBRANCH   3  10
ENDBRANCH   2   7
ENDBRANCH   1   2
BRANCH   1  14
ATOM     14  C   UNL     1      44.639   6.517  11.072  0.00  0.00    +0.000 C 
BRANCH  14  15
ATOM     15  C   UNL     1      44.611   5.044  10.747  0.00  0.00    +0.000 A 
ATOM     16  C   UNL     1      43.700   4.192  11.377  0.00  0.00    +0.000 A 
ATOM     17  C   UNL     1      43.606   2.859  10.987  0.00  0.00    +0.000 A 
ATOM     18  C   UNL     1      44.407   2.374   9.951  0.00  0.00    +0.000 A 
ATOM     19  C   UNL     1      45.311   3.208   9.270  0.00  0.00    +0.000 A 
ATOM     20  C   UNL     1      45.417   4.540   9.713  0.00  0.00    +0.000 A 
BRANCH  19  21
ATOM     21  C   UNL     1      46.040   2.742   8.067  0.00  0.00    +0.000 A 
ATOM     22  C   UNL     1      46.517   1.419   7.988  0.00  0.00    +0.000 A 
ATOM     23  C   UNL     1      47.120   0.926   6.829  0.00  0.00    +0.000 A 
ATOM     24  C   UNL     1      47.256   1.744   5.714  0.00  0.00    +0.000 A 
ATOM     25  C   UNL     1      46.809   3.061   5.767  0.00  0.00    +0.000 A 
ATOM     26  C   UNL     1      46.218   3.556   6.935  0.00  0.00    +0.000 A 
ENDBRANCH  19  21
ENDBRANCH  14  15
ENDBRANCH   1  14
TORSDOF 6
ENDMDL
MODEL 9
REMARK VINA RESULT:    -6.800      4.168      7.412
REMARK INTER + INTRA:         -10.209
REMARK INTER:                  -9.047
REMARK INTRA:                  -1.162
REMARK UNBOUND:                -1.024
REMARK  Name = 
REMARK  6 active torsions:
REMARK  status: ('A' for Active; 'I' for Inactive)
REMARK    1  A    between atoms: C_2  and  C_4
REMARK    2  A    between atoms: C_8  and  O_9
REMARK    3  A    between atoms: O_9  and  C_10
REMARK    4  A    between atoms: C_10  and  C_11
REMARK    5  A    between atoms: C_11  and  C_12
REMARK    6  A    between atoms: C_16  and  C_17
REMARK                            x       y       z     vdW  Elec       q    Type
REMARK                         _______ _______ _______ _____ _____    ______ ____
ROOT
ATOM      1  C   UNL     1      49.583   7.414  13.316  0.00  0.00    +0.000 C 
ENDROOT
BRANCH   1   2
ATOM      2  O   UNL     1      49.225   7.981  14.578  0.00  0.00    +0.000 OA
BRANCH   2   7
ATOM      3  C   UNL     1      48.041   4.994  16.432  0.00  0.00    +0.000 A 
ATOM      4  C   UNL     1      48.103   5.552  17.702  0.00  0.00    +0.000 A 
ATOM      5  N   UNL     1      48.532   6.813  17.944  0.00  0.00    +0.000 NA
ATOM      6  C   UNL     1      48.891   7.548  16.862  0.00  0.00    +0.000 A 
ATOM      7  C   UNL     1      48.841   7.092  15.547  0.00  0.00    +0.000 A 
ATOM      8  C   UNL     1      48.404   5.785  15.337  0.00  0.00    +0.000 A 
BRANCH   3  10
ATOM      9  N   UNL     1      46.944   3.037  17.364  0.00  0.00    +0.000 N 
ATOM     10  C   UNL     1      47.576   3.599  16.285  0.00  0.00    +0.000 C 
ATOM     11  O   UNL     1      47.713   2.986  15.238  0.00  0.00    +0.000 OA
ATOM     12  H   UNL     1      46.537   2.123  17.213  0.00  0.00    +0.000 HD
ATOM     13  H   UNL     1      46.588   3.585  18.133  0.00  0.00    +0.000 HD
ENDBRANCH   3  10
ENDBRANCH   2   7
ENDBRANCH   1   2
BRANCH   1  14
ATOM     14  C   UNL     1      48.950   8.223  12.183  0.00  0.00    +0.000 C 
BRANCH  14  15
ATOM     15  C   UNL     1      47.476   7.914  12.090  0.00  0.00    +0.000 A 
ATOM     16  C   UNL     1      46.523   8.870  12.452  0.00  0.00    +0.000 A 
ATOM     17  C   UNL     1      45.169   8.616  12.254  0.00  0.00    +0.000 A 
ATOM     18  C   UNL     1      44.760   7.414  11.673  0.00  0.00    +0.000 A 
ATOM     19  C   UNL     1      45.689   6.442  11.264  0.00  0.00    +0.000 A 
ATOM     20  C   UNL     1      47.049   6.706  11.515  0.00  0.00    +0.000 A 
BRANCH  19  21
ATOM     21  C   UNL     1      45.272   5.243  10.500  0.00  0.00    +0.000 A 
ATOM     22  C   UNL     1      45.641   5.091   9.149  0.00  0.00    +0.000 A 
ATOM     23  C   UNL     1      45.345   3.928   8.435  0.00  0.00    +0.000 A 
ATOM     24  C   UNL     1      44.675   2.882   9.058  0.00  0.00    +0.000 A 
ATOM     25  C   UNL     1      44.283   3.009  10.387  0.00  0.00    +0.000 A 
ATOM     26  C   UNL     1      44.569   4.181  11.096  0.00  0.00    +0.000 A 
ENDBRANCH  19  21
ENDBRANCH  14  15
ENDBRANCH   1  14
TORSDOF 6
ENDMDL
