MODEL 1
REMARK VINA RESULT:    -8.306      0.000      0.000
REMARK INTER + INTRA:         -11.745
REMARK INTER:                 -10.734
REMARK INTRA:                  -1.011
REMARK UNBOUND:                -1.011
REMARK  Name = 
REMARK  5 active torsions:
REMARK  status: ('A' for Active; 'I' for Inactive)
REMARK    1  A    between atoms: C_2  and  C_18
REMARK    2  A    between atoms: N_3  and  C_4
REMARK    3  A    between atoms: C_4  and  C_5
REMARK    4  A    between atoms: C_8  and  C_9
REMARK    5  A    between atoms: C_9  and  C_10
REMARK                            x       y       z     vdW  Elec       q    Type
REMARK                         _______ _______ _______ _____ _____    ______ ____
ROOT
ATOM      1  O   UNL     1      44.850   3.107  12.589  0.00  0.00    +0.000 OA
ATOM      2  C   UNL     1      45.224   4.045  11.891  0.00  0.00    +0.000 C 
ATOM      3  N   UNL     1      44.996   4.101  10.537  0.00  0.00    +0.000 N 
ATOM      4  H   UNL     1      45.495   4.789   9.988  0.00  0.00    +0.000 HD
ENDROOT
BRANCH   2   5
ATOM      5  C   UNL     1      45.886   5.218  12.473  0.00  0.00    +0.000 A 
ATOM      6  C   UNL     1      47.038   5.061  13.231  0.00  0.00    +0.000 A 
ATOM      7  S   UNL     1      47.638   6.524  13.874  0.00  0.00    +0.000 S 
ATOM      8  C   UNL     1      46.409   7.426  13.114  0.00  0.00    +0.000 A 
ATOM      9  N   UNL     1      46.349   8.778  13.247  0.00  0.00    +0.000 NA
ATOM     10  C   UNL     1      45.397   9.338  12.579  0.00  0.00    +0.000 A 
ATOM     11  N   UNL     1      44.497   8.667  11.793  0.00  0.00    +0.000 N 
ATOM     12  C   UNL     1      44.474   7.297  11.688  0.00  0.00    +0.000 A 
ATOM     13  O   UNL     1      43.577   6.726  11.079  0.00  0.00    +0.000 OA
ATOM     14  C   UNL     1      45.547   6.622  12.393  0.00  0.00    +0.000 A 
ATOM     15  H   UNL     1      43.758   9.162  11.314  0.00  0.00    +0.000 HD
ENDBRANCH   2   5
BRANCH   3  16
ATOM     16  C   UNL     1      44.427   3.005   9.799  0.00  0.00    +0.000 C 
BRANCH  16  17
ATOM     17  C   UNL     1      45.302   2.618   8.635  0.00  0.00    +0.000 A 
ATOM     18  C   UNL     1      45.845   1.329   8.566  0.00  0.00    +0.000 A 
ATOM     19  C   UNL     1      46.651   0.952   7.492  0.00  0.00    +0.000 A 
ATOM     20  C   UNL     1      46.943   1.861   6.467  0.00  0.00    +0.000 A 
ATOM     21  C   UNL     1      46.419   3.158   6.544  0.00  0.00    +0.000 A 
ATOM     22  C   UNL     1      45.612   3.535   7.625  0.00  0.00    +0.000 A 
BRANCH  20  23
ATOM     23  C   UNL     1      47.785   1.435   5.286  0.00  0.00    +0.000 C 
BRANCH  23  24
ATOM     24  C   UNL     1      46.999   0.719   4.219  0.00  0.00    +0.000 A 
ATOM     25  C   UNL     1      46.148   1.407   3.350  0.00  0.00    +0.000 A 
ATOM     26  C   UNL     1      45.401   0.702   2.413  0.00  0.00    +0.000 A 
ATOM     27  C   UNL     1      45.530  -0.676   2.371  0.00  0.00    +0.000 A 
ATOM     28  N   UNL     1      46.349  -1.377   3.183  0.00  0.00    +0.000 NA
ATOM     29  C   UNL     1      47.058  -0.665   4.090  0.00  0.00    +0.000 A 
ENDBRANCH  23  24
ENDBRANCH  20  23
ENDBRANCH  16  17
ENDBRANCH   3  16
TORSDOF 5
ENDMDL
MODEL 2
REMARK VINA RESULT:    -8.187      1.301      2.114
REMARK INTER + INTRA:         -11.591
REMARK INTER:                 -10.610
REMARK INTRA:                  -0.981
REMARK UNBOUND:                -1.011
REMARK  Name = 
REMARK  5 active torsions:
REMARK  status: ('A' for Active; 'I' for Inactive)
REMARK    1  A    between atoms: C_2  and  C_18
REMARK    2  A    between atoms: N_3  and  C_4
REMARK    3  A    between atoms: C_4  and  C_5
REMARK    4  A    between atoms: C_8  and  C_9
REMARK    5  A    between atoms: C_9  and  C_10
REMARK                            x       y       z     vdW  Elec       q    Type
REMARK                         _______ _______ _______ _____ _____    ______ ____
ROOT
ATOM      1  O   UNL     1      42.989   5.394  11.110  0.00  0.00    +0.000 OA
ATOM      2  C   UNL     1      44.213   5.459  11.042  0.00  0.00    +0.000 C 
ATOM      3  N   UNL     1      44.965   4.570  10.313  0.00  0.00    +0.000 N 
ATOM      4  H   UNL     1      45.968   4.550  10.455  0.00  0.00    +0.000 HD
ENDROOT
BRANCH   2   5
ATOM      5  C   UNL     1      44.961   6.546  11.686  0.00  0.00    +0.000 A 
ATOM      6  C   UNL     1      44.676   7.867  11.369  0.00  0.00    +0.000 A 
ATOM      7  S   UNL     1      45.679   8.993  12.169  0.00  0.00    +0.000 S 
ATOM      8  C   UNL     1      46.492   7.755  13.009  0.00  0.00    +0.000 A 
ATOM      9  N   UNL     1      47.484   8.043  13.894  0.00  0.00    +0.000 NA
ATOM     10  C   UNL     1      47.979   7.014  14.494  0.00  0.00    +0.000 A 
ATOM     11  N   UNL     1      47.574   5.721  14.289  0.00  0.00    +0.000 N 
ATOM     12  C   UNL     1      46.628   5.376  13.354  0.00  0.00    +0.000 A 
ATOM     13  O   UNL     1      46.384   4.200  13.108  0.00  0.00    +0.000 OA
ATOM     14  C   UNL     1      46.015   6.501  12.675  0.00  0.00    +0.000 A 
ATOM     15  H   UNL     1      48.019   4.955  14.774  0.00  0.00    +0.000 HD
ENDBRANCH   2   5
BRANCH   3  16
ATOM     16  C   UNL     1      44.400   3.406   9.684  0.00  0.00    +0.000 C 
BRANCH  16  17
ATOM     17  C   UNL     1      45.293   2.889   8.587  0.00  0.00    +0.000 A 
ATOM     18  C   UNL     1      45.780   1.577   8.642  0.00  0.00    +0.000 A 
ATOM     19  C   UNL     1      46.602   1.080   7.631  0.00  0.00    +0.000 A 
ATOM     20  C   UNL     1      46.967   1.890   6.547  0.00  0.00    +0.000 A 
ATOM     21  C   UNL     1      46.499   3.209   6.501  0.00  0.00    +0.000 A 
ATOM     22  C   UNL     1      45.676   3.707   7.518  0.00  0.00    +0.000 A 
BRANCH  20  23
ATOM     23  C   UNL     1      47.827   1.334   5.434  0.00  0.00    +0.000 C 
BRANCH  23  24
ATOM     24  C   UNL     1      47.032   0.680   4.335  0.00  0.00    +0.000 A 
ATOM     25  C   UNL     1      46.219   1.424   3.476  0.00  0.00    +0.000 A 
ATOM     26  C   UNL     1      45.460   0.775   2.507  0.00  0.00    +0.000 A 
ATOM     27  C   UNL     1      45.542  -0.604   2.424  0.00  0.00    +0.000 A 
ATOM     28  N   UNL     1      46.323  -1.359   3.224  0.00  0.00    +0.000 NA
ATOM     29  C   UNL     1      47.043  -0.701   4.163  0.00  0.00    +0.000 A 
ENDBRANCH  23  24
ENDBRANCH  20  23
ENDBRANCH  16  17
ENDBRANCH   3  16
TORSDOF 5
ENDMDL
MODEL 3
REMARK VINA RESULT:    -8.137      3.303      5.303
REMARK INTER + INTRA:         -11.527
REMARK INTER:                 -10.969
REMARK INTRA:                  -0.558
REMARK UNBOUND:                -1.011
REMARK  Name = 
REMARK  5 active torsions:
REMARK  status: ('A' for Active; 'I' for Inactive)
REMARK    1  A    between atoms: C_2  and  C_18
REMARK    2  A    between atoms: N_3  and  C_4
REMARK    3  A    between atoms: C_4  and  C_5
REMARK    4  A    between atoms: C_8  and  C_9
REMARK    5  A    between atoms: C_9  and  C_10
REMARK                            x       y       z     vdW  Elec       q    Type
REMARK                         _______ _______ _______ _____ _____    ______ ____
ROOT
ATOM      1  O   UNL     1      48.812   6.573  12.999  0.00  0.00    +0.000 OA
ATOM      2  C   UNL     1      48.055   6.533  13.964  0.00  0.00    +0.000 C 
ATOM      3  N   UNL     1      46.703   6.745  13.857  0.00  0.00    +0.000 N 
ATOM      4  H   UNL     1      46.166   6.898  14.702  0.00  0.00    +0.000 HD
ENDROOT
BRANCH   2   5
ATOM      5  C   UNL     1      48.539   6.180  15.304  0.00  0.00    +0.000 A 
ATOM      6  C   UNL     1      49.453   7.001  15.951  0.00  0.00    +0.000 A 
ATOM      7  S   UNL     1      49.946   6.408  17.474  0.00  0.00    +0.000 S 
ATOM      8  C   UNL     1      48.913   5.060  17.345  0.00  0.00    +0.000 A 
ATOM      9  N   UNL     1      48.837   4.138  18.342  0.00  0.00    +0.000 NA
ATOM     10  C   UNL     1      47.980   3.196  18.133  0.00  0.00    +0.000 A 
ATOM     11  N   UNL     1      47.192   3.092  17.017  0.00  0.00    +0.000 N 
ATOM     12  C   UNL     1      47.286   3.958  15.954  0.00  0.00    +0.000 A 
ATOM     13  O   UNL     1      46.658   3.759  14.920  0.00  0.00    +0.000 OA
ATOM     14  C   UNL     1      48.212   5.055  16.154  0.00  0.00    +0.000 A 
ATOM     15  H   UNL     1      46.556   2.316  16.902  0.00  0.00    +0.000 HD
ENDBRANCH   2   5
BRANCH   3  16
ATOM     16  C   UNL     1      46.077   7.173  12.634  0.00  0.00    +0.000 C 
BRANCH  16  17
ATOM     17  C   UNL     1      45.703   5.997  11.771  0.00  0.00    +0.000 A 
ATOM     18  C   UNL     1      45.858   6.071  10.381  0.00  0.00    +0.000 A 
ATOM     19  C   UNL     1      45.523   4.989   9.568  0.00  0.00    +0.000 A 
ATOM     20  C   UNL     1      45.012   3.810  10.126  0.00  0.00    +0.000 A 
ATOM     21  C   UNL     1      44.836   3.740  11.514  0.00  0.00    +0.000 A 
ATOM     22  C   UNL     1      45.170   4.829  12.329  0.00  0.00    +0.000 A 
BRANCH  20  23
ATOM     23  C   UNL     1      44.687   2.626   9.244  0.00  0.00    +0.000 C 
BRANCH  23  24
ATOM     24  C   UNL     1      45.703   2.394   8.157  0.00  0.00    +0.000 A 
ATOM     25  C   UNL     1      45.893   3.314   7.123  0.00  0.00    +0.000 A 
ATOM     26  C   UNL     1      46.806   3.036   6.110  0.00  0.00    +0.000 A 
ATOM     27  C   UNL     1      47.507   1.843   6.166  0.00  0.00    +0.000 A 
ATOM     28  N   UNL     1      47.362   0.934   7.153  0.00  0.00    +0.000 NA
ATOM     29  C   UNL     1      46.462   1.227   8.119  0.00  0.00    +0.000 A 
ENDBRANCH  23  24
ENDBRANCH  20  23
ENDBRANCH  16  17
ENDBRANCH   3  16
TORSDOF 5
ENDMDL
MODEL 4
REMARK VINA RESULT:    -8.067      3.322      5.556
REMARK INTER + INTRA:         -11.436
REMARK INTER:                 -10.624
REMARK INTRA:                  -0.812
REMARK UNBOUND:                -1.011
REMARK  Name = 
REMARK  5 active torsions:
REMARK  status: ('A' for Active; 'I' for Inactive)
REMARK    1  A    between atoms: C_2  and  C_18
REMARK    2  A    between atoms: N_3  and  C_4
REMARK    3  A    between atoms: C_4  and  C_5
REMARK    4  A    between atoms: C_8  and  C_9
REMARK    5  A    between atoms: C_9  and  C_10
REMARK                            x       y       z     vdW  Elec       q    Type
REMARK                         _______ _______ _______ _____ _____    ______ ____
ROOT
ATOM      1  O   UNL     1      48.914   6.518  13.057  0.00  0.00    +0.000 OA
ATOM      2  C   UNL     1      48.232   6.658  14.068  0.00  0.00    +0.000 C 
ATOM      3  N   UNL     1      46.964   7.186  14.043  0.00  0.00    +0.000 N 
ATOM      4  H   UNL     1      46.534   7.461  14.917  0.00  0.00    +0.000 HD
ENDROOT
BRANCH   2   5
ATOM      5  C   UNL     1      48.702   6.198  15.381  0.00  0.00    +0.000 A 
ATOM      6  C   UNL     1      49.713   6.887  16.036  0.00  0.00    +0.000 A 
ATOM      7  S   UNL     1      50.170   6.180  17.521  0.00  0.00    +0.000 S 
ATOM      8  C   UNL     1      48.994   4.959  17.365  0.00  0.00    +0.000 A 
ATOM      9  N   UNL     1      48.839   4.008  18.325  0.00  0.00    +0.000 NA
ATOM     10  C   UNL     1      47.880   3.175  18.101  0.00  0.00    +0.000 A 
ATOM     11  N   UNL     1      47.062   3.203  17.002  0.00  0.00    +0.000 N 
ATOM     12  C   UNL     1      47.228   4.099  15.972  0.00  0.00    +0.000 A 
ATOM     13  O   UNL     1      46.560   4.013  14.948  0.00  0.00    +0.000 OA
ATOM     14  C   UNL     1      48.272   5.080  16.192  0.00  0.00    +0.000 A 
ATOM     15  H   UNL     1      46.343   2.506  16.872  0.00  0.00    +0.000 HD
ENDBRANCH   2   5
BRANCH   3  16
ATOM     16  C   UNL     1      46.382   7.752  12.855  0.00  0.00    +0.000 C 
BRANCH  16  17
ATOM     17  C   UNL     1      45.846   6.679  11.944  0.00  0.00    +0.000 A 
ATOM     18  C   UNL     1      44.859   5.798  12.405  0.00  0.00    +0.000 A 
ATOM     19  C   UNL     1      44.347   4.803  11.573  0.00  0.00    +0.000 A 
ATOM     20  C   UNL     1      44.820   4.657  10.262  0.00  0.00    +0.000 A 
ATOM     21  C   UNL     1      45.823   5.523   9.805  0.00  0.00    +0.000 A 
ATOM     22  C   UNL     1      46.338   6.519  10.643  0.00  0.00    +0.000 A 
BRANCH  20  23
ATOM     23  C   UNL     1      44.234   3.602   9.352  0.00  0.00    +0.000 C 
BRANCH  23  24
ATOM     24  C   UNL     1      45.263   2.917   8.492  0.00  0.00    +0.000 A 
ATOM     25  C   UNL     1      45.808   3.538   7.366  0.00  0.00    +0.000 A 
ATOM     26  C   UNL     1      46.717   2.850   6.569  0.00  0.00    +0.000 A 
ATOM     27  C   UNL     1      47.058   1.556   6.927  0.00  0.00    +0.000 A 
ATOM     28  N   UNL     1      46.565   0.925   8.013  0.00  0.00    +0.000 NA
ATOM     29  C   UNL     1      45.676   1.616   8.764  0.00  0.00    +0.000 A 
ENDBRANCH  23  24
ENDBRANCH  20  23
ENDBRANCH  16  17
ENDBRANCH   3  16
TORSDOF 5
ENDMDL
MODEL 5
REMARK VINA RESULT:    -7.429      6.300     11.081
REMARK INTER + INTRA:         -10.612
REMARK INTER:                  -9.699
REMARK INTRA:                  -0.913
REMARK UNBOUND:                -1.011
REMARK  Name = 
REMARK  5 active torsions:
REMARK  status: ('A' for Active; 'I' for Inactive)
REMARK    1  A    between atoms: C_2  and  C_18
REMARK    2  A    between atoms: N_3  and  C_4
REMARK    3  A    between atoms: C_4  and  C_5
REMARK    4  A    between atoms: C_8  and  C_9
REMARK    5  A    between atoms: C_9  and  C_10
REMARK                            x       y       z     vdW  Elec       q    Type
REMARK                         _______ _______ _______ _____ _____    ______ ____
ROOT
ATOM      1  O   UNL     1      47.312   3.150  14.002  0.00  0.00    +0.000 OA
ATOM      2  C   UNL     1      46.858   4.208  14.428  0.00  0.00    +0.000 C 
ATOM      3  N   UNL     1      46.843   4.526  15.764  0.00  0.00    +0.000 N 
ATOM      4  H   UNL     1      46.281   5.311  16.072  0.00  0.00    +0.000 HD
ENDROOT
BRANCH   2   5
ATOM      5  C   UNL     1      46.360   5.249  13.521  0.00  0.00    +0.000 A 
ATOM      6  C   UNL     1      47.171   6.324  13.186  0.00  0.00    +0.000 A 
ATOM      7  S   UNL     1      46.409   7.463  12.168  0.00  0.00    +0.000 S 
ATOM      8  C   UNL     1      44.986   6.530  12.096  0.00  0.00    +0.000 A 
ATOM      9  N   UNL     1      43.917   6.939  11.362  0.00  0.00    +0.000 NA
ATOM     10  C   UNL     1      42.926   6.113  11.358  0.00  0.00    +0.000 A 
ATOM     11  N   UNL     1      42.905   4.916  12.024  0.00  0.00    +0.000 N 
ATOM     12  C   UNL     1      43.932   4.497  12.837  0.00  0.00    +0.000 A 
ATOM     13  O   UNL     1      43.824   3.482  13.517  0.00  0.00    +0.000 OA
ATOM     14  C   UNL     1      45.086   5.375  12.847  0.00  0.00    +0.000 A 
ATOM     15  H   UNL     1      42.087   4.324  12.001  0.00  0.00    +0.000 HD
ENDBRANCH   2   5
BRANCH   3  16
ATOM     16  C   UNL     1      47.224   3.591  16.790  0.00  0.00    +0.000 C 
BRANCH  16  17
ATOM     17  C   UNL     1      48.696   3.682  17.092  0.00  0.00    +0.000 A 
ATOM     18  C   UNL     1      49.461   2.514  17.206  0.00  0.00    +0.000 A 
ATOM     19  C   UNL     1      50.827   2.580  17.479  0.00  0.00    +0.000 A 
ATOM     20  C   UNL     1      51.458   3.818  17.657  0.00  0.00    +0.000 A 
ATOM     21  C   UNL     1      50.692   4.987  17.565  0.00  0.00    +0.000 A 
ATOM     22  C   UNL     1      49.320   4.919  17.295  0.00  0.00    +0.000 A 
BRANCH  20  23
ATOM     23  C   UNL     1      52.947   3.886  17.914  0.00  0.00    +0.000 C 
BRANCH  23  24
ATOM     24  C   UNL     1      53.320   3.594  19.343  0.00  0.00    +0.000 A 
ATOM     25  C   UNL     1      52.829   4.364  20.401  0.00  0.00    +0.000 A 
ATOM     26  C   UNL     1      53.240   4.092  21.702  0.00  0.00    +0.000 A 
ATOM     27  C   UNL     1      54.130   3.052  21.907  0.00  0.00    +0.000 A 
ATOM     28  N   UNL     1      54.618   2.277  20.916  0.00  0.00    +0.000 NA
ATOM     29  C   UNL     1      54.207   2.569  19.660  0.00  0.00    +0.000 A 
ENDBRANCH  23  24
ENDBRANCH  20  23
ENDBRANCH  16  17
ENDBRANCH   3  16
TORSDOF 5
ENDMDL
MODEL 6
REMARK VINA RESULT:    -7.395      3.195      4.811
REMARK INTER + INTRA:         -10.567
REMARK INTER:                  -9.763
REMARK INTRA:                  -0.804
REMARK UNBOUND:                -1.011
REMARK  Name = 
REMARK  5 active torsions:
REMARK  status: ('A' for Active; 'I' for Inactive)
REMARK    1  A    between atoms: C_2  and  C_18
REMARK    2  A    between atoms: N_3  and  C_4
REMARK    3  A    between atoms: C_4  and  C_5
REMARK    4  A    between atoms: C_8  and  C_9
REMARK    5  A    between atoms: C_9  and  C_10
REMARK                            x       y       z     vdW  Elec       q    Type
REMARK                         _______ _______ _______ _____ _____    ______ ____
ROOT
ATOM      1  O   UNL     1      47.481   4.522  14.028  0.00  0.00    +0.000 OA
ATOM      2  C   UNL     1      47.392   5.728  13.817  0.00  0.00    +0.000 C 
ATOM      3  N   UNL     1      46.204   6.342  13.504  0.00  0.00    +0.000 N 
ATOM      4  H   UNL     1      46.225   7.290  13.147  0.00  0.00    +0.000 HD
ENDROOT
BRANCH   2   5
ATOM      5  C   UNL     1      48.550   6.619  13.957  0.00  0.00    +0.000 A 
ATOM      6  C   UNL     1      49.039   7.301  12.851  0.00  0.00    +0.000 A 
ATOM      7  S   UNL     1      50.421   8.245  13.188  0.00  0.00    +0.000 S 
ATOM      8  C   UNL     1      50.380   7.818  14.836  0.00  0.00    +0.000 A 
ATOM      9  N   UNL     1      51.300   8.308  15.710  0.00  0.00    +0.000 NA
ATOM     10  C   UNL     1      51.122   7.941  16.934  0.00  0.00    +0.000 A 
ATOM     11  N   UNL     1      50.107   7.126  17.363  0.00  0.00    +0.000 N 
ATOM     12  C   UNL     1      49.200   6.549  16.507  0.00  0.00    +0.000 A 
ATOM     13  O   UNL     1      48.387   5.726  16.911  0.00  0.00    +0.000 OA
ATOM     14  C   UNL     1      49.337   6.958  15.123  0.00  0.00    +0.000 A 
ATOM     15  H   UNL     1      50.036   6.855  18.334  0.00  0.00    +0.000 HD
ENDBRANCH   2   5
BRANCH   3  16
ATOM     16  C   UNL     1      44.992   5.608  13.256  0.00  0.00    +0.000 C 
BRANCH  16  17
ATOM     17  C   UNL     1      44.927   5.124  11.831  0.00  0.00    +0.000 A 
ATOM     18  C   UNL     1      44.180   3.983  11.513  0.00  0.00    +0.000 A 
ATOM     19  C   UNL     1      44.103   3.525  10.198  0.00  0.00    +0.000 A 
ATOM     20  C   UNL     1      44.784   4.192   9.171  0.00  0.00    +0.000 A 
ATOM     21  C   UNL     1      45.550   5.321   9.489  0.00  0.00    +0.000 A 
ATOM     22  C   UNL     1      45.628   5.777  10.811  0.00  0.00    +0.000 A 
BRANCH  20  23
ATOM     23  C   UNL     1      44.667   3.714   7.741  0.00  0.00    +0.000 C 
BRANCH  23  24
ATOM     24  C   UNL     1      45.850   2.903   7.283  0.00  0.00    +0.000 A 
ATOM     25  C   UNL     1      46.628   3.294   6.191  0.00  0.00    +0.000 A 
ATOM     26  C   UNL     1      47.681   2.489   5.769  0.00  0.00    +0.000 A 
ATOM     27  C   UNL     1      47.926   1.313   6.458  0.00  0.00    +0.000 A 
ATOM     28  N   UNL     1      47.207   0.905   7.524  0.00  0.00    +0.000 NA
ATOM     29  C   UNL     1      46.184   1.705   7.907  0.00  0.00    +0.000 A 
ENDBRANCH  23  24
ENDBRANCH  20  23
ENDBRANCH  16  17
ENDBRANCH   3  16
TORSDOF 5
ENDMDL
MODEL 7
REMARK VINA RESULT:    -7.238      2.754      4.372
REMARK INTER + INTRA:         -10.365
REMARK INTER:                  -9.927
REMARK INTRA:                  -0.438
REMARK UNBOUND:                -1.011
REMARK  Name = 
REMARK  5 active torsions:
REMARK  status: ('A' for Active; 'I' for Inactive)
REMARK    1  A    between atoms: C_2  and  C_18
REMARK    2  A    between atoms: N_3  and  C_4
REMARK    3  A    between atoms: C_4  and  C_5
REMARK    4  A    between atoms: C_8  and  C_9
REMARK    5  A    between atoms: C_9  and  C_10
REMARK                            x       y       z     vdW  Elec       q    Type
REMARK                         _______ _______ _______ _____ _____    ______ ____
ROOT
ATOM      1  O   UNL     1      48.797   6.120  13.124  0.00  0.00    +0.000 OA
ATOM      2  C   UNL     1      47.986   7.027  13.287  0.00  0.00    +0.000 C 
ATOM      3  N   UNL     1      46.686   6.802  13.668  0.00  0.00    +0.000 N 
ATOM      4  H   UNL     1      46.019   7.560  13.591  0.00  0.00    +0.000 HD
ENDROOT
BRANCH   2   5
ATOM      5  C   UNL     1      48.376   8.436  13.153  0.00  0.00    +0.000 A 
ATOM      6  C   UNL     1      49.675   8.828  13.442  0.00  0.00    +0.000 A 
ATOM      7  S   UNL     1      49.933  10.508  13.286  0.00  0.00    +0.000 S 
ATOM      8  C   UNL     1      48.329  10.762  12.773  0.00  0.00    +0.000 A 
ATOM      9  N   UNL     1      47.884  12.008  12.454  0.00  0.00    +0.000 NA
ATOM     10  C   UNL     1      46.665  12.047  12.035  0.00  0.00    +0.000 A 
ATOM     11  N   UNL     1      45.847  10.955  11.909  0.00  0.00    +0.000 N 
ATOM     12  C   UNL     1      46.229   9.690  12.289  0.00  0.00    +0.000 A 
ATOM     13  O   UNL     1      45.429   8.761  12.281  0.00  0.00    +0.000 OA
ATOM     14  C   UNL     1      47.604   9.586  12.734  0.00  0.00    +0.000 A 
ATOM     15  H   UNL     1      44.892  11.056  11.597  0.00  0.00    +0.000 HD
ENDBRANCH   2   5
BRANCH   3  16
ATOM     16  C   UNL     1      46.123   5.482  13.770  0.00  0.00    +0.000 C 
BRANCH  16  17
ATOM     17  C   UNL     1      45.709   4.959  12.420  0.00  0.00    +0.000 A 
ATOM     18  C   UNL     1      45.800   5.784  11.291  0.00  0.00    +0.000 A 
ATOM     19  C   UNL     1      45.428   5.313  10.033  0.00  0.00    +0.000 A 
ATOM     20  C   UNL     1      44.943   4.008   9.875  0.00  0.00    +0.000 A 
ATOM     21  C   UNL     1      44.831   3.188  11.005  0.00  0.00    +0.000 A 
ATOM     22  C   UNL     1      45.202   3.663  12.268  0.00  0.00    +0.000 A 
BRANCH  20  23
ATOM     23  C   UNL     1      44.578   3.490   8.502  0.00  0.00    +0.000 C 
BRANCH  23  24
ATOM     24  C   UNL     1      45.717   2.795   7.803  0.00  0.00    +0.000 A 
ATOM     25  C   UNL     1      46.396   3.392   6.738  0.00  0.00    +0.000 A 
ATOM     26  C   UNL     1      47.408   2.695   6.086  0.00  0.00    +0.000 A 
ATOM     27  C   UNL     1      47.715   1.418   6.525  0.00  0.00    +0.000 A 
ATOM     28  N   UNL     1      47.093   0.811   7.557  0.00  0.00    +0.000 NA
ATOM     29  C   UNL     1      46.107   1.510   8.166  0.00  0.00    +0.000 A 
ENDBRANCH  23  24
ENDBRANCH  20  23
ENDBRANCH  16  17
ENDBRANCH   3  16
TORSDOF 5
ENDMDL
MODEL 8
REMARK VINA RESULT:    -6.955      4.726      7.113
REMARK INTER + INTRA:          -9.999
REMARK INTER:                  -9.132
REMARK INTRA:                  -0.866
REMARK UNBOUND:                -1.011
REMARK  Name = 
REMARK  5 active torsions:
REMARK  status: ('A' for Active; 'I' for Inactive)
REMARK    1  A    between atoms: C_2  and  C_18
REMARK    2  A    between atoms: N_3  and  C_4
REMARK    3  A    between atoms: C_4  and  C_5
REMARK    4  A    between atoms: C_8  and  C_9
REMARK    5  A    between atoms: C_9  and  C_10
REMARK                            x       y       z     vdW  Elec       q    Type
REMARK                         _______ _______ _______ _____ _____    ______ ____
ROOT
ATOM      1  O   UNL     1      50.415   5.979  16.228  0.00  0.00    +0.000 OA
ATOM      2  C   UNL     1      49.277   6.166  16.646  0.00  0.00    +0.000 C 
ATOM      3  N   UNL     1      48.236   6.535  15.829  0.00  0.00    +0.000 N 
ATOM      4  H   UNL     1      47.379   6.867  16.253  0.00  0.00    +0.000 HD
ENDROOT
BRANCH   2   5
ATOM      5  C   UNL     1      48.929   5.935  18.053  0.00  0.00    +0.000 A 
ATOM      6  C   UNL     1      49.200   4.709  18.643  0.00  0.00    +0.000 A 
ATOM      7  S   UNL     1      48.678   4.601  20.265  0.00  0.00    +0.000 S 
ATOM      8  C   UNL     1      48.122   6.210  20.251  0.00  0.00    +0.000 A 
ATOM      9  N   UNL     1      47.561   6.768  21.358  0.00  0.00    +0.000 NA
ATOM     10  C   UNL     1      47.230   8.007  21.222  0.00  0.00    +0.000 A 
ATOM     11  N   UNL     1      47.405   8.740  20.077  0.00  0.00    +0.000 N 
ATOM     12  C   UNL     1      47.898   8.200  18.914  0.00  0.00    +0.000 A 
ATOM     13  O   UNL     1      47.920   8.851  17.876  0.00  0.00    +0.000 OA
ATOM     14  C   UNL     1      48.319   6.817  19.025  0.00  0.00    +0.000 A 
ATOM     15  H   UNL     1      47.101   9.702  20.026  0.00  0.00    +0.000 HD
ENDBRANCH   2   5
BRANCH   3  16
ATOM     16  C   UNL     1      48.419   6.873  14.442  0.00  0.00    +0.000 C 
BRANCH  16  17
ATOM     17  C   UNL     1      47.374   6.219  13.578  0.00  0.00    +0.000 A 
ATOM     18  C   UNL     1      46.836   6.911  12.485  0.00  0.00    +0.000 A 
ATOM     19  C   UNL     1      45.873   6.317  11.670  0.00  0.00    +0.000 A 
ATOM     20  C   UNL     1      45.416   5.020  11.937  0.00  0.00    +0.000 A 
ATOM     21  C   UNL     1      45.936   4.333  13.042  0.00  0.00    +0.000 A 
ATOM     22  C   UNL     1      46.900   4.932  13.861  0.00  0.00    +0.000 A 
BRANCH  20  23
ATOM     23  C   UNL     1      44.400   4.366  11.027  0.00  0.00    +0.000 C 
BRANCH  23  24
ATOM     24  C   UNL     1      45.003   3.797   9.770  0.00  0.00    +0.000 A 
ATOM     25  C   UNL     1      45.125   2.419   9.575  0.00  0.00    +0.000 A 
ATOM     26  C   UNL     1      45.736   1.936   8.421  0.00  0.00    +0.000 A 
ATOM     27  C   UNL     1      46.204   2.851   7.493  0.00  0.00    +0.000 A 
ATOM     28  N   UNL     1      46.094   4.188   7.638  0.00  0.00    +0.000 NA
ATOM     29  C   UNL     1      45.504   4.629   8.773  0.00  0.00    +0.000 A 
ENDBRANCH  23  24
ENDBRANCH  20  23
ENDBRANCH  16  17
ENDBRANCH   3  16
TORSDOF 5
ENDMDL
MODEL 9
REMARK VINA RESULT:    -6.923      4.075      6.902
REMARK INTER + INTRA:          -9.957
REMARK INTER:                  -8.809
REMARK INTRA:                  -1.149
REMARK UNBOUND:                -1.011
REMARK  Name = 
REMARK  5 active torsions:
REMARK  status: ('A' for Active; 'I' for Inactive)
REMARK    1  A    between atoms: C_2  and  C_18
REMARK    2  A    between atoms: N_3  and  C_4
REMARK    3  A    between atoms: C_4  and  C_5
REMARK    4  A    between atoms: C_8  and  C_9
REMARK    5  A    between atoms: C_9  and  C_10
REMARK                            x       y       z     vdW  Elec       q    Type
REMARK                         _______ _______ _______ _____ _____    ______ ____
ROOT
ATOM      1  O   UNL     1      49.691   9.108  15.123  0.00  0.00    +0.000 OA
ATOM      2  C   UNL     1      48.756   8.499  15.634  0.00  0.00    +0.000 C 
ATOM      3  N   UNL     1      47.641   8.121  14.928  0.00  0.00    +0.000 N 
ATOM      4  H   UNL     1      46.825   7.805  15.438  0.00  0.00    +0.000 HD
ENDROOT
BRANCH   2   5
ATOM      5  C   UNL     1      48.798   8.065  17.036  0.00  0.00    +0.000 A 
ATOM      6  C   UNL     1      48.880   9.007  18.052  0.00  0.00    +0.000 A 
ATOM      7  S   UNL     1      48.974   8.322  19.613  0.00  0.00    +0.000 S 
ATOM      8  C   UNL     1      48.853   6.743  18.987  0.00  0.00    +0.000 A 
ATOM      9  N   UNL     1      48.857   5.660  19.811  0.00  0.00    +0.000 NA
ATOM     10  C   UNL     1      48.709   4.530  19.207  0.00  0.00    +0.000 A 
ATOM     11  N   UNL     1      48.562   4.382  17.852  0.00  0.00    +0.000 N 
ATOM     12  C   UNL     1      48.626   5.439  16.976  0.00  0.00    +0.000 A 
ATOM     13  O   UNL     1      48.617   5.255  15.764  0.00  0.00    +0.000 OA
ATOM     14  C   UNL     1      48.755   6.737  17.608  0.00  0.00    +0.000 A 
ATOM     15  H   UNL     1      48.474   3.466  17.437  0.00  0.00    +0.000 HD
ENDBRANCH   2   5
BRANCH   3  16
ATOM     16  C   UNL     1      47.407   8.528  13.567  0.00  0.00    +0.000 C 
BRANCH  16  17
ATOM     17  C   UNL     1      46.546   7.531  12.838  0.00  0.00    +0.000 A 
ATOM     18  C   UNL     1      45.523   7.977  11.992  0.00  0.00    +0.000 A 
ATOM     19  C   UNL     1      44.721   7.067  11.303  0.00  0.00    +0.000 A 
ATOM     20  C   UNL     1      44.916   5.688  11.456  0.00  0.00    +0.000 A 
ATOM     21  C   UNL     1      45.924   5.239  12.318  0.00  0.00    +0.000 A 
ATOM     22  C   UNL     1      46.726   6.154  13.011  0.00  0.00    +0.000 A 
BRANCH  20  23
ATOM     23  C   UNL     1      44.069   4.707  10.677  0.00  0.00    +0.000 C 
BRANCH  23  24
ATOM     24  C   UNL     1      44.851   3.918   9.661  0.00  0.00    +0.000 A 
ATOM     25  C   UNL     1      45.547   4.545   8.624  0.00  0.00    +0.000 A 
ATOM     26  C   UNL     1      46.215   3.777   7.676  0.00  0.00    +0.000 A 
ATOM     27  C   UNL     1      46.169   2.398   7.796  0.00  0.00    +0.000 A 
ATOM     28  N   UNL     1      45.520   1.754   8.788  0.00  0.00    +0.000 NA
ATOM     29  C   UNL     1      44.873   2.527   9.691  0.00  0.00    +0.000 A 
ENDBRANCH  23  24
ENDBRANCH  20  23
ENDBRANCH  16  17
ENDBRANCH   3  16
TORSDOF 5
ENDMDL
