MODEL 1
REMARK VINA RESULT:    -7.431      0.000      0.000
REMARK INTER + INTRA:         -12.467
REMARK INTER:                 -11.559
REMARK INTRA:                  -0.908
REMARK UNBOUND:                -0.908
REMARK  Name = 
REMARK  11 active torsions:
REMARK  status: ('A' for Active; 'I' for Inactive)
REMARK    1  A    between atoms: C_1  and  C_2
REMARK    2  A    between atoms: C_2  and  O_3
REMARK    3  A    between atoms: C_2  and  C_10
REMARK    4  A    between atoms: O_3  and  C_4
REMARK    5  A    between atoms: C_13  and  C_14
REMARK    6  A    between atoms: C_14  and  N_15
REMARK    7  A    between atoms: N_15  and  C_16
REMARK    8  A    between atoms: N_15  and  C_19
REMARK    9  A    between atoms: C_16  and  C_17
REMARK   10  A    between atoms: C_17  and  O_18
REMARK   11  A    between atoms: C_19  and  C_20
REMARK                            x       y       z     vdW  Elec       q    Type
REMARK                         _______ _______ _______ _____ _____    ______ ____
ROOT
ATOM      1  C   UNL     1      47.827   6.163  14.103  0.00  0.00    +0.000 A 
ATOM      2  C   UNL     1      46.950   5.079  14.145  0.00  0.00    +0.000 A 
ATOM      3  C   UNL     1      46.062   4.887  13.088  0.00  0.00    +0.000 A 
ATOM      4  C   UNL     1      46.070   5.771  12.008  0.00  0.00    +0.000 A 
ATOM      5  C   UNL     1      47.049   6.756  12.000  0.00  0.00    +0.000 A 
ATOM      6  N   UNL     1      47.914   6.972  13.015  0.00  0.00    +0.000 NA
ENDROOT
BRANCH   1   8
ATOM      7  C   UNL     1      49.862   7.378  14.956  0.00  0.00    +0.000 C 
ATOM      8  C   UNL     1      48.664   6.498  15.335  0.00  0.00    +0.000 C 
BRANCH   8   9
ATOM      9  O   UNL     1      49.092   5.273  15.928  0.00  0.00    +0.000 OA
BRANCH   9  10
ATOM     10  C   UNL     1      49.065   5.262  17.304  0.00  0.00    +0.000 A 
ATOM     11  N   UNL     1      47.904   5.441  17.959  0.00  0.00    +0.000 NA
ATOM     12  C   UNL     1      47.974   5.427  19.302  0.00  0.00    +0.000 A 
ATOM     13  C   UNL     1      49.142   5.231  19.999  0.00  0.00    +0.000 A 
ATOM     14  C   UNL     1      50.265   5.043  19.230  0.00  0.00    +0.000 A 
ATOM     15  N   UNL     1      50.253   5.052  17.885  0.00  0.00    +0.000 NA
ENDBRANCH   9  10
ENDBRANCH   8   9
ENDBRANCH   1   8
BRANCH   4  16
ATOM     16  C   UNL     1      45.013   5.719  10.932  0.00  0.00    +0.000 C 
BRANCH  16  17
ATOM     17  N   UNL     1      44.507   4.343  10.672  0.00  0.00    +0.000 NA
BRANCH  17  18
ATOM     18  C   UNL     1      43.223   4.114  11.387  0.00  0.00    +0.000 C 
BRANCH  18  19
ATOM     19  C   UNL     1      42.519   5.384  11.901  0.00  0.00    +0.000 C 
BRANCH  19  20
ATOM     20  O   UNL     1      42.526   5.416  13.327  0.00  0.00    +0.000 OA
ATOM     21  H   UNL     1      42.849   6.294  13.594  0.00  0.00    +0.000 HD
ENDBRANCH  19  20
ENDBRANCH  18  19
ENDBRANCH  17  18
BRANCH  17  22
ATOM     22  C   UNL     1      44.312   4.140   9.221  0.00  0.00    +0.000 C 
BRANCH  22  23
ATOM     23  C   UNL     1      45.366   3.302   8.532  0.00  0.00    +0.000 A 
ATOM     24  C   UNL     1      45.458   1.922   8.769  0.00  0.00    +0.000 A 
ATOM     25  C   UNL     1      46.371   1.143   8.054  0.00  0.00    +0.000 A 
ATOM     26  C   UNL     1      47.198   1.734   7.101  0.00  0.00    +0.000 A 
ATOM     27  C   UNL     1      47.125   3.105   6.868  0.00  0.00    +0.000 A 
ATOM     28  C   UNL     1      46.213   3.886   7.579  0.00  0.00    +0.000 A 
ENDBRANCH  22  23
ENDBRANCH  17  22
ENDBRANCH  16  17
ENDBRANCH   4  16
TORSDOF 10
ENDMDL
MODEL 2
REMARK VINA RESULT:    -7.385      1.400      1.655
REMARK INTER + INTRA:         -12.395
REMARK INTER:                 -11.313
REMARK INTRA:                  -1.081
REMARK UNBOUND:                -0.908
REMARK  Name = 
REMARK  11 active torsions:
REMARK  status: ('A' for Active; 'I' for Inactive)
REMARK    1  A    between atoms: C_1  and  C_2
REMARK    2  A    between atoms: C_2  and  O_3
REMARK    3  A    between atoms: C_2  and  C_10
REMARK    4  A    between atoms: O_3  and  C_4
REMARK    5  A    between atoms: C_13  and  C_14
REMARK    6  A    between atoms: C_14  and  N_15
REMARK    7  A    between atoms: N_15  and  C_16
REMARK    8  A    between atoms: N_15  and  C_19
REMARK    9  A    between atoms: C_16  and  C_17
REMARK   10  A    between atoms: C_17  and  O_18
REMARK   11  A    between atoms: C_19  and  C_20
REMARK                            x       y       z     vdW  Elec       q    Type
REMARK                         _______ _______ _______ _____ _____    ______ ____
ROOT
ATOM      1  C   UNL     1      47.728   6.937  13.739  0.00  0.00    +0.000 A 
ATOM      2  C   UNL     1      46.861   7.945  13.321  0.00  0.00    +0.000 A 
ATOM      3  C   UNL     1      45.899   7.653  12.355  0.00  0.00    +0.000 A 
ATOM      4  C   UNL     1      45.815   6.362  11.831  0.00  0.00    +0.000 A 
ATOM      5  C   UNL     1      46.646   5.396  12.385  0.00  0.00    +0.000 A 
ATOM      6  N   UNL     1      47.593   5.654  13.313  0.00  0.00    +0.000 NA
ENDROOT
BRANCH   1   8
ATOM      7  C   UNL     1      50.087   7.817  13.822  0.00  0.00    +0.000 C 
ATOM      8  C   UNL     1      48.906   7.289  14.646  0.00  0.00    +0.000 C 
BRANCH   8   9
ATOM      9  O   UNL     1      49.269   6.118  15.376  0.00  0.00    +0.000 OA
BRANCH   9  10
ATOM     10  C   UNL     1      48.646   5.987  16.595  0.00  0.00    +0.000 A 
ATOM     11  N   UNL     1      48.048   4.829  16.929  0.00  0.00    +0.000 NA
ATOM     12  C   UNL     1      47.455   4.796  18.136  0.00  0.00    +0.000 A 
ATOM     13  C   UNL     1      47.450   5.858  19.008  0.00  0.00    +0.000 A 
ATOM     14  C   UNL     1      48.102   6.986  18.571  0.00  0.00    +0.000 A 
ATOM     15  N   UNL     1      48.709   7.075  17.374  0.00  0.00    +0.000 NA
ENDBRANCH   9  10
ENDBRANCH   8   9
ENDBRANCH   1   8
BRANCH   4  16
ATOM     16  C   UNL     1      44.922   6.038  10.658  0.00  0.00    +0.000 C 
BRANCH  16  17
ATOM     17  N   UNL     1      44.635   4.584  10.523  0.00  0.00    +0.000 NA
BRANCH  17  18
ATOM     18  C   UNL     1      43.446   4.209  11.333  0.00  0.00    +0.000 C 
BRANCH  18  19
ATOM     19  C   UNL     1      43.612   2.949  12.203  0.00  0.00    +0.000 C 
BRANCH  19  20
ATOM     20  O   UNL     1      42.873   1.860  11.653  0.00  0.00    +0.000 OA
ATOM     21  H   UNL     1      43.484   1.106  11.577  0.00  0.00    +0.000 HD
ENDBRANCH  19  20
ENDBRANCH  18  19
ENDBRANCH  17  18
BRANCH  17  22
ATOM     22  C   UNL     1      44.399   4.243   9.104  0.00  0.00    +0.000 C 
BRANCH  22  23
ATOM     23  C   UNL     1      45.420   3.321   8.476  0.00  0.00    +0.000 A 
ATOM     24  C   UNL     1      45.407   1.943   8.741  0.00  0.00    +0.000 A 
ATOM     25  C   UNL     1      46.293   1.089   8.080  0.00  0.00    +0.000 A 
ATOM     26  C   UNL     1      47.198   1.602   7.153  0.00  0.00    +0.000 A 
ATOM     27  C   UNL     1      47.230   2.970   6.894  0.00  0.00    +0.000 A 
ATOM     28  C   UNL     1      46.346   3.826   7.551  0.00  0.00    +0.000 A 
ENDBRANCH  22  23
ENDBRANCH  17  22
ENDBRANCH  16  17
ENDBRANCH   4  16
TORSDOF 10
ENDMDL
MODEL 3
REMARK VINA RESULT:    -7.336      1.628      2.330
REMARK INTER + INTRA:         -12.318
REMARK INTER:                 -11.348
REMARK INTRA:                  -0.970
REMARK UNBOUND:                -0.908
REMARK  Name = 
REMARK  11 active torsions:
REMARK  status: ('A' for Active; 'I' for Inactive)
REMARK    1  A    between atoms: C_1  and  C_2
REMARK    2  A    between atoms: C_2  and  O_3
REMARK    3  A    between atoms: C_2  and  C_10
REMARK    4  A    between atoms: O_3  and  C_4
REMARK    5  A    between atoms: C_13  and  C_14
REMARK    6  A    between atoms: C_14  and  N_15
REMARK    7  A    between atoms: N_15  and  C_16
REMARK    8  A    between atoms: N_15  and  C_19
REMARK    9  A    between atoms: C_16  and  C_17
REMARK   10  A    between atoms: C_17  and  O_18
REMARK   11  A    between atoms: C_19  and  C_20
REMARK                            x       y       z     vdW  Elec       q    Type
REMARK                         _______ _______ _______ _____ _____    ______ ____
ROOT
ATOM      1  C   UNL     1      47.441   4.380  15.028  0.00  0.00    +0.000 A 
ATOM      2  C   UNL     1      46.943   3.336  14.250  0.00  0.00    +0.000 A 
ATOM      3  C   UNL     1      46.298   3.635  13.051  0.00  0.00    +0.000 A 
ATOM      4  C   UNL     1      46.170   4.964  12.647  0.00  0.00    +0.000 A 
ATOM      5  C   UNL     1      46.791   5.930  13.428  0.00  0.00    +0.000 A 
ATOM      6  N   UNL     1      47.412   5.670  14.600  0.00  0.00    +0.000 NA
ENDROOT
BRANCH   1   8
ATOM      7  C   UNL     1      46.979   4.559  17.498  0.00  0.00    +0.000 C 
ATOM      8  C   UNL     1      47.972   4.085  16.429  0.00  0.00    +0.000 C 
BRANCH   8   9
ATOM      9  O   UNL     1      49.233   4.736  16.573  0.00  0.00    +0.000 OA
BRANCH   9  10
ATOM     10  C   UNL     1      50.247   3.926  17.030  0.00  0.00    +0.000 A 
ATOM     11  N   UNL     1      50.157   2.590  16.901  0.00  0.00    +0.000 NA
ATOM     12  C   UNL     1      51.189   1.877  17.385  0.00  0.00    +0.000 A 
ATOM     13  C   UNL     1      52.294   2.446  17.973  0.00  0.00    +0.000 A 
ATOM     14  C   UNL     1      52.289   3.818  18.039  0.00  0.00    +0.000 A 
ATOM     15  N   UNL     1      51.282   4.579  17.574  0.00  0.00    +0.000 NA
ENDBRANCH   9  10
ENDBRANCH   8   9
ENDBRANCH   1   8
BRANCH   4  16
ATOM     16  C   UNL     1      45.325   5.354  11.458  0.00  0.00    +0.000 C 
BRANCH  16  17
ATOM     17  N   UNL     1      44.584   4.208  10.863  0.00  0.00    +0.000 NA
BRANCH  17  18
ATOM     18  C   UNL     1      43.220   4.108  11.447  0.00  0.00    +0.000 C 
BRANCH  18  19
ATOM     19  C   UNL     1      42.624   5.431  11.963  0.00  0.00    +0.000 C 
BRANCH  19  20
ATOM     20  O   UNL     1      42.546   5.422  13.387  0.00  0.00    +0.000 OA
ATOM     21  H   UNL     1      42.051   4.625  13.644  0.00  0.00    +0.000 HD
ENDBRANCH  19  20
ENDBRANCH  18  19
ENDBRANCH  17  18
BRANCH  17  22
ATOM     22  C   UNL     1      44.487   4.373   9.397  0.00  0.00    +0.000 C 
BRANCH  22  23
ATOM     23  C   UNL     1      45.372   3.460   8.578  0.00  0.00    +0.000 A 
ATOM     24  C   UNL     1      46.264   3.981   7.629  0.00  0.00    +0.000 A 
ATOM     25  C   UNL     1      47.145   3.137   6.950  0.00  0.00    +0.000 A 
ATOM     26  C   UNL     1      47.142   1.768   7.211  0.00  0.00    +0.000 A 
ATOM     27  C   UNL     1      46.251   1.238   8.142  0.00  0.00    +0.000 A 
ATOM     28  C   UNL     1      45.371   2.079   8.822  0.00  0.00    +0.000 A 
ENDBRANCH  22  23
ENDBRANCH  17  22
ENDBRANCH  16  17
ENDBRANCH   4  16
TORSDOF 10
ENDMDL
MODEL 4
REMARK VINA RESULT:    -6.666      3.619      9.639
REMARK INTER + INTRA:         -11.276
REMARK INTER:                 -10.361
REMARK INTRA:                  -0.915
REMARK UNBOUND:                -0.908
REMARK  Name = 
REMARK  11 active torsions:
REMARK  status: ('A' for Active; 'I' for Inactive)
REMARK    1  A    between atoms: C_1  and  C_2
REMARK    2  A    between atoms: C_2  and  O_3
REMARK    3  A    between atoms: C_2  and  C_10
REMARK    4  A    between atoms: O_3  and  C_4
REMARK    5  A    between atoms: C_13  and  C_14
REMARK    6  A    between atoms: C_14  and  N_15
REMARK    7  A    between atoms: N_15  and  C_16
REMARK    8  A    between atoms: N_15  and  C_19
REMARK    9  A    between atoms: C_16  and  C_17
REMARK   10  A    between atoms: C_17  and  O_18
REMARK   11  A    between atoms: C_19  and  C_20
REMARK                            x       y       z     vdW  Elec       q    Type
REMARK                         _______ _______ _______ _____ _____    ______ ____
ROOT
ATOM      1  C   UNL     1      46.317   2.401   7.273  0.00  0.00    +0.000 A 
ATOM      2  C   UNL     1      45.812   1.509   8.219  0.00  0.00    +0.000 A 
ATOM      3  C   UNL     1      45.003   1.997   9.244  0.00  0.00    +0.000 A 
ATOM      4  C   UNL     1      44.708   3.360   9.303  0.00  0.00    +0.000 A 
ATOM      5  C   UNL     1      45.163   4.155   8.259  0.00  0.00    +0.000 A 
ATOM      6  N   UNL     1      45.957   3.711   7.260  0.00  0.00    +0.000 NA
ENDROOT
BRANCH   1   8
ATOM      7  C   UNL     1      48.720   2.567   6.535  0.00  0.00    +0.000 C 
ATOM      8  C   UNL     1      47.357   1.916   6.265  0.00  0.00    +0.000 C 
BRANCH   8   9
ATOM      9  O   UNL     1      46.886   2.231   4.955  0.00  0.00    +0.000 OA
BRANCH   9  10
ATOM     10  C   UNL     1      46.650   1.137   4.154  0.00  0.00    +0.000 A 
ATOM     11  N   UNL     1      47.258  -0.035   4.411  0.00  0.00    +0.000 NA
ATOM     12  C   UNL     1      46.976  -1.045   3.570  0.00  0.00    +0.000 A 
ATOM     13  C   UNL     1      46.114  -0.928   2.506  0.00  0.00    +0.000 A 
ATOM     14  C   UNL     1      45.538   0.309   2.345  0.00  0.00    +0.000 A 
ATOM     15  N   UNL     1      45.786   1.354   3.153  0.00  0.00    +0.000 NA
ENDBRANCH   9  10
ENDBRANCH   8   9
ENDBRANCH   1   8
BRANCH   4  16
ATOM     16  C   UNL     1      43.995   3.967  10.487  0.00  0.00    +0.000 C 
BRANCH  16  17
ATOM     17  N   UNL     1      44.680   5.172  11.030  0.00  0.00    +0.000 NA
BRANCH  17  18
ATOM     18  C   UNL     1      43.685   6.185  11.470  0.00  0.00    +0.000 C 
BRANCH  18  19
ATOM     19  C   UNL     1      42.375   5.616  12.048  0.00  0.00    +0.000 C 
BRANCH  19  20
ATOM     20  O   UNL     1      42.513   5.364  13.445  0.00  0.00    +0.000 OA
ATOM     21  H   UNL     1      43.466   5.339  13.641  0.00  0.00    +0.000 HD
ENDBRANCH  19  20
ENDBRANCH  18  19
ENDBRANCH  17  18
BRANCH  17  22
ATOM     22  C   UNL     1      45.544   4.794  12.169  0.00  0.00    +0.000 C 
BRANCH  22  23
ATOM     23  C   UNL     1      46.685   5.743  12.464  0.00  0.00    +0.000 A 
ATOM     24  C   UNL     1      47.117   6.671  11.505  0.00  0.00    +0.000 A 
ATOM     25  C   UNL     1      48.105   7.606  11.823  0.00  0.00    +0.000 A 
ATOM     26  C   UNL     1      48.668   7.621  13.098  0.00  0.00    +0.000 A 
ATOM     27  C   UNL     1      48.256   6.695  14.053  0.00  0.00    +0.000 A 
ATOM     28  C   UNL     1      47.269   5.761  13.739  0.00  0.00    +0.000 A 
ENDBRANCH  22  23
ENDBRANCH  17  22
ENDBRANCH  16  17
ENDBRANCH   4  16
TORSDOF 10
ENDMDL
MODEL 5
REMARK VINA RESULT:    -6.397      2.001      8.706
REMARK INTER + INTRA:         -10.857
REMARK INTER:                  -9.960
REMARK INTRA:                  -0.897
REMARK UNBOUND:                -0.908
REMARK  Name = 
REMARK  11 active torsions:
REMARK  status: ('A' for Active; 'I' for Inactive)
REMARK    1  A    between atoms: C_1  and  C_2
REMARK    2  A    between atoms: C_2  and  O_3
REMARK    3  A    between atoms: C_2  and  C_10
REMARK    4  A    between atoms: O_3  and  C_4
REMARK    5  A    between atoms: C_13  and  C_14
REMARK    6  A    between atoms: C_14  and  N_15
REMARK    7  A    between atoms: N_15  and  C_16
REMARK    8  A    between atoms: N_15  and  C_19
REMARK    9  A    between atoms: C_16  and  C_17
REMARK   10  A    between atoms: C_17  and  O_18
REMARK   11  A    between atoms: C_19  and  C_20
REMARK                            x       y       z     vdW  Elec       q    Type
REMARK                         _______ _______ _______ _____ _____    ______ ____
ROOT
ATOM      1  C   UNL     1      45.352   5.098  11.390  0.00  0.00    +0.000 A 
ATOM      2  C   UNL     1      46.133   6.129  10.871  0.00  0.00    +0.000 A 
ATOM      3  C   UNL     1      46.966   6.844  11.729  0.00  0.00    +0.000 A 
ATOM      4  C   UNL     1      47.011   6.513  13.084  0.00  0.00    +0.000 A 
ATOM      5  C   UNL     1      46.282   5.403  13.493  0.00  0.00    +0.000 A 
ATOM      6  N   UNL     1      45.459   4.700  12.685  0.00  0.00    +0.000 NA
ENDROOT
BRANCH   1   8
ATOM      7  C   UNL     1      42.904   4.557  11.142  0.00  0.00    +0.000 C 
ATOM      8  C   UNL     1      44.295   4.439  10.506  0.00  0.00    +0.000 C 
BRANCH   8   9
ATOM      9  O   UNL     1      44.661   3.073  10.318  0.00  0.00    +0.000 OA
BRANCH   9  10
ATOM     10  C   UNL     1      45.355   2.822   9.156  0.00  0.00    +0.000 A 
ATOM     11  N   UNL     1      45.855   1.596   8.918  0.00  0.00    +0.000 NA
ATOM     12  C   UNL     1      46.527   1.445   7.763  0.00  0.00    +0.000 A 
ATOM     13  C   UNL     1      46.703   2.457   6.850  0.00  0.00    +0.000 A 
ATOM     14  C   UNL     1      46.138   3.663   7.187  0.00  0.00    +0.000 A 
ATOM     15  N   UNL     1      45.459   3.871   8.329  0.00  0.00    +0.000 NA
ENDBRANCH   9  10
ENDBRANCH   8   9
ENDBRANCH   1   8
BRANCH   4  16
ATOM     16  C   UNL     1      47.750   7.368  14.086  0.00  0.00    +0.000 C 
BRANCH  16  17
ATOM     17  N   UNL     1      48.949   6.697  14.658  0.00  0.00    +0.000 NA
BRANCH  17  18
ATOM     18  C   UNL     1      50.188   7.423  14.274  0.00  0.00    +0.000 C 
BRANCH  18  19
ATOM     19  C   UNL     1      51.309   7.421  15.330  0.00  0.00    +0.000 C 
BRANCH  19  20
ATOM     20  O   UNL     1      52.579   7.619  14.713  0.00  0.00    +0.000 OA
ATOM     21  H   UNL     1      52.663   6.956  14.005  0.00  0.00    +0.000 HD
ENDBRANCH  19  20
ENDBRANCH  18  19
ENDBRANCH  17  18
BRANCH  17  22
ATOM     22  C   UNL     1      48.843   6.639  16.132  0.00  0.00    +0.000 C 
BRANCH  22  23
ATOM     23  C   UNL     1      48.705   5.252  16.721  0.00  0.00    +0.000 A 
ATOM     24  C   UNL     1      49.787   4.628  17.358  0.00  0.00    +0.000 A 
ATOM     25  C   UNL     1      49.620   3.390  17.983  0.00  0.00    +0.000 A 
ATOM     26  C   UNL     1      48.374   2.766  17.976  0.00  0.00    +0.000 A 
ATOM     27  C   UNL     1      47.296   3.371  17.334  0.00  0.00    +0.000 A 
ATOM     28  C   UNL     1      47.459   4.607  16.710  0.00  0.00    +0.000 A 
ENDBRANCH  22  23
ENDBRANCH  17  22
ENDBRANCH  16  17
ENDBRANCH   4  16
TORSDOF 10
ENDMDL
MODEL 6
REMARK VINA RESULT:    -6.231      2.306      3.613
REMARK INTER + INTRA:         -10.599
REMARK INTER:                  -9.178
REMARK INTRA:                  -1.421
REMARK UNBOUND:                -0.908
REMARK  Name = 
REMARK  11 active torsions:
REMARK  status: ('A' for Active; 'I' for Inactive)
REMARK    1  A    between atoms: C_1  and  C_2
REMARK    2  A    between atoms: C_2  and  O_3
REMARK    3  A    between atoms: C_2  and  C_10
REMARK    4  A    between atoms: O_3  and  C_4
REMARK    5  A    between atoms: C_13  and  C_14
REMARK    6  A    between atoms: C_14  and  N_15
REMARK    7  A    between atoms: N_15  and  C_16
REMARK    8  A    between atoms: N_15  and  C_19
REMARK    9  A    between atoms: C_16  and  C_17
REMARK   10  A    between atoms: C_17  and  O_18
REMARK   11  A    between atoms: C_19  and  C_20
REMARK                            x       y       z     vdW  Elec       q    Type
REMARK                         _______ _______ _______ _____ _____    ______ ____
ROOT
ATOM      1  C   UNL     1      47.984   4.818  16.138  0.00  0.00    +0.000 A 
ATOM      2  C   UNL     1      47.122   4.217  15.221  0.00  0.00    +0.000 A 
ATOM      3  C   UNL     1      46.850   4.869  14.020  0.00  0.00    +0.000 A 
ATOM      4  C   UNL     1      47.447   6.101  13.751  0.00  0.00    +0.000 A 
ATOM      5  C   UNL     1      48.376   6.572  14.671  0.00  0.00    +0.000 A 
ATOM      6  N   UNL     1      48.649   5.967  15.847  0.00  0.00    +0.000 NA
ENDROOT
BRANCH   1   8
ATOM      7  C   UNL     1      47.409   2.867  17.624  0.00  0.00    +0.000 C 
ATOM      8  C   UNL     1      48.137   4.215  17.532  0.00  0.00    +0.000 C 
BRANCH   8   9
ATOM      9  O   UNL     1      47.616   5.147  18.479  0.00  0.00    +0.000 OA
BRANCH   9  10
ATOM     10  C   UNL     1      48.482   5.474  19.496  0.00  0.00    +0.000 A 
ATOM     11  N   UNL     1      48.774   4.574  20.453  0.00  0.00    +0.000 NA
ATOM     12  C   UNL     1      49.621   4.984  21.413  0.00  0.00    +0.000 A 
ATOM     13  C   UNL     1      50.185   6.238  21.442  0.00  0.00    +0.000 A 
ATOM     14  C   UNL     1      49.830   7.070  20.409  0.00  0.00    +0.000 A 
ATOM     15  N   UNL     1      48.985   6.714  19.425  0.00  0.00    +0.000 NA
ENDBRANCH   9  10
ENDBRANCH   8   9
ENDBRANCH   1   8
BRANCH   4  16
ATOM     16  C   UNL     1      47.048   6.933  12.556  0.00  0.00    +0.000 C 
BRANCH  16  17
ATOM     17  N   UNL     1      45.631   7.387  12.605  0.00  0.00    +0.000 NA
BRANCH  17  18
ATOM     18  C   UNL     1      45.560   8.859  12.801  0.00  0.00    +0.000 C 
BRANCH  18  19
ATOM     19  C   UNL     1      44.790   9.633  11.714  0.00  0.00    +0.000 C 
BRANCH  19  20
ATOM     20  O   UNL     1      43.743  10.405  12.298  0.00  0.00    +0.000 OA
ATOM     21  H   UNL     1      42.943  10.258  11.763  0.00  0.00    +0.000 HD
ENDBRANCH  19  20
ENDBRANCH  18  19
ENDBRANCH  17  18
BRANCH  17  22
ATOM     22  C   UNL     1      44.937   7.018  11.353  0.00  0.00    +0.000 C 
BRANCH  22  23
ATOM     23  C   UNL     1      44.620   5.547  11.193  0.00  0.00    +0.000 A 
ATOM     24  C   UNL     1      43.790   4.884  12.109  0.00  0.00    +0.000 A 
ATOM     25  C   UNL     1      43.426   3.552  11.897  0.00  0.00    +0.000 A 
ATOM     26  C   UNL     1      43.888   2.873  10.771  0.00  0.00    +0.000 A 
ATOM     27  C   UNL     1      44.725   3.517   9.863  0.00  0.00    +0.000 A 
ATOM     28  C   UNL     1      45.089   4.847  10.071  0.00  0.00    +0.000 A 
ENDBRANCH  22  23
ENDBRANCH  17  22
ENDBRANCH  16  17
ENDBRANCH   4  16
TORSDOF 10
ENDMDL
MODEL 7
REMARK VINA RESULT:    -6.155      2.217      2.798
REMARK INTER + INTRA:         -10.482
REMARK INTER:                  -9.837
REMARK INTRA:                  -0.645
REMARK UNBOUND:                -0.908
REMARK  Name = 
REMARK  11 active torsions:
REMARK  status: ('A' for Active; 'I' for Inactive)
REMARK    1  A    between atoms: C_1  and  C_2
REMARK    2  A    between atoms: C_2  and  O_3
REMARK    3  A    between atoms: C_2  and  C_10
REMARK    4  A    between atoms: O_3  and  C_4
REMARK    5  A    between atoms: C_13  and  C_14
REMARK    6  A    between atoms: C_14  and  N_15
REMARK    7  A    between atoms: N_15  and  C_16
REMARK    8  A    between atoms: N_15  and  C_19
REMARK    9  A    between atoms: C_16  and  C_17
REMARK   10  A    between atoms: C_17  and  O_18
REMARK   11  A    between atoms: C_19  and  C_20
REMARK                            x       y       z     vdW  Elec       q    Type
REMARK                         _______ _______ _______ _____ _____    ______ ____
ROOT
ATOM      1  C   UNL     1      48.345   7.389  13.479  0.00  0.00    +0.000 A 
ATOM      2  C   UNL     1      47.355   8.297  13.104  0.00  0.00    +0.000 A 
ATOM      3  C   UNL     1      46.246   7.835  12.398  0.00  0.00    +0.000 A 
ATOM      4  C   UNL     1      46.141   6.479  12.086  0.00  0.00    +0.000 A 
ATOM      5  C   UNL     1      47.118   5.632  12.593  0.00  0.00    +0.000 A 
ATOM      6  N   UNL     1      48.208   6.054  13.270  0.00  0.00    +0.000 NA
ENDROOT
BRANCH   1   8
ATOM      7  C   UNL     1      50.655   8.256  12.970  0.00  0.00    +0.000 C 
ATOM      8  C   UNL     1      49.651   7.908  14.076  0.00  0.00    +0.000 C 
BRANCH   8   9
ATOM      9  O   UNL     1      50.171   6.904  14.946  0.00  0.00    +0.000 OA
BRANCH   9  10
ATOM     10  C   UNL     1      51.000   7.378  15.937  0.00  0.00    +0.000 A 
ATOM     11  N   UNL     1      52.321   7.125  15.893  0.00  0.00    +0.000 NA
ATOM     12  C   UNL     1      53.052   7.618  16.908  0.00  0.00    +0.000 A 
ATOM     13  C   UNL     1      52.518   8.351  17.941  0.00  0.00    +0.000 A 
ATOM     14  C   UNL     1      51.162   8.562  17.878  0.00  0.00    +0.000 A 
ATOM     15  N   UNL     1      50.383   8.090  16.889  0.00  0.00    +0.000 NA
ENDBRANCH   9  10
ENDBRANCH   8   9
ENDBRANCH   1   8
BRANCH   4  16
ATOM     16  C   UNL     1      45.061   5.957  11.169  0.00  0.00    +0.000 C 
BRANCH  16  17
ATOM     17  N   UNL     1      45.261   4.536  10.776  0.00  0.00    +0.000 NA
BRANCH  17  18
ATOM     18  C   UNL     1      44.619   3.625  11.760  0.00  0.00    +0.000 C 
BRANCH  18  19
ATOM     19  C   UNL     1      43.139   3.297  11.487  0.00  0.00    +0.000 C 
BRANCH  19  20
ATOM     20  O   UNL     1      42.899   1.900  11.644  0.00  0.00    +0.000 OA
ATOM     21  H   UNL     1      42.382   1.786  12.461  0.00  0.00    +0.000 HD
ENDBRANCH  19  20
ENDBRANCH  18  19
ENDBRANCH  17  18
BRANCH  17  22
ATOM     22  C   UNL     1      44.693   4.297   9.432  0.00  0.00    +0.000 C 
BRANCH  22  23
ATOM     23  C   UNL     1      45.492   3.371   8.541  0.00  0.00    +0.000 A 
ATOM     24  C   UNL     1      46.327   3.881   7.536  0.00  0.00    +0.000 A 
ATOM     25  C   UNL     1      47.134   3.022   6.786  0.00  0.00    +0.000 A 
ATOM     26  C   UNL     1      47.112   1.651   7.032  0.00  0.00    +0.000 A 
ATOM     27  C   UNL     1      46.276   1.132   8.018  0.00  0.00    +0.000 A 
ATOM     28  C   UNL     1      45.470   1.987   8.769  0.00  0.00    +0.000 A 
ENDBRANCH  22  23
ENDBRANCH  17  22
ENDBRANCH  16  17
ENDBRANCH   4  16
TORSDOF 10
ENDMDL
MODEL 8
REMARK VINA RESULT:    -6.148      1.311      2.089
REMARK INTER + INTRA:         -10.471
REMARK INTER:                 -10.012
REMARK INTRA:                  -0.460
REMARK UNBOUND:                -0.908
REMARK  Name = 
REMARK  11 active torsions:
REMARK  status: ('A' for Active; 'I' for Inactive)
REMARK    1  A    between atoms: C_1  and  C_2
REMARK    2  A    between atoms: C_2  and  O_3
REMARK    3  A    between atoms: C_2  and  C_10
REMARK    4  A    between atoms: O_3  and  C_4
REMARK    5  A    between atoms: C_13  and  C_14
REMARK    6  A    between atoms: C_14  and  N_15
REMARK    7  A    between atoms: N_15  and  C_16
REMARK    8  A    between atoms: N_15  and  C_19
REMARK    9  A    between atoms: C_16  and  C_17
REMARK   10  A    between atoms: C_17  and  O_18
REMARK   11  A    between atoms: C_19  and  C_20
REMARK                            x       y       z     vdW  Elec       q    Type
REMARK                         _______ _______ _______ _____ _____    ______ ____
ROOT
ATOM      1  C   UNL     1      47.951   5.053  15.421  0.00  0.00    +0.000 A 
ATOM      2  C   UNL     1      47.003   4.089  15.078  0.00  0.00    +0.000 A 
ATOM      3  C   UNL     1      46.270   4.250  13.903  0.00  0.00    +0.000 A 
ATOM      4  C   UNL     1      46.500   5.361  13.091  0.00  0.00    +0.000 A 
ATOM      5  C   UNL     1      47.537   6.211  13.454  0.00  0.00    +0.000 A 
ATOM      6  N   UNL     1      48.255   6.086  14.591  0.00  0.00    +0.000 NA
ENDROOT
BRANCH   1   8
ATOM      7  C   UNL     1      48.416   3.616  17.437  0.00  0.00    +0.000 C 
ATOM      8  C   UNL     1      48.617   4.994  16.793  0.00  0.00    +0.000 C 
BRANCH   8   9
ATOM      9  O   UNL     1      48.059   6.028  17.603  0.00  0.00    +0.000 OA
BRANCH   9  10
ATOM     10  C   UNL     1      48.448   5.994  18.923  0.00  0.00    +0.000 A 
ATOM     11  N   UNL     1      49.751   6.071  19.246  0.00  0.00    +0.000 NA
ATOM     12  C   UNL     1      50.039   6.020  20.559  0.00  0.00    +0.000 A 
ATOM     13  C   UNL     1      49.084   5.908  21.541  0.00  0.00    +0.000 A 
ATOM     14  C   UNL     1      47.784   5.853  21.099  0.00  0.00    +0.000 A 
ATOM     15  N   UNL     1      47.440   5.897  19.800  0.00  0.00    +0.000 NA
ENDBRANCH   9  10
ENDBRANCH   8   9
ENDBRANCH   1   8
BRANCH   4  16
ATOM     16  C   UNL     1      45.613   5.679  11.911  0.00  0.00    +0.000 C 
BRANCH  16  17
ATOM     17  N   UNL     1      44.988   4.472  11.304  0.00  0.00    +0.000 NA
BRANCH  17  18
ATOM     18  C   UNL     1      43.715   4.138  11.995  0.00  0.00    +0.000 C 
BRANCH  18  19
ATOM     19  C   UNL     1      42.854   5.346  12.412  0.00  0.00    +0.000 C 
BRANCH  19  20
ATOM     20  O   UNL     1      41.731   5.483  11.543  0.00  0.00    +0.000 OA
ATOM     21  H   UNL     1      41.104   6.088  11.976  0.00  0.00    +0.000 HD
ENDBRANCH  19  20
ENDBRANCH  18  19
ENDBRANCH  17  18
BRANCH  17  22
ATOM     22  C   UNL     1      44.729   4.704   9.867  0.00  0.00    +0.000 C 
BRANCH  22  23
ATOM     23  C   UNL     1      45.404   3.737   8.919  0.00  0.00    +0.000 A 
ATOM     24  C   UNL     1      46.195   4.202   7.858  0.00  0.00    +0.000 A 
ATOM     25  C   UNL     1      46.892   3.301   7.049  0.00  0.00    +0.000 A 
ATOM     26  C   UNL     1      46.803   1.932   7.292  0.00  0.00    +0.000 A 
ATOM     27  C   UNL     1      46.008   1.459   8.333  0.00  0.00    +0.000 A 
ATOM     28  C   UNL     1      45.312   2.356   9.143  0.00  0.00    +0.000 A 
ENDBRANCH  22  23
ENDBRANCH  17  22
ENDBRANCH  16  17
ENDBRANCH   4  16
TORSDOF 10
ENDMDL
MODEL 9
REMARK VINA RESULT:    -6.124      2.384      3.702
REMARK INTER + INTRA:         -10.433
REMARK INTER:                  -9.151
REMARK INTRA:                  -1.282
REMARK UNBOUND:                -0.908
REMARK  Name = 
REMARK  11 active torsions:
REMARK  status: ('A' for Active; 'I' for Inactive)
REMARK    1  A    between atoms: C_1  and  C_2
REMARK    2  A    between atoms: C_2  and  O_3
REMARK    3  A    between atoms: C_2  and  C_10
REMARK    4  A    between atoms: O_3  and  C_4
REMARK    5  A    between atoms: C_13  and  C_14
REMARK    6  A    between atoms: C_14  and  N_15
REMARK    7  A    between atoms: N_15  and  C_16
REMARK    8  A    between atoms: N_15  and  C_19
REMARK    9  A    between atoms: C_16  and  C_17
REMARK   10  A    between atoms: C_17  and  O_18
REMARK   11  A    between atoms: C_19  and  C_20
REMARK                            x       y       z     vdW  Elec       q    Type
REMARK                         _______ _______ _______ _____ _____    ______ ____
ROOT
ATOM      1  C   UNL     1      48.395   5.266  15.895  0.00  0.00    +0.000 A 
ATOM      2  C   UNL     1      47.389   4.576  15.219  0.00  0.00    +0.000 A 
ATOM      3  C   UNL     1      46.880   5.109  14.037  0.00  0.00    +0.000 A 
ATOM      4  C   UNL     1      47.387   6.313  13.546  0.00  0.00    +0.000 A 
ATOM      5  C   UNL     1      48.461   6.875  14.225  0.00  0.00    +0.000 A 
ATOM      6  N   UNL     1      48.966   6.386  15.379  0.00  0.00    +0.000 NA
ENDROOT
BRANCH   1   8
ATOM      7  C   UNL     1      48.104   5.607  18.375  0.00  0.00    +0.000 C 
ATOM      8  C   UNL     1      48.822   4.799  17.285  0.00  0.00    +0.000 C 
BRANCH   8   9
ATOM      9  O   UNL     1      50.238   4.943  17.386  0.00  0.00    +0.000 OA
BRANCH   9  10
ATOM     10  C   UNL     1      50.926   3.757  17.513  0.00  0.00    +0.000 A 
ATOM     11  N   UNL     1      50.382   2.609  17.071  0.00  0.00    +0.000 NA
ATOM     12  C   UNL     1      51.121   1.499  17.246  0.00  0.00    +0.000 A 
ATOM     13  C   UNL     1      52.367   1.501  17.827  0.00  0.00    +0.000 A 
ATOM     14  C   UNL     1      52.831   2.731  18.227  0.00  0.00    +0.000 A 
ATOM     15  N   UNL     1      52.134   3.871  18.080  0.00  0.00    +0.000 NA
ENDBRANCH   9  10
ENDBRANCH   8   9
ENDBRANCH   1   8
BRANCH   4  16
ATOM     16  C   UNL     1      46.750   7.025  12.378  0.00  0.00    +0.000 C 
BRANCH  16  17
ATOM     17  N   UNL     1      45.304   7.315  12.584  0.00  0.00    +0.000 NA
BRANCH  17  18
ATOM     18  C   UNL     1      45.095   8.759  12.868  0.00  0.00    +0.000 C 
BRANCH  18  19
ATOM     19  C   UNL     1      44.723   9.624  11.649  0.00  0.00    +0.000 C 
BRANCH  19  20
ATOM     20  O   UNL     1      43.875  10.701  12.040  0.00  0.00    +0.000 OA
ATOM     21  H   UNL     1      43.142  10.738  11.402  0.00  0.00    +0.000 HD
ENDBRANCH  19  20
ENDBRANCH  18  19
ENDBRANCH  17  18
BRANCH  17  22
ATOM     22  C   UNL     1      44.533   6.927  11.383  0.00  0.00    +0.000 C 
BRANCH  22  23
ATOM     23  C   UNL     1      44.409   5.439  11.142  0.00  0.00    +0.000 A 
ATOM     24  C   UNL     1      43.656   4.628  12.004  0.00  0.00    +0.000 A 
ATOM     25  C   UNL     1      43.468   3.275  11.716  0.00  0.00    +0.000 A 
ATOM     26  C   UNL     1      44.030   2.720  10.568  0.00  0.00    +0.000 A 
ATOM     27  C   UNL     1      44.792   3.512   9.712  0.00  0.00    +0.000 A 
ATOM     28  C   UNL     1      44.980   4.865   9.996  0.00  0.00    +0.000 A 
ENDBRANCH  22  23
ENDBRANCH  17  22
ENDBRANCH  16  17
ENDBRANCH   4  16
TORSDOF 10
ENDMDL
