MODEL 1
REMARK VINA RESULT:    -8.019      0.000      0.000
REMARK INTER + INTRA:         -12.396
REMARK INTER:                 -11.300
REMARK INTRA:                  -1.096
REMARK UNBOUND:                -1.096
REMARK  Name = 
REMARK  8 active torsions:
REMARK  status: ('A' for Active; 'I' for Inactive)
REMARK    1  A    between atoms: C_1  and  C_2
REMARK    2  A    between atoms: C_2  and  C_3
REMARK    3  A    between atoms: C_2  and  C_14
REMARK    4  A    between atoms: C_3  and  O_4
REMARK    5  A    between atoms: O_4  and  C_5
REMARK    6  A    between atoms: C_8  and  C_9
REMARK    7  A    between atoms: C_18  and  O_19
REMARK    8  A    between atoms: O_19  and  C_20
REMARK                            x       y       z     vdW  Elec       q    Type
REMARK                         _______ _______ _______ _____ _____    ______ ____
ROOT
ATOM      1  C   UNL     1      43.606   3.923  12.896  0.00  0.00    +0.000 C 
ATOM      2  C   UNL     1      43.932   5.188  12.090  0.00  0.00    +0.000 C 
ENDROOT
BRANCH   2   3
ATOM      3  C   UNL     1      45.383   5.581  12.328  0.00  0.00    +0.000 A 
ATOM      4  C   UNL     1      46.052   6.395  11.406  0.00  0.00    +0.000 A 
ATOM      5  C   UNL     1      47.358   6.825  11.658  0.00  0.00    +0.000 A 
ATOM      6  C   UNL     1      48.013   6.446  12.834  0.00  0.00    +0.000 A 
ATOM      7  C   UNL     1      47.365   5.622  13.747  0.00  0.00    +0.000 A 
ATOM      8  C   UNL     1      46.058   5.193  13.494  0.00  0.00    +0.000 A 
BRANCH   7   9
ATOM      9  O   UNL     1      47.876   5.219  14.951  0.00  0.00    +0.000 OA
BRANCH   9  10
ATOM     10  C   UNL     1      47.170   4.219  15.719  0.00  0.00    +0.000 C 
ATOM     11  C   UNL     1      47.091   4.397  17.248  0.00  0.00    +0.000 C 
ATOM     12  N   UNL     1      47.617   3.037  17.449  0.00  0.00    +0.000 NA
ATOM     13  C   UNL     1      48.004   2.959  16.034  0.00  0.00    +0.000 C 
ATOM     14  H   UNL     1      46.912   2.353  17.722  0.00  0.00    +0.000 HD
ENDBRANCH   9  10
ENDBRANCH   7   9
ENDBRANCH   2   3
BRANCH   2  15
ATOM     15  C   UNL     1      43.594   4.988  10.599  0.00  0.00    +0.000 C 
BRANCH  15  16
ATOM     16  O   UNL     1      43.520   3.584  10.303  0.00  0.00    +0.000 OA
BRANCH  16  17
ATOM     17  C   UNL     1      44.523   3.161   9.452  0.00  0.00    +0.000 A 
ATOM     18  C   UNL     1      45.152   4.140   8.693  0.00  0.00    +0.000 A 
ATOM     19  C   UNL     1      46.131   3.748   7.774  0.00  0.00    +0.000 A 
ATOM     20  C   UNL     1      46.444   2.394   7.647  0.00  0.00    +0.000 A 
ATOM     21  C   UNL     1      45.764   1.494   8.461  0.00  0.00    +0.000 A 
ATOM     22  N   UNL     1      44.817   1.847   9.364  0.00  0.00    +0.000 NA
BRANCH  20  23
ATOM     23  C   UNL     1      47.409   1.855   6.662  0.00  0.00    +0.000 C 
ATOM     24  N   UNL     1      48.516   2.605   6.379  0.00  0.00    +0.000 N 
ATOM     25  O   UNL     1      47.232   0.772   6.126  0.00  0.00    +0.000 OA
ATOM     26  H   UNL     1      48.817   3.388   6.940  0.00  0.00    +0.000 HD
ATOM     27  H   UNL     1      49.198   2.179   5.762  0.00  0.00    +0.000 HD
ENDBRANCH  20  23
ENDBRANCH  16  17
ENDBRANCH  15  16
ENDBRANCH   2  15
TORSDOF 7
ENDMDL
MODEL 2
REMARK VINA RESULT:    -7.067      1.590      1.874
REMARK INTER + INTRA:         -11.056
REMARK INTER:                 -10.182
REMARK INTRA:                  -0.874
REMARK UNBOUND:                -1.096
REMARK  Name = 
REMARK  8 active torsions:
REMARK  status: ('A' for Active; 'I' for Inactive)
REMARK    1  A    between atoms: C_1  and  C_2
REMARK    2  A    between atoms: C_2  and  C_3
REMARK    3  A    between atoms: C_2  and  C_14
REMARK    4  A    between atoms: C_3  and  O_4
REMARK    5  A    between atoms: O_4  and  C_5
REMARK    6  A    between atoms: C_8  and  C_9
REMARK    7  A    between atoms: C_18  and  O_19
REMARK    8  A    between atoms: O_19  and  C_20
REMARK                            x       y       z     vdW  Elec       q    Type
REMARK                         _______ _______ _______ _____ _____    ______ ____
ROOT
ATOM      1  C   UNL     1      43.172   4.307  13.594  0.00  0.00    +0.000 C 
ATOM      2  C   UNL     1      43.583   4.622  12.148  0.00  0.00    +0.000 C 
ENDROOT
BRANCH   2   3
ATOM      3  C   UNL     1      44.741   5.608  12.154  0.00  0.00    +0.000 A 
ATOM      4  C   UNL     1      44.624   6.835  11.490  0.00  0.00    +0.000 A 
ATOM      5  C   UNL     1      45.654   7.778  11.558  0.00  0.00    +0.000 A 
ATOM      6  C   UNL     1      46.814   7.508  12.291  0.00  0.00    +0.000 A 
ATOM      7  C   UNL     1      46.948   6.285  12.939  0.00  0.00    +0.000 A 
ATOM      8  C   UNL     1      45.918   5.343  12.870  0.00  0.00    +0.000 A 
BRANCH   7   9
ATOM      9  O   UNL     1      48.008   5.918  13.724  0.00  0.00    +0.000 OA
BRANCH   9  10
ATOM     10  C   UNL     1      48.477   6.823  14.748  0.00  0.00    +0.000 C 
ATOM     11  C   UNL     1      49.956   7.254  14.717  0.00  0.00    +0.000 C 
ATOM     12  N   UNL     1      50.120   6.844  16.121  0.00  0.00    +0.000 NA
ATOM     13  C   UNL     1      48.832   6.137  16.083  0.00  0.00    +0.000 C 
ATOM     14  H   UNL     1      50.145   7.619  16.783  0.00  0.00    +0.000 HD
ENDBRANCH   9  10
ENDBRANCH   7   9
ENDBRANCH   2   3
BRANCH   2  15
ATOM     15  C   UNL     1      43.894   3.325  11.375  0.00  0.00    +0.000 C 
BRANCH  15  16
ATOM     16  O   UNL     1      43.608   3.512   9.980  0.00  0.00    +0.000 OA
BRANCH  16  17
ATOM     17  C   UNL     1      44.643   3.103   9.161  0.00  0.00    +0.000 A 
ATOM     18  C   UNL     1      45.240   4.080   8.374  0.00  0.00    +0.000 A 
ATOM     19  C   UNL     1      46.251   3.700   7.485  0.00  0.00    +0.000 A 
ATOM     20  C   UNL     1      46.626   2.357   7.414  0.00  0.00    +0.000 A 
ATOM     21  C   UNL     1      45.974   1.459   8.251  0.00  0.00    +0.000 A 
ATOM     22  N   UNL     1      44.998   1.802   9.127  0.00  0.00    +0.000 NA
BRANCH  20  23
ATOM     23  C   UNL     1      47.630   1.826   6.464  0.00  0.00    +0.000 C 
ATOM     24  N   UNL     1      48.755   2.572   6.243  0.00  0.00    +0.000 N 
ATOM     25  O   UNL     1      47.469   0.754   5.903  0.00  0.00    +0.000 OA
ATOM     26  H   UNL     1      49.036   3.343   6.831  0.00  0.00    +0.000 HD
ATOM     27  H   UNL     1      49.460   2.151   5.651  0.00  0.00    +0.000 HD
ENDBRANCH  20  23
ENDBRANCH  16  17
ENDBRANCH  15  16
ENDBRANCH   2  15
TORSDOF 7
ENDMDL
MODEL 3
REMARK VINA RESULT:    -6.916      2.500      3.538
REMARK INTER + INTRA:         -10.843
REMARK INTER:                  -9.927
REMARK INTRA:                  -0.916
REMARK UNBOUND:                -1.096
REMARK  Name = 
REMARK  8 active torsions:
REMARK  status: ('A' for Active; 'I' for Inactive)
REMARK    1  A    between atoms: C_1  and  C_2
REMARK    2  A    between atoms: C_2  and  C_3
REMARK    3  A    between atoms: C_2  and  C_14
REMARK    4  A    between atoms: C_3  and  O_4
REMARK    5  A    between atoms: O_4  and  C_5
REMARK    6  A    between atoms: C_8  and  C_9
REMARK    7  A    between atoms: C_18  and  O_19
REMARK    8  A    between atoms: O_19  and  C_20
REMARK                            x       y       z     vdW  Elec       q    Type
REMARK                         _______ _______ _______ _____ _____    ______ ____
ROOT
ATOM      1  C   UNL     1      43.321   3.648  12.818  0.00  0.00    +0.000 C 
ATOM      2  C   UNL     1      43.719   4.922  12.059  0.00  0.00    +0.000 C 
ENDROOT
BRANCH   2   3
ATOM      3  C   UNL     1      45.089   5.385  12.531  0.00  0.00    +0.000 A 
ATOM      4  C   UNL     1      45.777   4.662  13.513  0.00  0.00    +0.000 A 
ATOM      5  C   UNL     1      47.069   5.036  13.893  0.00  0.00    +0.000 A 
ATOM      6  C   UNL     1      47.691   6.139  13.298  0.00  0.00    +0.000 A 
ATOM      7  C   UNL     1      47.009   6.875  12.336  0.00  0.00    +0.000 A 
ATOM      8  C   UNL     1      45.717   6.499  11.957  0.00  0.00    +0.000 A 
BRANCH   7   9
ATOM      9  O   UNL     1      47.520   7.942  11.648  0.00  0.00    +0.000 OA
BRANCH   9  10
ATOM     10  C   UNL     1      48.340   8.906  12.346  0.00  0.00    +0.000 C 
ATOM     11  C   UNL     1      48.022  10.403  12.159  0.00  0.00    +0.000 C 
ATOM     12  N   UNL     1      49.421  10.669  11.786  0.00  0.00    +0.000 NA
ATOM     13  C   UNL     1      49.674   9.229  11.641  0.00  0.00    +0.000 C 
ATOM     14  H   UNL     1      49.972  11.112  12.521  0.00  0.00    +0.000 HD
ENDBRANCH   9  10
ENDBRANCH   7   9
ENDBRANCH   2   3
BRANCH   2  15
ATOM     15  C   UNL     1      43.646   4.696  10.536  0.00  0.00    +0.000 C 
BRANCH  15  16
ATOM     16  O   UNL     1      43.824   3.301  10.243  0.00  0.00    +0.000 OA
BRANCH  16  17
ATOM     17  C   UNL     1      44.774   3.075   9.265  0.00  0.00    +0.000 A 
ATOM     18  C   UNL     1      45.104   4.154   8.454  0.00  0.00    +0.000 A 
ATOM     19  C   UNL     1      46.016   3.955   7.413  0.00  0.00    +0.000 A 
ATOM     20  C   UNL     1      46.561   2.685   7.218  0.00  0.00    +0.000 A 
ATOM     21  C   UNL     1      46.173   1.674   8.090  0.00  0.00    +0.000 A 
ATOM     22  N   UNL     1      45.299   1.842   9.113  0.00  0.00    +0.000 NA
BRANCH  20  23
ATOM     23  C   UNL     1      47.478   2.337   6.109  0.00  0.00    +0.000 C 
ATOM     24  N   UNL     1      48.822   2.428   6.342  0.00  0.00    +0.000 N 
ATOM     25  O   UNL     1      47.054   1.970   5.024  0.00  0.00    +0.000 OA
ATOM     26  H   UNL     1      49.224   2.514   7.264  0.00  0.00    +0.000 HD
ATOM     27  H   UNL     1      49.427   2.111   5.594  0.00  0.00    +0.000 HD
ENDBRANCH  20  23
ENDBRANCH  16  17
ENDBRANCH  15  16
ENDBRANCH   2  15
TORSDOF 7
ENDMDL
MODEL 4
REMARK VINA RESULT:    -6.743      2.114      2.626
REMARK INTER + INTRA:         -10.598
REMARK INTER:                  -9.626
REMARK INTRA:                  -0.972
REMARK UNBOUND:                -1.096
REMARK  Name = 
REMARK  8 active torsions:
REMARK  status: ('A' for Active; 'I' for Inactive)
REMARK    1  A    between atoms: C_1  and  C_2
REMARK    2  A    between atoms: C_2  and  C_3
REMARK    3  A    between atoms: C_2  and  C_14
REMARK    4  A    between atoms: C_3  and  O_4
REMARK    5  A    between atoms: O_4  and  C_5
REMARK    6  A    between atoms: C_8  and  C_9
REMARK    7  A    between atoms: C_18  and  O_19
REMARK    8  A    between atoms: O_19  and  C_20
REMARK                            x       y       z     vdW  Elec       q    Type
REMARK                         _______ _______ _______ _____ _____    ______ ____
ROOT
ATOM      1  C   UNL     1      44.629   7.500  11.412  0.00  0.00    +0.000 C 
ATOM      2  C   UNL     1      45.041   6.041  11.169  0.00  0.00    +0.000 C 
ENDROOT
BRANCH   2   3
ATOM      3  C   UNL     1      45.880   5.551  12.340  0.00  0.00    +0.000 A 
ATOM      4  C   UNL     1      45.751   4.233  12.796  0.00  0.00    +0.000 A 
ATOM      5  C   UNL     1      46.574   3.753  13.818  0.00  0.00    +0.000 A 
ATOM      6  C   UNL     1      47.539   4.583  14.398  0.00  0.00    +0.000 A 
ATOM      7  C   UNL     1      47.663   5.899  13.966  0.00  0.00    +0.000 A 
ATOM      8  C   UNL     1      46.839   6.377  12.944  0.00  0.00    +0.000 A 
BRANCH   7   9
ATOM      9  O   UNL     1      48.594   6.795  14.418  0.00  0.00    +0.000 OA
BRANCH   9  10
ATOM     10  C   UNL     1      48.850   6.894  15.837  0.00  0.00    +0.000 C 
ATOM     11  C   UNL     1      48.981   8.299  16.456  0.00  0.00    +0.000 C 
ATOM     12  N   UNL     1      50.275   7.931  17.054  0.00  0.00    +0.000 NA
ATOM     13  C   UNL     1      50.333   6.720  16.225  0.00  0.00    +0.000 C 
ATOM     14  H   UNL     1      50.233   7.743  18.056  0.00  0.00    +0.000 HD
ENDBRANCH   9  10
ENDBRANCH   7   9
ENDBRANCH   2   3
BRANCH   2  15
ATOM     15  C   UNL     1      43.805   5.162  10.899  0.00  0.00    +0.000 C 
BRANCH  15  16
ATOM     16  O   UNL     1      43.628   4.994   9.483  0.00  0.00    +0.000 OA
BRANCH  16  17
ATOM     17  C   UNL     1      44.443   4.012   8.953  0.00  0.00    +0.000 A 
ATOM     18  C   UNL     1      44.345   2.747   9.519  0.00  0.00    +0.000 A 
ATOM     19  C   UNL     1      45.194   1.738   9.054  0.00  0.00    +0.000 A 
ATOM     20  C   UNL     1      46.111   2.030   8.044  0.00  0.00    +0.000 A 
ATOM     21  C   UNL     1      46.123   3.325   7.536  0.00  0.00    +0.000 A 
ATOM     22  N   UNL     1      45.306   4.319   7.962  0.00  0.00    +0.000 NA
BRANCH  20  23
ATOM     23  C   UNL     1      47.106   1.066   7.522  0.00  0.00    +0.000 C 
ATOM     24  N   UNL     1      48.194   1.567   6.862  0.00  0.00    +0.000 N 
ATOM     25  O   UNL     1      46.970  -0.137   7.683  0.00  0.00    +0.000 OA
ATOM     26  H   UNL     1      48.462   2.539   6.889  0.00  0.00    +0.000 HD
ATOM     27  H   UNL     1      48.897   0.893   6.584  0.00  0.00    +0.000 HD
ENDBRANCH  20  23
ENDBRANCH  16  17
ENDBRANCH  15  16
ENDBRANCH   2  15
TORSDOF 7
ENDMDL
MODEL 5
REMARK VINA RESULT:    -6.740      3.229      4.508
REMARK INTER + INTRA:         -10.594
REMARK INTER:                  -9.904
REMARK INTRA:                  -0.690
REMARK UNBOUND:                -1.096
REMARK  Name = 
REMARK  8 active torsions:
REMARK  status: ('A' for Active; 'I' for Inactive)
REMARK    1  A    between atoms: C_1  and  C_2
REMARK    2  A    between atoms: C_2  and  C_3
REMARK    3  A    between atoms: C_2  and  C_14
REMARK    4  A    between atoms: C_3  and  O_4
REMARK    5  A    between atoms: O_4  and  C_5
REMARK    6  A    between atoms: C_8  and  C_9
REMARK    7  A    between atoms: C_18  and  O_19
REMARK    8  A    between atoms: O_19  and  C_20
REMARK                            x       y       z     vdW  Elec       q    Type
REMARK                         _______ _______ _______ _____ _____    ______ ____
ROOT
ATOM      1  C   UNL     1      45.559   3.371  12.714  0.00  0.00    +0.000 C 
ATOM      2  C   UNL     1      44.641   4.574  12.457  0.00  0.00    +0.000 C 
ENDROOT
BRANCH   2   3
ATOM      3  C   UNL     1      45.473   5.848  12.423  0.00  0.00    +0.000 A 
ATOM      4  C   UNL     1      46.844   5.786  12.146  0.00  0.00    +0.000 A 
ATOM      5  C   UNL     1      47.598   6.958  12.035  0.00  0.00    +0.000 A 
ATOM      6  C   UNL     1      46.991   8.207  12.200  0.00  0.00    +0.000 A 
ATOM      7  C   UNL     1      45.634   8.279  12.494  0.00  0.00    +0.000 A 
ATOM      8  C   UNL     1      44.882   7.106  12.604  0.00  0.00    +0.000 A 
BRANCH   7   9
ATOM      9  O   UNL     1      44.915   9.436  12.631  0.00  0.00    +0.000 OA
BRANCH   9  10
ATOM     10  C   UNL     1      44.675  10.262  11.470  0.00  0.00    +0.000 C 
ATOM     11  C   UNL     1      45.124  11.735  11.519  0.00  0.00    +0.000 C 
ATOM     12  N   UNL     1      43.776  12.175  11.125  0.00  0.00    +0.000 NA
ATOM     13  C   UNL     1      43.243  10.830  11.383  0.00  0.00    +0.000 C 
ATOM     14  H   UNL     1      43.700  12.468  10.152  0.00  0.00    +0.000 HD
ENDBRANCH   9  10
ENDBRANCH   7   9
ENDBRANCH   2   3
BRANCH   2  15
ATOM     15  C   UNL     1      43.806   4.360  11.179  0.00  0.00    +0.000 C 
BRANCH  15  16
ATOM     16  O   UNL     1      44.388   5.094  10.090  0.00  0.00    +0.000 OA
BRANCH  16  17
ATOM     17  C   UNL     1      45.081   4.287   9.208  0.00  0.00    +0.000 A 
ATOM     18  C   UNL     1      44.913   2.915   9.353  0.00  0.00    +0.000 A 
ATOM     19  C   UNL     1      45.642   2.059   8.521  0.00  0.00    +0.000 A 
ATOM     20  C   UNL     1      46.513   2.605   7.578  0.00  0.00    +0.000 A 
ATOM     21  C   UNL     1      46.602   3.991   7.505  0.00  0.00    +0.000 A 
ATOM     22  N   UNL     1      45.901   4.843   8.293  0.00  0.00    +0.000 NA
BRANCH  20  23
ATOM     23  C   UNL     1      47.387   1.801   6.693  0.00  0.00    +0.000 C 
ATOM     24  N   UNL     1      48.292   2.468   5.915  0.00  0.00    +0.000 N 
ATOM     25  O   UNL     1      47.314   0.583   6.665  0.00  0.00    +0.000 OA
ATOM     26  H   UNL     1      48.540   3.437   6.054  0.00  0.00    +0.000 HD
ATOM     27  H   UNL     1      48.929   1.892   5.378  0.00  0.00    +0.000 HD
ENDBRANCH  20  23
ENDBRANCH  16  17
ENDBRANCH  15  16
ENDBRANCH   2  15
TORSDOF 7
ENDMDL
MODEL 6
REMARK VINA RESULT:    -6.456      2.398      8.047
REMARK INTER + INTRA:         -10.194
REMARK INTER:                  -9.679
REMARK INTRA:                  -0.515
REMARK UNBOUND:                -1.096
REMARK  Name = 
REMARK  8 active torsions:
REMARK  status: ('A' for Active; 'I' for Inactive)
REMARK    1  A    between atoms: C_1  and  C_2
REMARK    2  A    between atoms: C_2  and  C_3
REMARK    3  A    between atoms: C_2  and  C_14
REMARK    4  A    between atoms: C_3  and  O_4
REMARK    5  A    between atoms: O_4  and  C_5
REMARK    6  A    between atoms: C_8  and  C_9
REMARK    7  A    between atoms: C_18  and  O_19
REMARK    8  A    between atoms: O_19  and  C_20
REMARK                            x       y       z     vdW  Elec       q    Type
REMARK                         _______ _______ _______ _____ _____    ______ ____
ROOT
ATOM      1  C   UNL     1      47.499   5.906  13.062  0.00  0.00    +0.000 C 
ATOM      2  C   UNL     1      46.323   5.304  13.844  0.00  0.00    +0.000 C 
ENDROOT
BRANCH   2   3
ATOM      3  C   UNL     1      45.231   4.881  12.872  0.00  0.00    +0.000 A 
ATOM      4  C   UNL     1      43.938   5.402  12.996  0.00  0.00    +0.000 A 
ATOM      5  C   UNL     1      42.951   5.079  12.060  0.00  0.00    +0.000 A 
ATOM      6  C   UNL     1      43.244   4.232  10.987  0.00  0.00    +0.000 A 
ATOM      7  C   UNL     1      44.520   3.695  10.864  0.00  0.00    +0.000 A 
ATOM      8  C   UNL     1      45.506   4.019  11.801  0.00  0.00    +0.000 A 
BRANCH   7   9
ATOM      9  O   UNL     1      44.947   2.894   9.839  0.00  0.00    +0.000 OA
BRANCH   9  10
ATOM     10  C   UNL     1      45.085   3.456   8.514  0.00  0.00    +0.000 C 
ATOM     11  C   UNL     1      46.185   2.890   7.595  0.00  0.00    +0.000 C 
ATOM     12  N   UNL     1      46.709   4.245   7.361  0.00  0.00    +0.000 NA
ATOM     13  C   UNL     1      45.894   4.769   8.466  0.00  0.00    +0.000 C 
ATOM     14  H   UNL     1      46.467   4.635   6.451  0.00  0.00    +0.000 HD
ENDBRANCH   9  10
ENDBRANCH   7   9
ENDBRANCH   2   3
BRANCH   2  15
ATOM     15  C   UNL     1      46.803   4.157  14.754  0.00  0.00    +0.000 C 
BRANCH  15  16
ATOM     16  O   UNL     1      47.273   4.690  16.002  0.00  0.00    +0.000 OA
BRANCH  16  17
ATOM     17  C   UNL     1      48.354   3.996  16.510  0.00  0.00    +0.000 A 
ATOM     18  C   UNL     1      49.294   4.735  17.217  0.00  0.00    +0.000 A 
ATOM     19  C   UNL     1      50.435   4.084  17.697  0.00  0.00    +0.000 A 
ATOM     20  C   UNL     1      50.595   2.720  17.451  0.00  0.00    +0.000 A 
ATOM     21  C   UNL     1      49.591   2.068  16.743  0.00  0.00    +0.000 A 
ATOM     22  N   UNL     1      48.472   2.673  16.273  0.00  0.00    +0.000 NA
BRANCH  20  23
ATOM     23  C   UNL     1      51.790   1.940  17.846  0.00  0.00    +0.000 C 
ATOM     24  N   UNL     1      51.659   0.584  17.955  0.00  0.00    +0.000 N 
ATOM     25  O   UNL     1      52.863   2.485  18.058  0.00  0.00    +0.000 OA
ATOM     26  H   UNL     1      50.871   0.069  17.589  0.00  0.00    +0.000 HD
ATOM     27  H   UNL     1      52.508   0.067  18.150  0.00  0.00    +0.000 HD
ENDBRANCH  20  23
ENDBRANCH  16  17
ENDBRANCH  15  16
ENDBRANCH   2  15
TORSDOF 7
ENDMDL
MODEL 7
REMARK VINA RESULT:    -6.427      1.833      7.857
REMARK INTER + INTRA:         -10.153
REMARK INTER:                  -9.653
REMARK INTRA:                  -0.500
REMARK UNBOUND:                -1.096
REMARK  Name = 
REMARK  8 active torsions:
REMARK  status: ('A' for Active; 'I' for Inactive)
REMARK    1  A    between atoms: C_1  and  C_2
REMARK    2  A    between atoms: C_2  and  C_3
REMARK    3  A    between atoms: C_2  and  C_14
REMARK    4  A    between atoms: C_3  and  O_4
REMARK    5  A    between atoms: O_4  and  C_5
REMARK    6  A    between atoms: C_8  and  C_9
REMARK    7  A    between atoms: C_18  and  O_19
REMARK    8  A    between atoms: O_19  and  C_20
REMARK                            x       y       z     vdW  Elec       q    Type
REMARK                         _______ _______ _______ _____ _____    ______ ____
ROOT
ATOM      1  C   UNL     1      46.125   8.264  11.902  0.00  0.00    +0.000 C 
ATOM      2  C   UNL     1      45.855   6.920  12.593  0.00  0.00    +0.000 C 
ENDROOT
BRANCH   2   3
ATOM      3  C   UNL     1      45.219   5.958  11.600  0.00  0.00    +0.000 A 
ATOM      4  C   UNL     1      43.959   5.407  11.863  0.00  0.00    +0.000 A 
ATOM      5  C   UNL     1      43.334   4.586  10.920  0.00  0.00    +0.000 A 
ATOM      6  C   UNL     1      43.960   4.305   9.702  0.00  0.00    +0.000 A 
ATOM      7  C   UNL     1      45.219   4.832   9.438  0.00  0.00    +0.000 A 
ATOM      8  C   UNL     1      45.843   5.653  10.382  0.00  0.00    +0.000 A 
BRANCH   7   9
ATOM      9  O   UNL     1      45.916   4.672   8.270  0.00  0.00    +0.000 OA
BRANCH   9  10
ATOM     10  C   UNL     1      45.837   3.412   7.568  0.00  0.00    +0.000 C 
ATOM     11  C   UNL     1      45.987   2.113   8.383  0.00  0.00    +0.000 C 
ATOM     12  N   UNL     1      47.046   1.646   7.475  0.00  0.00    +0.000 NA
ATOM     13  C   UNL     1      47.153   2.987   6.883  0.00  0.00    +0.000 C 
ATOM     14  H   UNL     1      46.745   0.928   6.816  0.00  0.00    +0.000 HD
ENDBRANCH   9  10
ENDBRANCH   7   9
ENDBRANCH   2   3
BRANCH   2  15
ATOM     15  C   UNL     1      47.143   6.367  13.233  0.00  0.00    +0.000 C 
BRANCH  15  16
ATOM     16  O   UNL     1      46.942   5.002  13.629  0.00  0.00    +0.000 OA
BRANCH  16  17
ATOM     17  C   UNL     1      47.426   4.732  14.895  0.00  0.00    +0.000 A 
ATOM     18  C   UNL     1      48.028   5.786  15.571  0.00  0.00    +0.000 A 
ATOM     19  C   UNL     1      48.586   5.543  16.830  0.00  0.00    +0.000 A 
ATOM     20  C   UNL     1      48.525   4.256  17.365  0.00  0.00    +0.000 A 
ATOM     21  C   UNL     1      47.892   3.272  16.614  0.00  0.00    +0.000 A 
ATOM     22  N   UNL     1      47.335   3.483  15.396  0.00  0.00    +0.000 NA
BRANCH  20  23
ATOM     23  C   UNL     1      49.141   3.863  18.653  0.00  0.00    +0.000 C 
ATOM     24  N   UNL     1      48.390   3.116  19.517  0.00  0.00    +0.000 N 
ATOM     25  O   UNL     1      50.286   4.184  18.934  0.00  0.00    +0.000 OA
ATOM     26  H   UNL     1      47.536   2.649  19.252  0.00  0.00    +0.000 HD
ATOM     27  H   UNL     1      48.860   2.796  20.355  0.00  0.00    +0.000 HD
ENDBRANCH  20  23
ENDBRANCH  16  17
ENDBRANCH  15  16
ENDBRANCH   2  15
TORSDOF 7
ENDMDL
MODEL 8
REMARK VINA RESULT:    -6.424      2.529      3.310
REMARK INTER + INTRA:         -10.149
REMARK INTER:                  -9.379
REMARK INTRA:                  -0.770
REMARK UNBOUND:                -1.096
REMARK  Name = 
REMARK  8 active torsions:
REMARK  status: ('A' for Active; 'I' for Inactive)
REMARK    1  A    between atoms: C_1  and  C_2
REMARK    2  A    between atoms: C_2  and  C_3
REMARK    3  A    between atoms: C_2  and  C_14
REMARK    4  A    between atoms: C_3  and  O_4
REMARK    5  A    between atoms: O_4  and  C_5
REMARK    6  A    between atoms: C_8  and  C_9
REMARK    7  A    between atoms: C_18  and  O_19
REMARK    8  A    between atoms: O_19  and  C_20
REMARK                            x       y       z     vdW  Elec       q    Type
REMARK                         _______ _______ _______ _____ _____    ______ ____
ROOT
ATOM      1  C   UNL     1      45.593   3.500  12.930  0.00  0.00    +0.000 C 
ATOM      2  C   UNL     1      44.663   4.625  12.455  0.00  0.00    +0.000 C 
ENDROOT
BRANCH   2   3
ATOM      3  C   UNL     1      45.462   5.911  12.297  0.00  0.00    +0.000 A 
ATOM      4  C   UNL     1      44.806   7.146  12.255  0.00  0.00    +0.000 A 
ATOM      5  C   UNL     1      45.538   8.335  12.190  0.00  0.00    +0.000 A 
ATOM      6  C   UNL     1      46.936   8.305  12.166  0.00  0.00    +0.000 A 
ATOM      7  C   UNL     1      47.597   7.082  12.189  0.00  0.00    +0.000 A 
ATOM      8  C   UNL     1      46.863   5.894  12.254  0.00  0.00    +0.000 A 
BRANCH   7   9
ATOM      9  O   UNL     1      48.956   6.917  12.217  0.00  0.00    +0.000 OA
BRANCH   9  10
ATOM     10  C   UNL     1      49.799   8.051  12.523  0.00  0.00    +0.000 C 
ATOM     11  C   UNL     1      51.171   8.146  11.828  0.00  0.00    +0.000 C 
ATOM     12  N   UNL     1      51.837   8.308  13.131  0.00  0.00    +0.000 NA
ATOM     13  C   UNL     1      50.609   7.901  13.828  0.00  0.00    +0.000 C 
ATOM     14  H   UNL     1      52.129   9.263  13.335  0.00  0.00    +0.000 HD
ENDBRANCH   9  10
ENDBRANCH   7   9
ENDBRANCH   2   3
BRANCH   2  15
ATOM     15  C   UNL     1      43.918   4.212  11.171  0.00  0.00    +0.000 C 
BRANCH  15  16
ATOM     16  O   UNL     1      44.385   4.998  10.064  0.00  0.00    +0.000 OA
BRANCH  16  17
ATOM     17  C   UNL     1      45.126   4.264   9.158  0.00  0.00    +0.000 A 
ATOM     18  C   UNL     1      45.022   2.881   9.242  0.00  0.00    +0.000 A 
ATOM     19  C   UNL     1      45.801   2.098   8.384  0.00  0.00    +0.000 A 
ATOM     20  C   UNL     1      46.657   2.725   7.477  0.00  0.00    +0.000 A 
ATOM     21  C   UNL     1      46.680   4.116   7.465  0.00  0.00    +0.000 A 
ATOM     22  N   UNL     1      45.929   4.898   8.279  0.00  0.00    +0.000 NA
BRANCH  20  23
ATOM     23  C   UNL     1      47.579   2.003   6.571  0.00  0.00    +0.000 C 
ATOM     24  N   UNL     1      48.125   2.700   5.530  0.00  0.00    +0.000 N 
ATOM     25  O   UNL     1      47.855   0.827   6.751  0.00  0.00    +0.000 OA
ATOM     26  H   UNL     1      48.104   3.707   5.461  0.00  0.00    +0.000 HD
ATOM     27  H   UNL     1      48.811   2.206   4.972  0.00  0.00    +0.000 HD
ENDBRANCH  20  23
ENDBRANCH  16  17
ENDBRANCH  15  16
ENDBRANCH   2  15
TORSDOF 7
ENDMDL
MODEL 9
REMARK VINA RESULT:    -6.149      3.267      7.590
REMARK INTER + INTRA:          -9.762
REMARK INTER:                  -8.869
REMARK INTRA:                  -0.892
REMARK UNBOUND:                -1.096
REMARK  Name = 
REMARK  8 active torsions:
REMARK  status: ('A' for Active; 'I' for Inactive)
REMARK    1  A    between atoms: C_1  and  C_2
REMARK    2  A    between atoms: C_2  and  C_3
REMARK    3  A    between atoms: C_2  and  C_14
REMARK    4  A    between atoms: C_3  and  O_4
REMARK    5  A    between atoms: O_4  and  C_5
REMARK    6  A    between atoms: C_8  and  C_9
REMARK    7  A    between atoms: C_18  and  O_19
REMARK    8  A    between atoms: O_19  and  C_20
REMARK                            x       y       z     vdW  Elec       q    Type
REMARK                         _______ _______ _______ _____ _____    ______ ____
ROOT
ATOM      1  C   UNL     1      49.990   7.822  11.092  0.00  0.00    +0.000 C 
ATOM      2  C   UNL     1      49.264   8.200  12.391  0.00  0.00    +0.000 C 
ENDROOT
BRANCH   2   3
ATOM      3  C   UNL     1      47.764   8.027  12.201  0.00  0.00    +0.000 A 
ATOM      4  C   UNL     1      46.901   9.114  12.385  0.00  0.00    +0.000 A 
ATOM      5  C   UNL     1      45.532   8.982  12.135  0.00  0.00    +0.000 A 
ATOM      6  C   UNL     1      45.007   7.762  11.698  0.00  0.00    +0.000 A 
ATOM      7  C   UNL     1      45.852   6.671  11.530  0.00  0.00    +0.000 A 
ATOM      8  C   UNL     1      47.221   6.805  11.780  0.00  0.00    +0.000 A 
BRANCH   7   9
ATOM      9  O   UNL     1      45.473   5.441  11.065  0.00  0.00    +0.000 OA
BRANCH   9  10
ATOM     10  C   UNL     1      44.509   4.668  11.814  0.00  0.00    +0.000 C 
ATOM     11  C   UNL     1      44.413   3.156  11.535  0.00  0.00    +0.000 C 
ATOM     12  N   UNL     1      42.962   3.273  11.316  0.00  0.00    +0.000 NA
ATOM     13  C   UNL     1      43.072   4.737  11.256  0.00  0.00    +0.000 C 
ATOM     14  H   UNL     1      42.393   2.934  12.091  0.00  0.00    +0.000 HD
ENDBRANCH   9  10
ENDBRANCH   7   9
ENDBRANCH   2   3
BRANCH   2  15
ATOM     15  C   UNL     1      49.822   7.397  13.582  0.00  0.00    +0.000 C 
BRANCH  15  16
ATOM     16  O   UNL     1      49.179   7.819  14.795  0.00  0.00    +0.000 OA
BRANCH  16  17
ATOM     17  C   UNL     1      48.732   6.760  15.562  0.00  0.00    +0.000 A 
ATOM     18  C   UNL     1      48.985   6.827  16.927  0.00  0.00    +0.000 A 
ATOM     19  C   UNL     1      48.604   5.749  17.732  0.00  0.00    +0.000 A 
ATOM     20  C   UNL     1      47.987   4.643  17.145  0.00  0.00    +0.000 A 
ATOM     21  C   UNL     1      47.769   4.679  15.772  0.00  0.00    +0.000 A 
ATOM     22  N   UNL     1      48.121   5.714  14.970  0.00  0.00    +0.000 NA
BRANCH  20  23
ATOM     23  C   UNL     1      47.605   3.418  17.882  0.00  0.00    +0.000 C 
ATOM     24  N   UNL     1      48.335   3.087  18.990  0.00  0.00    +0.000 N 
ATOM     25  O   UNL     1      46.663   2.728  17.523  0.00  0.00    +0.000 OA
ATOM     26  H   UNL     1      48.971   3.723  19.448  0.00  0.00    +0.000 HD
ATOM     27  H   UNL     1      48.005   2.290  19.520  0.00  0.00    +0.000 HD
ENDBRANCH  20  23
ENDBRANCH  16  17
ENDBRANCH  15  16
ENDBRANCH   2  15
TORSDOF 7
ENDMDL
