MODEL 1
REMARK VINA RESULT:    -8.533      0.000      0.000
REMARK INTER + INTRA:         -13.132
REMARK INTER:                 -11.776
REMARK INTRA:                  -1.357
REMARK UNBOUND:                -1.357
REMARK  Name = 
REMARK  7 active torsions:
REMARK  status: ('A' for Active; 'I' for Inactive)
REMARK    1  A    between atoms: C_2  and  C_20
REMARK    2  A    between atoms: N_3  and  C_4
REMARK    3  A    between atoms: C_4  and  C_5
REMARK    4  A    between atoms: C_8  and  C_9
REMARK    5  A    between atoms: C_9  and  C_10
REMARK    6  A    between atoms: C_10  and  O_11
REMARK    7  A    between atoms: C_10  and  C_12
REMARK                            x       y       z     vdW  Elec       q    Type
REMARK                         _______ _______ _______ _____ _____    ______ ____
ROOT
ATOM      1  C   UNL     1      46.694   8.158  13.264  0.00  0.00    +0.000 C 
ENDROOT
BRANCH   1   2
ATOM      2  C   UNL     1      46.076   7.106  12.392  0.00  0.00    +0.000 A 
ATOM      3  C   UNL     1      44.924   6.450  12.833  0.00  0.00    +0.000 A 
ATOM      4  C   UNL     1      44.326   5.468  12.052  0.00  0.00    +0.000 A 
ATOM      5  C   UNL     1      44.862   5.112  10.809  0.00  0.00    +0.000 A 
ATOM      6  C   UNL     1      46.040   5.748  10.384  0.00  0.00    +0.000 A 
ATOM      7  C   UNL     1      46.646   6.732  11.170  0.00  0.00    +0.000 A 
BRANCH   5   8
ATOM      8  C   UNL     1      44.210   4.103   9.885  0.00  0.00    +0.000 C 
BRANCH   8   9
ATOM      9  C   UNL     1      44.896   2.723   9.767  0.00  0.00    +0.000 C 
BRANCH   9  10
ATOM     10  C   UNL     1      45.655   2.480   8.480  0.00  0.00    +0.000 A 
ATOM     11  C   UNL     1      45.853   3.561   7.603  0.00  0.00    +0.000 A 
ATOM     12  C   UNL     1      46.624   3.416   6.450  0.00  0.00    +0.000 A 
ATOM     13  C   UNL     1      47.215   2.190   6.158  0.00  0.00    +0.000 A 
ATOM     14  C   UNL     1      47.030   1.106   7.015  0.00  0.00    +0.000 A 
ATOM     15  C   UNL     1      46.261   1.253   8.173  0.00  0.00    +0.000 A 
ENDBRANCH   9  10
BRANCH   9  16
ATOM     16  O   UNL     1      43.933   1.668   9.860  0.00  0.00    +0.000 OA
ATOM     17  H   UNL     1      43.245   1.845   9.198  0.00  0.00    +0.000 HD
ENDBRANCH   9  16
ENDBRANCH   8   9
ENDBRANCH   5   8
ENDBRANCH   1   2
BRANCH   1  20
ATOM     18  O   UNL     1      49.276   6.956  13.398  0.00  0.00    +0.000 OA
ATOM     19  C   UNL     1      48.536   6.948  14.378  0.00  0.00    +0.000 C 
ATOM     20  N   UNL     1      47.315   7.562  14.412  0.00  0.00    +0.000 N 
ATOM     21  H   UNL     1      46.749   7.506  15.247  0.00  0.00    +0.000 HD
BRANCH  19  22
ATOM     22  C   UNL     1      48.927   6.306  15.633  0.00  0.00    +0.000 A 
ATOM     23  C   UNL     1      49.992   6.780  16.381  0.00  0.00    +0.000 A 
ATOM     24  S   UNL     1      50.234   5.909  17.830  0.00  0.00    +0.000 S 
ATOM     25  C   UNL     1      48.949   4.848  17.477  0.00  0.00    +0.000 A 
ATOM     26  N   UNL     1      48.608   3.841  18.328  0.00  0.00    +0.000 NA
ATOM     27  C   UNL     1      47.627   3.107  17.917  0.00  0.00    +0.000 A 
ATOM     28  N   UNL     1      46.963   3.277  16.731  0.00  0.00    +0.000 N 
ATOM     29  C   UNL     1      47.267   4.282  15.845  0.00  0.00    +0.000 A 
ATOM     30  O   UNL     1      46.625   4.419  14.808  0.00  0.00    +0.000 OA
ATOM     31  C   UNL     1      48.349   5.150  16.270  0.00  0.00    +0.000 A 
ATOM     32  H   UNL     1      46.202   2.672  16.466  0.00  0.00    +0.000 HD
ENDBRANCH  19  22
ENDBRANCH   1  20
TORSDOF 7
ENDMDL
MODEL 2
REMARK VINA RESULT:    -8.116      3.910      6.215
REMARK INTER + INTRA:         -12.557
REMARK INTER:                 -11.491
REMARK INTRA:                  -1.066
REMARK UNBOUND:                -1.357
REMARK  Name = 
REMARK  7 active torsions:
REMARK  status: ('A' for Active; 'I' for Inactive)
REMARK    1  A    between atoms: C_2  and  C_20
REMARK    2  A    between atoms: N_3  and  C_4
REMARK    3  A    between atoms: C_4  and  C_5
REMARK    4  A    between atoms: C_8  and  C_9
REMARK    5  A    between atoms: C_9  and  C_10
REMARK    6  A    between atoms: C_10  and  O_11
REMARK    7  A    between atoms: C_10  and  C_12
REMARK                            x       y       z     vdW  Elec       q    Type
REMARK                         _______ _______ _______ _____ _____    ______ ____
ROOT
ATOM      1  C   UNL     1      43.845   4.735  10.308  0.00  0.00    +0.000 C 
ENDROOT
BRANCH   1   2
ATOM      2  C   UNL     1      44.679   3.878   9.404  0.00  0.00    +0.000 A 
ATOM      3  C   UNL     1      44.680   2.493   9.593  0.00  0.00    +0.000 A 
ATOM      4  C   UNL     1      45.443   1.667   8.776  0.00  0.00    +0.000 A 
ATOM      5  C   UNL     1      46.227   2.201   7.746  0.00  0.00    +0.000 A 
ATOM      6  C   UNL     1      46.251   3.596   7.581  0.00  0.00    +0.000 A 
ATOM      7  C   UNL     1      45.489   4.428   8.406  0.00  0.00    +0.000 A 
BRANCH   5   8
ATOM      8  C   UNL     1      47.018   1.343   6.780  0.00  0.00    +0.000 C 
BRANCH   8   9
ATOM      9  C   UNL     1      47.146   1.864   5.330  0.00  0.00    +0.000 C 
BRANCH   9  10
ATOM     10  C   UNL     1      46.755   0.881   4.247  0.00  0.00    +0.000 A 
ATOM     11  C   UNL     1      47.103  -0.472   4.411  0.00  0.00    +0.000 A 
ATOM     12  C   UNL     1      46.688  -1.434   3.491  0.00  0.00    +0.000 A 
ATOM     13  C   UNL     1      45.913  -1.062   2.397  0.00  0.00    +0.000 A 
ATOM     14  C   UNL     1      45.559   0.274   2.216  0.00  0.00    +0.000 A 
ATOM     15  C   UNL     1      45.971   1.238   3.141  0.00  0.00    +0.000 A 
ENDBRANCH   9  10
BRANCH   9  16
ATOM     16  O   UNL     1      48.496   2.246   5.045  0.00  0.00    +0.000 OA
ATOM     17  H   UNL     1      49.041   1.444   5.103  0.00  0.00    +0.000 HD
ENDBRANCH   9  16
ENDBRANCH   8   9
ENDBRANCH   5   8
ENDBRANCH   1   2
BRANCH   1  20
ATOM     18  O   UNL     1      44.047   5.751  12.965  0.00  0.00    +0.000 OA
ATOM     19  C   UNL     1      44.584   6.342  12.032  0.00  0.00    +0.000 C 
ATOM     20  N   UNL     1      44.589   5.883  10.745  0.00  0.00    +0.000 N 
ATOM     21  H   UNL     1      45.039   6.425  10.021  0.00  0.00    +0.000 HD
BRANCH  19  22
ATOM     22  C   UNL     1      45.317   7.592  12.232  0.00  0.00    +0.000 A 
ATOM     23  C   UNL     1      46.503   7.622  12.949  0.00  0.00    +0.000 A 
ATOM     24  S   UNL     1      47.209   9.176  13.011  0.00  0.00    +0.000 S 
ATOM     25  C   UNL     1      45.929   9.859  12.119  0.00  0.00    +0.000 A 
ATOM     26  N   UNL     1      45.911  11.184  11.808  0.00  0.00    +0.000 NA
ATOM     27  C   UNL     1      44.867  11.560  11.146  0.00  0.00    +0.000 A 
ATOM     28  N   UNL     1      43.835  10.740  10.775  0.00  0.00    +0.000 N 
ATOM     29  C   UNL     1      43.813   9.396  11.059  0.00  0.00    +0.000 A 
ATOM     30  O   UNL     1      42.885   8.690  10.678  0.00  0.00    +0.000 OA
ATOM     31  C   UNL     1      44.975   8.918  11.784  0.00  0.00    +0.000 A 
ATOM     32  H   UNL     1      43.047  11.093  10.254  0.00  0.00    +0.000 HD
ENDBRANCH  19  22
ENDBRANCH   1  20
TORSDOF 7
ENDMDL
MODEL 3
REMARK VINA RESULT:    -7.804      1.816      2.129
REMARK INTER + INTRA:         -12.127
REMARK INTER:                 -11.564
REMARK INTRA:                  -0.562
REMARK UNBOUND:                -1.357
REMARK  Name = 
REMARK  7 active torsions:
REMARK  status: ('A' for Active; 'I' for Inactive)
REMARK    1  A    between atoms: C_2  and  C_20
REMARK    2  A    between atoms: N_3  and  C_4
REMARK    3  A    between atoms: C_4  and  C_5
REMARK    4  A    between atoms: C_8  and  C_9
REMARK    5  A    between atoms: C_9  and  C_10
REMARK    6  A    between atoms: C_10  and  O_11
REMARK    7  A    between atoms: C_10  and  C_12
REMARK                            x       y       z     vdW  Elec       q    Type
REMARK                         _______ _______ _______ _____ _____    ______ ____
ROOT
ATOM      1  C   UNL     1      48.140   7.101  13.419  0.00  0.00    +0.000 C 
ENDROOT
BRANCH   1   2
ATOM      2  C   UNL     1      47.146   6.113  12.885  0.00  0.00    +0.000 A 
ATOM      3  C   UNL     1      46.346   6.476  11.798  0.00  0.00    +0.000 A 
ATOM      4  C   UNL     1      45.412   5.587  11.278  0.00  0.00    +0.000 A 
ATOM      5  C   UNL     1      45.250   4.311  11.829  0.00  0.00    +0.000 A 
ATOM      6  C   UNL     1      46.031   3.962  12.944  0.00  0.00    +0.000 A 
ATOM      7  C   UNL     1      46.966   4.857  13.471  0.00  0.00    +0.000 A 
BRANCH   5   8
ATOM      8  C   UNL     1      44.302   3.277  11.257  0.00  0.00    +0.000 C 
BRANCH   8   9
ATOM      9  C   UNL     1      43.945   3.412   9.759  0.00  0.00    +0.000 C 
BRANCH   9  10
ATOM     10  C   UNL     1      45.038   3.011   8.790  0.00  0.00    +0.000 A 
ATOM     11  C   UNL     1      45.632   4.010   7.998  0.00  0.00    +0.000 A 
ATOM     12  C   UNL     1      46.704   3.712   7.157  0.00  0.00    +0.000 A 
ATOM     13  C   UNL     1      47.204   2.415   7.100  0.00  0.00    +0.000 A 
ATOM     14  C   UNL     1      46.627   1.411   7.875  0.00  0.00    +0.000 A 
ATOM     15  C   UNL     1      45.555   1.710   8.722  0.00  0.00    +0.000 A 
ENDBRANCH   9  10
BRANCH   9  16
ATOM     16  O   UNL     1      43.612   4.766   9.436  0.00  0.00    +0.000 OA
ATOM     17  H   UNL     1      44.265   5.337   9.873  0.00  0.00    +0.000 HD
ENDBRANCH   9  16
ENDBRANCH   8   9
ENDBRANCH   5   8
ENDBRANCH   1   2
BRANCH   1  20
ATOM     18  O   UNL     1      50.288   6.831  15.274  0.00  0.00    +0.000 OA
ATOM     19  C   UNL     1      49.135   6.968  15.675  0.00  0.00    +0.000 C 
ATOM     20  N   UNL     1      48.064   7.171  14.850  0.00  0.00    +0.000 N 
ATOM     21  H   UNL     1      47.138   7.262  15.244  0.00  0.00    +0.000 HD
BRANCH  19  22
ATOM     22  C   UNL     1      48.810   6.969  17.101  0.00  0.00    +0.000 A 
ATOM     23  C   UNL     1      48.419   8.131  17.748  0.00  0.00    +0.000 A 
ATOM     24  S   UNL     1      48.042   7.886  19.396  0.00  0.00    +0.000 S 
ATOM     25  C   UNL     1      48.431   6.230  19.301  0.00  0.00    +0.000 A 
ATOM     26  N   UNL     1      48.322   5.414  20.385  0.00  0.00    +0.000 NA
ATOM     27  C   UNL     1      48.672   4.190  20.166  0.00  0.00    +0.000 A 
ATOM     28  N   UNL     1      49.130   3.707  18.969  0.00  0.00    +0.000 N 
ATOM     29  C   UNL     1      49.250   4.489  17.847  0.00  0.00    +0.000 A 
ATOM     30  O   UNL     1      49.633   4.009  16.785  0.00  0.00    +0.000 OA
ATOM     31  C   UNL     1      48.849   5.871  18.034  0.00  0.00    +0.000 A 
ATOM     32  H   UNL     1      49.385   2.737  18.860  0.00  0.00    +0.000 HD
ENDBRANCH  19  22
ENDBRANCH   1  20
TORSDOF 7
ENDMDL
MODEL 4
REMARK VINA RESULT:    -7.653      2.365      3.944
REMARK INTER + INTRA:         -11.917
REMARK INTER:                 -10.702
REMARK INTRA:                  -1.215
REMARK UNBOUND:                -1.357
REMARK  Name = 
REMARK  7 active torsions:
REMARK  status: ('A' for Active; 'I' for Inactive)
REMARK    1  A    between atoms: C_2  and  C_20
REMARK    2  A    between atoms: N_3  and  C_4
REMARK    3  A    between atoms: C_4  and  C_5
REMARK    4  A    between atoms: C_8  and  C_9
REMARK    5  A    between atoms: C_9  and  C_10
REMARK    6  A    between atoms: C_10  and  O_11
REMARK    7  A    between atoms: C_10  and  C_12
REMARK                            x       y       z     vdW  Elec       q    Type
REMARK                         _______ _______ _______ _____ _____    ______ ____
ROOT
ATOM      1  C   UNL     1      46.965   4.929  14.891  0.00  0.00    +0.000 C 
ENDROOT
BRANCH   1   2
ATOM      2  C   UNL     1      46.189   4.670  13.633  0.00  0.00    +0.000 A 
ATOM      3  C   UNL     1      45.438   5.707  13.074  0.00  0.00    +0.000 A 
ATOM      4  C   UNL     1      44.705   5.502  11.911  0.00  0.00    +0.000 A 
ATOM      5  C   UNL     1      44.702   4.256  11.273  0.00  0.00    +0.000 A 
ATOM      6  C   UNL     1      45.431   3.207  11.856  0.00  0.00    +0.000 A 
ATOM      7  C   UNL     1      46.163   3.409  13.029  0.00  0.00    +0.000 A 
BRANCH   5   8
ATOM      8  C   UNL     1      43.983   3.999   9.964  0.00  0.00    +0.000 C 
BRANCH   8   9
ATOM      9  C   UNL     1      44.747   4.352   8.668  0.00  0.00    +0.000 C 
BRANCH   9  10
ATOM     10  C   UNL     1      45.610   3.247   8.097  0.00  0.00    +0.000 A 
ATOM     11  C   UNL     1      46.628   3.591   7.190  0.00  0.00    +0.000 A 
ATOM     12  C   UNL     1      47.512   2.627   6.706  0.00  0.00    +0.000 A 
ATOM     13  C   UNL     1      47.396   1.305   7.126  0.00  0.00    +0.000 A 
ATOM     14  C   UNL     1      46.393   0.944   8.023  0.00  0.00    +0.000 A 
ATOM     15  C   UNL     1      45.510   1.912   8.512  0.00  0.00    +0.000 A 
ENDBRANCH   9  10
BRANCH   9  16
ATOM     16  O   UNL     1      45.622   5.464   8.881  0.00  0.00    +0.000 OA
ATOM     17  H   UNL     1      46.198   5.532   8.102  0.00  0.00    +0.000 HD
ENDBRANCH   9  16
ENDBRANCH   8   9
ENDBRANCH   5   8
ENDBRANCH   1   2
BRANCH   1  20
ATOM     18  O   UNL     1      49.394   5.626  16.210  0.00  0.00    +0.000 OA
ATOM     19  C   UNL     1      48.808   6.451  15.514  0.00  0.00    +0.000 C 
ATOM     20  N   UNL     1      47.677   6.172  14.797  0.00  0.00    +0.000 N 
ATOM     21  H   UNL     1      47.236   6.900  14.254  0.00  0.00    +0.000 HD
BRANCH  19  22
ATOM     22  C   UNL     1      49.304   7.817  15.354  0.00  0.00    +0.000 A 
ATOM     23  C   UNL     1      49.447   8.661  16.444  0.00  0.00    +0.000 A 
ATOM     24  S   UNL     1      50.089  10.189  16.029  0.00  0.00    +0.000 S 
ATOM     25  C   UNL     1      50.154   9.779  14.377  0.00  0.00    +0.000 A 
ATOM     26  N   UNL     1      50.622  10.658  13.448  0.00  0.00    +0.000 NA
ATOM     27  C   UNL     1      50.592  10.214  12.235  0.00  0.00    +0.000 A 
ATOM     28  N   UNL     1      50.130   8.981  11.862  0.00  0.00    +0.000 N 
ATOM     29  C   UNL     1      49.656   8.059  12.763  0.00  0.00    +0.000 A 
ATOM     30  O   UNL     1      49.282   6.952  12.389  0.00  0.00    +0.000 OA
ATOM     31  C   UNL     1      49.688   8.500  14.145  0.00  0.00    +0.000 A 
ATOM     32  H   UNL     1      50.135   8.690  10.896  0.00  0.00    +0.000 HD
ENDBRANCH  19  22
ENDBRANCH   1  20
TORSDOF 7
ENDMDL
MODEL 5
REMARK VINA RESULT:    -7.421      2.734      3.371
REMARK INTER + INTRA:         -11.597
REMARK INTER:                 -10.373
REMARK INTRA:                  -1.224
REMARK UNBOUND:                -1.357
REMARK  Name = 
REMARK  7 active torsions:
REMARK  status: ('A' for Active; 'I' for Inactive)
REMARK    1  A    between atoms: C_2  and  C_20
REMARK    2  A    between atoms: N_3  and  C_4
REMARK    3  A    between atoms: C_4  and  C_5
REMARK    4  A    between atoms: C_8  and  C_9
REMARK    5  A    between atoms: C_9  and  C_10
REMARK    6  A    between atoms: C_10  and  O_11
REMARK    7  A    between atoms: C_10  and  C_12
REMARK                            x       y       z     vdW  Elec       q    Type
REMARK                         _______ _______ _______ _____ _____    ______ ____
ROOT
ATOM      1  C   UNL     1      47.570   4.389  15.602  0.00  0.00    +0.000 C 
ENDROOT
BRANCH   1   2
ATOM      2  C   UNL     1      46.988   4.655  14.246  0.00  0.00    +0.000 A 
ATOM      3  C   UNL     1      46.232   3.657  13.625  0.00  0.00    +0.000 A 
ATOM      4  C   UNL     1      45.679   3.867  12.366  0.00  0.00    +0.000 A 
ATOM      5  C   UNL     1      45.865   5.081  11.694  0.00  0.00    +0.000 A 
ATOM      6  C   UNL     1      46.654   6.069  12.306  0.00  0.00    +0.000 A 
ATOM      7  C   UNL     1      47.215   5.857  13.568  0.00  0.00    +0.000 A 
BRANCH   5   8
ATOM      8  C   UNL     1      45.225   5.391  10.356  0.00  0.00    +0.000 C 
BRANCH   8   9
ATOM      9  C   UNL     1      44.582   4.206   9.600  0.00  0.00    +0.000 C 
BRANCH   9  10
ATOM     10  C   UNL     1      45.525   3.395   8.736  0.00  0.00    +0.000 A 
ATOM     11  C   UNL     1      45.532   1.996   8.881  0.00  0.00    +0.000 A 
ATOM     12  C   UNL     1      46.311   1.194   8.048  0.00  0.00    +0.000 A 
ATOM     13  C   UNL     1      47.091   1.776   7.053  0.00  0.00    +0.000 A 
ATOM     14  C   UNL     1      47.098   3.160   6.894  0.00  0.00    +0.000 A 
ATOM     15  C   UNL     1      46.313   3.964   7.726  0.00  0.00    +0.000 A 
ENDBRANCH   9  10
BRANCH   9  16
ATOM     16  O   UNL     1      43.545   4.663   8.726  0.00  0.00    +0.000 OA
ATOM     17  H   UNL     1      42.965   5.244   9.246  0.00  0.00    +0.000 HD
ENDBRANCH   9  16
ENDBRANCH   8   9
ENDBRANCH   5   8
ENDBRANCH   1   2
BRANCH   1  20
ATOM     18  O   UNL     1      49.935   5.823  16.296  0.00  0.00    +0.000 OA
ATOM     19  C   UNL     1      48.839   6.198  16.706  0.00  0.00    +0.000 C 
ATOM     20  N   UNL     1      47.657   5.604  16.361  0.00  0.00    +0.000 N 
ATOM     21  H   UNL     1      46.790   5.954  16.744  0.00  0.00    +0.000 HD
BRANCH  19  22
ATOM     22  C   UNL     1      48.700   7.362  17.579  0.00  0.00    +0.000 A 
ATOM     23  C   UNL     1      49.060   8.630  17.150  0.00  0.00    +0.000 A 
ATOM     24  S   UNL     1      48.765   9.842  18.316  0.00  0.00    +0.000 S 
ATOM     25  C   UNL     1      48.189   8.701  19.443  0.00  0.00    +0.000 A 
ATOM     26  N   UNL     1      47.758   9.081  20.677  0.00  0.00    +0.000 NA
ATOM     27  C   UNL     1      47.370   8.105  21.428  0.00  0.00    +0.000 A 
ATOM     28  N   UNL     1      47.381   6.784  21.066  0.00  0.00    +0.000 N 
ATOM     29  C   UNL     1      47.799   6.354  19.831  0.00  0.00    +0.000 A 
ATOM     30  O   UNL     1      47.762   5.164  19.535  0.00  0.00    +0.000 OA
ATOM     31  C   UNL     1      48.227   7.416  18.940  0.00  0.00    +0.000 A 
ATOM     32  H   UNL     1      47.061   6.066  21.698  0.00  0.00    +0.000 HD
ENDBRANCH  19  22
ENDBRANCH   1  20
TORSDOF 7
ENDMDL
MODEL 6
REMARK VINA RESULT:    -7.417      2.831      3.716
REMARK INTER + INTRA:         -11.592
REMARK INTER:                 -10.788
REMARK INTRA:                  -0.804
REMARK UNBOUND:                -1.357
REMARK  Name = 
REMARK  7 active torsions:
REMARK  status: ('A' for Active; 'I' for Inactive)
REMARK    1  A    between atoms: C_2  and  C_20
REMARK    2  A    between atoms: N_3  and  C_4
REMARK    3  A    between atoms: C_4  and  C_5
REMARK    4  A    between atoms: C_8  and  C_9
REMARK    5  A    between atoms: C_9  and  C_10
REMARK    6  A    between atoms: C_10  and  O_11
REMARK    7  A    between atoms: C_10  and  C_12
REMARK                            x       y       z     vdW  Elec       q    Type
REMARK                         _______ _______ _______ _____ _____    ______ ____
ROOT
ATOM      1  C   UNL     1      47.426   4.762  14.842  0.00  0.00    +0.000 C 
ENDROOT
BRANCH   1   2
ATOM      2  C   UNL     1      46.579   4.576  13.619  0.00  0.00    +0.000 A 
ATOM      3  C   UNL     1      46.160   5.702  12.906  0.00  0.00    +0.000 A 
ATOM      4  C   UNL     1      45.372   5.567  11.769  0.00  0.00    +0.000 A 
ATOM      5  C   UNL     1      44.980   4.304  11.311  0.00  0.00    +0.000 A 
ATOM      6  C   UNL     1      45.374   3.175  12.050  0.00  0.00    +0.000 A 
ATOM      7  C   UNL     1      46.161   3.310  13.196  0.00  0.00    +0.000 A 
BRANCH   5   8
ATOM      8  C   UNL     1      44.185   4.095  10.038  0.00  0.00    +0.000 C 
BRANCH   8   9
ATOM      9  C   UNL     1      44.905   4.411   8.708  0.00  0.00    +0.000 C 
BRANCH   9  10
ATOM     10  C   UNL     1      45.816   3.321   8.183  0.00  0.00    +0.000 A 
ATOM     11  C   UNL     1      45.567   1.993   8.575  0.00  0.00    +0.000 A 
ATOM     12  C   UNL     1      46.315   0.940   8.049  0.00  0.00    +0.000 A 
ATOM     13  C   UNL     1      47.319   1.195   7.120  0.00  0.00    +0.000 A 
ATOM     14  C   UNL     1      47.581   2.504   6.720  0.00  0.00    +0.000 A 
ATOM     15  C   UNL     1      46.827   3.560   7.243  0.00  0.00    +0.000 A 
ENDBRANCH   9  10
BRANCH   9  16
ATOM     16  O   UNL     1      45.724   5.578   8.838  0.00  0.00    +0.000 OA
ATOM     17  H   UNL     1      46.650   5.285   8.812  0.00  0.00    +0.000 HD
ENDBRANCH   9  16
ENDBRANCH   8   9
ENDBRANCH   5   8
ENDBRANCH   1   2
BRANCH   1  20
ATOM     18  O   UNL     1      49.696   5.879  16.158  0.00  0.00    +0.000 OA
ATOM     19  C   UNL     1      48.795   6.607  15.750  0.00  0.00    +0.000 C 
ATOM     20  N   UNL     1      47.711   6.154  15.052  0.00  0.00    +0.000 N 
ATOM     21  H   UNL     1      46.997   6.804  14.756  0.00  0.00    +0.000 HD
BRANCH  19  22
ATOM     22  C   UNL     1      48.829   8.056  15.943  0.00  0.00    +0.000 A 
ATOM     23  C   UNL     1      49.340   8.899  14.969  0.00  0.00    +0.000 A 
ATOM     24  S   UNL     1      49.232  10.551  15.388  0.00  0.00    +0.000 S 
ATOM     25  C   UNL     1      48.538  10.184  16.900  0.00  0.00    +0.000 A 
ATOM     26  N   UNL     1      48.189  11.166  17.775  0.00  0.00    +0.000 NA
ATOM     27  C   UNL     1      47.694  10.735  18.888  0.00  0.00    +0.000 A 
ATOM     28  N   UNL     1      47.526   9.415  19.213  0.00  0.00    +0.000 N 
ATOM     29  C   UNL     1      47.856   8.390  18.360  0.00  0.00    +0.000 A 
ATOM     30  O   UNL     1      47.658   7.222  18.677  0.00  0.00    +0.000 OA
ATOM     31  C   UNL     1      48.398   8.823  17.085  0.00  0.00    +0.000 A 
ATOM     32  H   UNL     1      47.131   9.140  20.099  0.00  0.00    +0.000 HD
ENDBRANCH  19  22
ENDBRANCH   1  20
TORSDOF 7
ENDMDL
MODEL 7
REMARK VINA RESULT:    -7.333      3.097      4.163
REMARK INTER + INTRA:         -11.477
REMARK INTER:                 -10.245
REMARK INTRA:                  -1.232
REMARK UNBOUND:                -1.357
REMARK  Name = 
REMARK  7 active torsions:
REMARK  status: ('A' for Active; 'I' for Inactive)
REMARK    1  A    between atoms: C_2  and  C_20
REMARK    2  A    between atoms: N_3  and  C_4
REMARK    3  A    between atoms: C_4  and  C_5
REMARK    4  A    between atoms: C_8  and  C_9
REMARK    5  A    between atoms: C_9  and  C_10
REMARK    6  A    between atoms: C_10  and  O_11
REMARK    7  A    between atoms: C_10  and  C_12
REMARK                            x       y       z     vdW  Elec       q    Type
REMARK                         _______ _______ _______ _____ _____    ______ ____
ROOT
ATOM      1  C   UNL     1      48.187   5.078  16.011  0.00  0.00    +0.000 C 
ENDROOT
BRANCH   1   2
ATOM      2  C   UNL     1      47.494   5.288  14.698  0.00  0.00    +0.000 A 
ATOM      3  C   UNL     1      46.556   4.346  14.268  0.00  0.00    +0.000 A 
ATOM      4  C   UNL     1      45.895   4.507  13.055  0.00  0.00    +0.000 A 
ATOM      5  C   UNL     1      46.152   5.615  12.239  0.00  0.00    +0.000 A 
ATOM      6  C   UNL     1      47.121   6.542  12.658  0.00  0.00    +0.000 A 
ATOM      7  C   UNL     1      47.790   6.378  13.874  0.00  0.00    +0.000 A 
BRANCH   5   8
ATOM      8  C   UNL     1      45.409   5.879  10.945  0.00  0.00    +0.000 C 
BRANCH   8   9
ATOM      9  C   UNL     1      44.520   4.735  10.407  0.00  0.00    +0.000 C 
BRANCH   9  10
ATOM     10  C   UNL     1      45.153   3.862   9.344  0.00  0.00    +0.000 A 
ATOM     11  C   UNL     1      45.879   4.482   8.311  0.00  0.00    +0.000 A 
ATOM     12  C   UNL     1      46.560   3.723   7.360  0.00  0.00    +0.000 A 
ATOM     13  C   UNL     1      46.531   2.333   7.428  0.00  0.00    +0.000 A 
ATOM     14  C   UNL     1      45.815   1.700   8.443  0.00  0.00    +0.000 A 
ATOM     15  C   UNL     1      45.137   2.461   9.400  0.00  0.00    +0.000 A 
ENDBRANCH   9  10
BRANCH   9  16
ATOM     16  O   UNL     1      43.320   5.255   9.825  0.00  0.00    +0.000 OA
ATOM     17  H   UNL     1      43.517   5.466   8.898  0.00  0.00    +0.000 HD
ENDBRANCH   9  16
ENDBRANCH   8   9
ENDBRANCH   5   8
ENDBRANCH   1   2
BRANCH   1  20
ATOM     18  O   UNL     1      49.947   6.241  17.929  0.00  0.00    +0.000 OA
ATOM     19  C   UNL     1      48.780   6.616  17.851  0.00  0.00    +0.000 C 
ATOM     20  N   UNL     1      47.896   6.155  16.914  0.00  0.00    +0.000 N 
ATOM     21  H   UNL     1      46.945   6.494  16.913  0.00  0.00    +0.000 HD
BRANCH  19  22
ATOM     22  C   UNL     1      48.237   7.639  18.743  0.00  0.00    +0.000 A 
ATOM     23  C   UNL     1      47.916   7.347  20.060  0.00  0.00    +0.000 A 
ATOM     24  S   UNL     1      47.348   8.704  20.927  0.00  0.00    +0.000 S 
ATOM     25  C   UNL     1      47.475   9.709  19.557  0.00  0.00    +0.000 A 
ATOM     26  N   UNL     1      47.141  11.028  19.613  0.00  0.00    +0.000 NA
ATOM     27  C   UNL     1      47.270  11.656  18.492  0.00  0.00    +0.000 A 
ATOM     28  N   UNL     1      47.690  11.089  17.318  0.00  0.00    +0.000 N 
ATOM     29  C   UNL     1      48.043   9.766  17.215  0.00  0.00    +0.000 A 
ATOM     30  O   UNL     1      48.446   9.306  16.151  0.00  0.00    +0.000 OA
ATOM     31  C   UNL     1      47.937   9.019  18.454  0.00  0.00    +0.000 A 
ATOM     32  H   UNL     1      47.773  11.635  16.474  0.00  0.00    +0.000 HD
ENDBRANCH  19  22
ENDBRANCH   1  20
TORSDOF 7
ENDMDL
MODEL 8
REMARK VINA RESULT:    -7.174      3.304      8.034
REMARK INTER + INTRA:         -11.257
REMARK INTER:                  -9.561
REMARK INTRA:                  -1.696
REMARK UNBOUND:                -1.357
REMARK  Name = 
REMARK  7 active torsions:
REMARK  status: ('A' for Active; 'I' for Inactive)
REMARK    1  A    between atoms: C_2  and  C_20
REMARK    2  A    between atoms: N_3  and  C_4
REMARK    3  A    between atoms: C_4  and  C_5
REMARK    4  A    between atoms: C_8  and  C_9
REMARK    5  A    between atoms: C_9  and  C_10
REMARK    6  A    between atoms: C_10  and  O_11
REMARK    7  A    between atoms: C_10  and  C_12
REMARK                            x       y       z     vdW  Elec       q    Type
REMARK                         _______ _______ _______ _____ _____    ______ ____
ROOT
ATOM      1  C   UNL     1      47.725   7.765  11.940  0.00  0.00    +0.000 C 
ENDROOT
BRANCH   1   2
ATOM      2  C   UNL     1      48.177   7.801  13.370  0.00  0.00    +0.000 A 
ATOM      3  C   UNL     1      47.626   8.753  14.232  0.00  0.00    +0.000 A 
ATOM      4  C   UNL     1      48.023   8.817  15.563  0.00  0.00    +0.000 A 
ATOM      5  C   UNL     1      48.980   7.931  16.070  0.00  0.00    +0.000 A 
ATOM      6  C   UNL     1      49.557   6.998  15.194  0.00  0.00    +0.000 A 
ATOM      7  C   UNL     1      49.164   6.937  13.854  0.00  0.00    +0.000 A 
BRANCH   5   8
ATOM      8  C   UNL     1      49.394   7.908  17.528  0.00  0.00    +0.000 C 
BRANCH   8   9
ATOM      9  C   UNL     1      48.630   6.935  18.454  0.00  0.00    +0.000 C 
BRANCH   9  10
ATOM     10  C   UNL     1      48.679   5.476  18.050  0.00  0.00    +0.000 A 
ATOM     11  C   UNL     1      47.505   4.874  17.563  0.00  0.00    +0.000 A 
ATOM     12  C   UNL     1      47.517   3.562  17.090  0.00  0.00    +0.000 A 
ATOM     13  C   UNL     1      48.702   2.833  17.092  0.00  0.00    +0.000 A 
ATOM     14  C   UNL     1      49.875   3.411  17.573  0.00  0.00    +0.000 A 
ATOM     15  C   UNL     1      49.865   4.728  18.042  0.00  0.00    +0.000 A 
ENDBRANCH   9  10
BRANCH   9  16
ATOM     16  O   UNL     1      47.242   7.278  18.517  0.00  0.00    +0.000 OA
ATOM     17  H   UNL     1      46.820   6.923  17.717  0.00  0.00    +0.000 HD
ENDBRANCH   9  16
ENDBRANCH   8   9
ENDBRANCH   5   8
ENDBRANCH   1   2
BRANCH   1  20
ATOM     18  O   UNL     1      44.879   7.589  11.961  0.00  0.00    +0.000 OA
ATOM     19  C   UNL     1      45.562   6.584  11.783  0.00  0.00    +0.000 C 
ATOM     20  N   UNL     1      46.926   6.599  11.692  0.00  0.00    +0.000 N 
ATOM     21  H   UNL     1      47.429   5.733  11.559  0.00  0.00    +0.000 HD
BRANCH  19  22
ATOM     22  C   UNL     1      44.958   5.263  11.605  0.00  0.00    +0.000 A 
ATOM     23  C   UNL     1      44.285   4.636  12.641  0.00  0.00    +0.000 A 
ATOM     24  S   UNL     1      43.619   3.128  12.192  0.00  0.00    +0.000 S 
ATOM     25  C   UNL     1      44.248   3.253  10.614  0.00  0.00    +0.000 A 
ATOM     26  N   UNL     1      44.037   2.276   9.689  0.00  0.00    +0.000 NA
ATOM     27  C   UNL     1      44.592   2.500   8.544  0.00  0.00    +0.000 A 
ATOM     28  N   UNL     1      45.347   3.602   8.240  0.00  0.00    +0.000 N 
ATOM     29  C   UNL     1      45.581   4.616   9.137  0.00  0.00    +0.000 A 
ATOM     30  O   UNL     1      46.235   5.602   8.813  0.00  0.00    +0.000 OA
ATOM     31  C   UNL     1      44.960   4.423  10.434  0.00  0.00    +0.000 A 
ATOM     32  H   UNL     1      45.753   3.722   7.325  0.00  0.00    +0.000 HD
ENDBRANCH  19  22
ENDBRANCH   1  20
TORSDOF 7
ENDMDL
