MODEL 1
REMARK VINA RESULT:    -7.688      0.000      0.000
REMARK INTER + INTRA:         -11.903
REMARK INTER:                 -10.835
REMARK INTRA:                  -1.068
REMARK UNBOUND:                -1.068
REMARK  Name = 
REMARK  9 active torsions:
REMARK  status: ('A' for Active; 'I' for Inactive)
REMARK    1  A    between atoms: C_1  and  C_2
REMARK    2  A    between atoms: C_6  and  C_7
REMARK    3  A    between atoms: C_7  and  N_8
REMARK    4  A    between atoms: N_8  and  C_9
REMARK    5  A    between atoms: C_9  and  C_10
REMARK    6  A    between atoms: C_13  and  C_14
REMARK    7  A    between atoms: C_14  and  N_15
REMARK    8  A    between atoms: N_15  and  C_16
REMARK    9  A    between atoms: C_17  and  C_19
REMARK                            x       y       z     vdW  Elec       q    Type
REMARK                         _______ _______ _______ _____ _____    ______ ____
ROOT
ATOM      1  C   UNL     1      45.377   4.865  12.945  0.00  0.00    +0.000 A 
ATOM      2  C   UNL     1      45.689   6.077  12.330  0.00  0.00    +0.000 A 
ATOM      3  C   UNL     1      46.809   6.790  12.759  0.00  0.00    +0.000 A 
ATOM      4  C   UNL     1      47.588   6.295  13.805  0.00  0.00    +0.000 A 
ATOM      5  C   UNL     1      47.163   5.105  14.394  0.00  0.00    +0.000 A 
ATOM      6  N   UNL     1      46.099   4.378  13.983  0.00  0.00    +0.000 NA
ENDROOT
BRANCH   1   7
ATOM      7  C   UNL     1      44.223   4.020  12.432  0.00  0.00    +0.000 C 
BRANCH   7   8
ATOM      8  N   UNL     1      44.639   2.807  11.710  0.00  0.00    +0.000 NA
ATOM      9  H   UNL     1      45.644   2.864  11.535  0.00  0.00    +0.000 HD
BRANCH   8  10
ATOM     10  C   UNL     1      43.993   2.712  10.391  0.00  0.00    +0.000 C 
BRANCH  10  16
ATOM     11  C   UNL     1      47.093   0.472   7.360  0.00  0.00    +0.000 C 
ATOM     12  C   UNL     1      46.471   1.760   7.809  0.00  0.00    +0.000 A 
ATOM     13  C   UNL     1      46.816   2.966   7.211  0.00  0.00    +0.000 A 
ATOM     14  C   UNL     1      46.224   4.137   7.674  0.00  0.00    +0.000 A 
ATOM     15  C   UNL     1      45.307   4.070   8.717  0.00  0.00    +0.000 A 
ATOM     16  C   UNL     1      45.014   2.828   9.274  0.00  0.00    +0.000 A 
ATOM     17  N   UNL     1      45.576   1.677   8.825  0.00  0.00    +0.000 NA
ENDBRANCH  10  16
ENDBRANCH   8  10
ENDBRANCH   7   8
ENDBRANCH   1   7
BRANCH   4  18
ATOM     18  C   UNL     1      48.845   6.990  14.268  0.00  0.00    +0.000 C 
BRANCH  18  19
ATOM     19  N   UNL     1      48.852   7.469  15.662  0.00  0.00    +0.000 N 
ATOM     20  C   UNL     1      48.279   8.777  15.958  0.00  0.00    +0.000 C 
ATOM     21  C   UNL     1      49.649   6.744  16.574  0.00  0.00    +0.000 C 
ATOM     22  O   UNL     1      50.262   5.744  16.210  0.00  0.00    +0.000 OA
BRANCH  21  23
ATOM     23  C   UNL     1      49.704   7.162  17.989  0.00  0.00    +0.000 A 
ATOM     24  C   UNL     1      50.556   8.137  18.485  0.00  0.00    +0.000 A 
ATOM     25  S   UNL     1      50.378   8.429  20.156  0.00  0.00    +0.000 S 
ATOM     26  C   UNL     1      49.051   7.370  20.251  0.00  0.00    +0.000 A 
ATOM     27  N   UNL     1      48.356   7.232  21.412  0.00  0.00    +0.000 NA
ATOM     28  C   UNL     1      47.340   6.446  21.332  0.00  0.00    +0.000 A 
ATOM     29  N   UNL     1      46.977   5.760  20.201  0.00  0.00    +0.000 N 
ATOM     30  C   UNL     1      47.725   5.761  19.038  0.00  0.00    +0.000 A 
ATOM     31  O   UNL     1      47.501   4.956  18.142  0.00  0.00    +0.000 OA
ATOM     32  C   UNL     1      48.813   6.729  19.048  0.00  0.00    +0.000 A 
ATOM     33  H   UNL     1      46.208   5.100  20.217  0.00  0.00    +0.000 HD
ENDBRANCH  21  23
ENDBRANCH  18  19
ENDBRANCH   4  18
TORSDOF 7
ENDMDL
MODEL 2
REMARK VINA RESULT:    -7.605      3.963      5.520
REMARK INTER + INTRA:         -11.785
REMARK INTER:                 -11.199
REMARK INTRA:                  -0.586
REMARK UNBOUND:                -1.068
REMARK  Name = 
REMARK  9 active torsions:
REMARK  status: ('A' for Active; 'I' for Inactive)
REMARK    1  A    between atoms: C_1  and  C_2
REMARK    2  A    between atoms: C_6  and  C_7
REMARK    3  A    between atoms: C_7  and  N_8
REMARK    4  A    between atoms: N_8  and  C_9
REMARK    5  A    between atoms: C_9  and  C_10
REMARK    6  A    between atoms: C_13  and  C_14
REMARK    7  A    between atoms: C_14  and  N_15
REMARK    8  A    between atoms: N_15  and  C_16
REMARK    9  A    between atoms: C_17  and  C_19
REMARK                            x       y       z     vdW  Elec       q    Type
REMARK                         _______ _______ _______ _____ _____    ______ ____
ROOT
ATOM      1  C   UNL     1      44.767   3.883  12.737  0.00  0.00    +0.000 A 
ATOM      2  C   UNL     1      44.605   5.264  12.852  0.00  0.00    +0.000 A 
ATOM      3  C   UNL     1      45.698   6.051  13.217  0.00  0.00    +0.000 A 
ATOM      4  C   UNL     1      46.928   5.448  13.481  0.00  0.00    +0.000 A 
ATOM      5  C   UNL     1      46.977   4.058  13.396  0.00  0.00    +0.000 A 
ATOM      6  N   UNL     1      45.943   3.271  13.018  0.00  0.00    +0.000 NA
ENDROOT
BRANCH   1   7
ATOM      7  C   UNL     1      43.622   3.016  12.244  0.00  0.00    +0.000 C 
BRANCH   7   8
ATOM      8  N   UNL     1      43.821   2.465  10.894  0.00  0.00    +0.000 NA
ATOM      9  H   UNL     1      44.690   1.928  10.889  0.00  0.00    +0.000 HD
BRANCH   8  10
ATOM     10  C   UNL     1      43.986   3.531   9.892  0.00  0.00    +0.000 C 
BRANCH  10  16
ATOM     11  C   UNL     1      46.723   0.112   7.739  0.00  0.00    +0.000 C 
ATOM     12  C   UNL     1      46.389   1.567   7.870  0.00  0.00    +0.000 A 
ATOM     13  C   UNL     1      47.065   2.526   7.124  0.00  0.00    +0.000 A 
ATOM     14  C   UNL     1      46.731   3.865   7.294  0.00  0.00    +0.000 A 
ATOM     15  C   UNL     1      45.734   4.209   8.201  0.00  0.00    +0.000 A 
ATOM     16  C   UNL     1      45.103   3.196   8.919  0.00  0.00    +0.000 A 
ATOM     17  N   UNL     1      45.412   1.885   8.755  0.00  0.00    +0.000 NA
ENDBRANCH  10  16
ENDBRANCH   8  10
ENDBRANCH   7   8
ENDBRANCH   1   7
BRANCH   4  18
ATOM     18  C   UNL     1      48.160   6.253  13.819  0.00  0.00    +0.000 C 
BRANCH  18  19
ATOM     19  N   UNL     1      48.070   7.708  13.604  0.00  0.00    +0.000 N 
ATOM     20  C   UNL     1      47.723   8.564  14.733  0.00  0.00    +0.000 C 
ATOM     21  C   UNL     1      48.067   8.149  12.263  0.00  0.00    +0.000 C 
ATOM     22  O   UNL     1      48.178   7.345  11.341  0.00  0.00    +0.000 OA
BRANCH  21  23
ATOM     23  C   UNL     1      47.983   9.593  11.969  0.00  0.00    +0.000 A 
ATOM     24  C   UNL     1      49.062  10.380  11.596  0.00  0.00    +0.000 A 
ATOM     25  S   UNL     1      48.659  12.010  11.292  0.00  0.00    +0.000 S 
ATOM     26  C   UNL     1      47.002  11.693  11.501  0.00  0.00    +0.000 A 
ATOM     27  N   UNL     1      46.077  12.664  11.280  0.00  0.00    +0.000 NA
ATOM     28  C   UNL     1      44.857  12.276  11.415  0.00  0.00    +0.000 A 
ATOM     29  N   UNL     1      44.483  11.009  11.784  0.00  0.00    +0.000 N 
ATOM     30  C   UNL     1      45.383  10.026  12.149  0.00  0.00    +0.000 A 
ATOM     31  O   UNL     1      45.007   8.997  12.697  0.00  0.00    +0.000 OA
ATOM     32  C   UNL     1      46.771  10.385  11.895  0.00  0.00    +0.000 A 
ATOM     33  H   UNL     1      43.507  10.780  11.943  0.00  0.00    +0.000 HD
ENDBRANCH  21  23
ENDBRANCH  18  19
ENDBRANCH   4  18
TORSDOF 7
ENDMDL
MODEL 3
REMARK VINA RESULT:    -7.306      2.068      2.296
REMARK INTER + INTRA:         -11.364
REMARK INTER:                 -10.307
REMARK INTRA:                  -1.057
REMARK UNBOUND:                -1.068
REMARK  Name = 
REMARK  9 active torsions:
REMARK  status: ('A' for Active; 'I' for Inactive)
REMARK    1  A    between atoms: C_1  and  C_2
REMARK    2  A    between atoms: C_6  and  C_7
REMARK    3  A    between atoms: C_7  and  N_8
REMARK    4  A    between atoms: N_8  and  C_9
REMARK    5  A    between atoms: C_9  and  C_10
REMARK    6  A    between atoms: C_13  and  C_14
REMARK    7  A    between atoms: C_14  and  N_15
REMARK    8  A    between atoms: N_15  and  C_16
REMARK    9  A    between atoms: C_17  and  C_19
REMARK                            x       y       z     vdW  Elec       q    Type
REMARK                         _______ _______ _______ _____ _____    ______ ____
ROOT
ATOM      1  C   UNL     1      44.960   6.234  11.408  0.00  0.00    +0.000 A 
ATOM      2  C   UNL     1      46.248   6.197  10.873  0.00  0.00    +0.000 A 
ATOM      3  C   UNL     1      47.241   7.003  11.431  0.00  0.00    +0.000 A 
ATOM      4  C   UNL     1      46.930   7.846  12.499  0.00  0.00    +0.000 A 
ATOM      5  C   UNL     1      45.604   7.856  12.925  0.00  0.00    +0.000 A 
ATOM      6  N   UNL     1      44.626   7.067  12.423  0.00  0.00    +0.000 NA
ENDROOT
BRANCH   1   7
ATOM      7  C   UNL     1      43.886   5.295  10.885  0.00  0.00    +0.000 C 
BRANCH   7   8
ATOM      8  N   UNL     1      44.197   4.693   9.579  0.00  0.00    +0.000 NA
ATOM      9  H   UNL     1      43.377   4.785   8.976  0.00  0.00    +0.000 HD
BRANCH   8  10
ATOM     10  C   UNL     1      44.465   3.251   9.696  0.00  0.00    +0.000 C 
BRANCH  10  16
ATOM     11  C   UNL     1      46.913  -0.430   7.627  0.00  0.00    +0.000 C 
ATOM     12  C   UNL     1      46.600   1.036   7.633  0.00  0.00    +0.000 A 
ATOM     13  C   UNL     1      47.183   1.894   6.708  0.00  0.00    +0.000 A 
ATOM     14  C   UNL     1      46.875   3.250   6.765  0.00  0.00    +0.000 A 
ATOM     15  C   UNL     1      45.996   3.708   7.740  0.00  0.00    +0.000 A 
ATOM     16  C   UNL     1      45.455   2.792   8.639  0.00  0.00    +0.000 A 
ATOM     17  N   UNL     1      45.738   1.466   8.588  0.00  0.00    +0.000 NA
ENDBRANCH  10  16
ENDBRANCH   8  10
ENDBRANCH   7   8
ENDBRANCH   1   7
BRANCH   4  18
ATOM     18  C   UNL     1      47.976   8.693  13.183  0.00  0.00    +0.000 C 
BRANCH  18  19
ATOM     19  N   UNL     1      48.389   8.262  14.530  0.00  0.00    +0.000 N 
ATOM     20  C   UNL     1      47.907   9.010  15.685  0.00  0.00    +0.000 C 
ATOM     21  C   UNL     1      49.432   7.313  14.598  0.00  0.00    +0.000 C 
ATOM     22  O   UNL     1      49.927   6.855  13.570  0.00  0.00    +0.000 OA
BRANCH  21  23
ATOM     23  C   UNL     1      49.898   6.830  15.912  0.00  0.00    +0.000 A 
ATOM     24  C   UNL     1      50.933   7.403  16.635  0.00  0.00    +0.000 A 
ATOM     25  S   UNL     1      51.232   6.648  18.135  0.00  0.00    +0.000 S 
ATOM     26  C   UNL     1      49.890   5.622  17.944  0.00  0.00    +0.000 A 
ATOM     27  N   UNL     1      49.519   4.774  18.940  0.00  0.00    +0.000 NA
ATOM     28  C   UNL     1      48.452   4.097  18.690  0.00  0.00    +0.000 A 
ATOM     29  N   UNL     1      47.743   4.172  17.518  0.00  0.00    +0.000 N 
ATOM     30  C   UNL     1      48.152   4.915  16.427  0.00  0.00    +0.000 A 
ATOM     31  O   UNL     1      47.629   4.768  15.330  0.00  0.00    +0.000 OA
ATOM     32  C   UNL     1      49.285   5.786  16.710  0.00  0.00    +0.000 A 
ATOM     33  H   UNL     1      46.950   3.562  17.351  0.00  0.00    +0.000 HD
ENDBRANCH  21  23
ENDBRANCH  18  19
ENDBRANCH   4  18
TORSDOF 7
ENDMDL
MODEL 4
REMARK VINA RESULT:    -7.231      1.529      2.270
REMARK INTER + INTRA:         -11.257
REMARK INTER:                 -10.118
REMARK INTRA:                  -1.139
REMARK UNBOUND:                -1.068
REMARK  Name = 
REMARK  9 active torsions:
REMARK  status: ('A' for Active; 'I' for Inactive)
REMARK    1  A    between atoms: C_1  and  C_2
REMARK    2  A    between atoms: C_6  and  C_7
REMARK    3  A    between atoms: C_7  and  N_8
REMARK    4  A    between atoms: N_8  and  C_9
REMARK    5  A    between atoms: C_9  and  C_10
REMARK    6  A    between atoms: C_13  and  C_14
REMARK    7  A    between atoms: C_14  and  N_15
REMARK    8  A    between atoms: N_15  and  C_16
REMARK    9  A    between atoms: C_17  and  C_19
REMARK                            x       y       z     vdW  Elec       q    Type
REMARK                         _______ _______ _______ _____ _____    ______ ____
ROOT
ATOM      1  C   UNL     1      44.544   5.000  12.878  0.00  0.00    +0.000 A 
ATOM      2  C   UNL     1      44.870   6.312  12.536  0.00  0.00    +0.000 A 
ATOM      3  C   UNL     1      46.119   6.820  12.894  0.00  0.00    +0.000 A 
ATOM      4  C   UNL     1      47.014   6.020  13.605  0.00  0.00    +0.000 A 
ATOM      5  C   UNL     1      46.577   4.744  13.952  0.00  0.00    +0.000 A 
ATOM      6  N   UNL     1      45.383   4.214  13.596  0.00  0.00    +0.000 NA
ENDROOT
BRANCH   1   7
ATOM      7  C   UNL     1      43.232   4.389  12.414  0.00  0.00    +0.000 C 
BRANCH   7   8
ATOM      8  N   UNL     1      43.192   4.069  10.979  0.00  0.00    +0.000 NA
ATOM      9  H   UNL     1      42.216   3.938  10.704  0.00  0.00    +0.000 HD
BRANCH   8  10
ATOM     10  C   UNL     1      43.880   2.802  10.685  0.00  0.00    +0.000 C 
BRANCH  10  16
ATOM     11  C   UNL     1      46.903   0.694   7.486  0.00  0.00    +0.000 C 
ATOM     12  C   UNL     1      46.269   1.958   7.983  0.00  0.00    +0.000 A 
ATOM     13  C   UNL     1      46.558   3.183   7.393  0.00  0.00    +0.000 A 
ATOM     14  C   UNL     1      45.958   4.330   7.902  0.00  0.00    +0.000 A 
ATOM     15  C   UNL     1      45.088   4.222   8.982  0.00  0.00    +0.000 A 
ATOM     16  C   UNL     1      44.850   2.963   9.528  0.00  0.00    +0.000 A 
ATOM     17  N   UNL     1      45.421   1.835   9.034  0.00  0.00    +0.000 NA
ENDBRANCH  10  16
ENDBRANCH   8  10
ENDBRANCH   7   8
ENDBRANCH   1   7
BRANCH   4  18
ATOM     18  C   UNL     1      48.402   6.494  13.964  0.00  0.00    +0.000 C 
BRANCH  18  19
ATOM     19  N   UNL     1      48.546   7.169  15.266  0.00  0.00    +0.000 N 
ATOM     20  C   UNL     1      48.520   8.627  15.309  0.00  0.00    +0.000 C 
ATOM     21  C   UNL     1      48.963   6.366  16.350  0.00  0.00    +0.000 C 
ATOM     22  O   UNL     1      49.148   5.161  16.199  0.00  0.00    +0.000 OA
BRANCH  21  23
ATOM     23  C   UNL     1      49.126   6.971  17.687  0.00  0.00    +0.000 A 
ATOM     24  C   UNL     1      48.115   7.068  18.631  0.00  0.00    +0.000 A 
ATOM     25  S   UNL     1      48.603   7.790  20.097  0.00  0.00    +0.000 S 
ATOM     26  C   UNL     1      50.222   7.862  19.582  0.00  0.00    +0.000 A 
ATOM     27  N   UNL     1      51.199   8.296  20.423  0.00  0.00    +0.000 NA
ATOM     28  C   UNL     1      52.386   8.244  19.928  0.00  0.00    +0.000 A 
ATOM     29  N   UNL     1      52.679   7.827  18.655  0.00  0.00    +0.000 N 
ATOM     30  C   UNL     1      51.714   7.505  17.720  0.00  0.00    +0.000 A 
ATOM     31  O   UNL     1      51.999   7.372  16.536  0.00  0.00    +0.000 OA
ATOM     32  C   UNL     1      50.368   7.435  18.273  0.00  0.00    +0.000 A 
ATOM     33  H   UNL     1      53.626   7.875  18.296  0.00  0.00    +0.000 HD
ENDBRANCH  21  23
ENDBRANCH  18  19
ENDBRANCH   4  18
TORSDOF 7
ENDMDL
MODEL 5
REMARK VINA RESULT:    -7.056      3.567      4.062
REMARK INTER + INTRA:         -11.011
REMARK INTER:                 -10.418
REMARK INTRA:                  -0.593
REMARK UNBOUND:                -1.068
REMARK  Name = 
REMARK  9 active torsions:
REMARK  status: ('A' for Active; 'I' for Inactive)
REMARK    1  A    between atoms: C_1  and  C_2
REMARK    2  A    between atoms: C_6  and  C_7
REMARK    3  A    between atoms: C_7  and  N_8
REMARK    4  A    between atoms: N_8  and  C_9
REMARK    5  A    between atoms: C_9  and  C_10
REMARK    6  A    between atoms: C_13  and  C_14
REMARK    7  A    between atoms: C_14  and  N_15
REMARK    8  A    between atoms: N_15  and  C_16
REMARK    9  A    between atoms: C_17  and  C_19
REMARK                            x       y       z     vdW  Elec       q    Type
REMARK                         _______ _______ _______ _____ _____    ______ ____
ROOT
ATOM      1  C   UNL     1      46.796   4.787  13.701  0.00  0.00    +0.000 A 
ATOM      2  C   UNL     1      46.764   3.909  14.785  0.00  0.00    +0.000 A 
ATOM      3  C   UNL     1      47.391   4.274  15.976  0.00  0.00    +0.000 A 
ATOM      4  C   UNL     1      48.057   5.497  16.063  0.00  0.00    +0.000 A 
ATOM      5  C   UNL     1      48.084   6.280  14.911  0.00  0.00    +0.000 A 
ATOM      6  N   UNL     1      47.462   5.966  13.751  0.00  0.00    +0.000 NA
ENDROOT
BRANCH   1   7
ATOM      7  C   UNL     1      46.037   4.460  12.427  0.00  0.00    +0.000 C 
BRANCH   7   8
ATOM      8  N   UNL     1      45.362   3.152  12.447  0.00  0.00    +0.000 NA
ATOM      9  H   UNL     1      46.058   2.426  12.261  0.00  0.00    +0.000 HD
BRANCH   8  10
ATOM     10  C   UNL     1      44.355   3.044  11.380  0.00  0.00    +0.000 C 
BRANCH  10  16
ATOM     11  C   UNL     1      46.636   0.694   7.761  0.00  0.00    +0.000 C 
ATOM     12  C   UNL     1      46.065   1.983   8.270  0.00  0.00    +0.000 A 
ATOM     13  C   UNL     1      46.128   3.143   7.507  0.00  0.00    +0.000 A 
ATOM     14  C   UNL     1      45.601   4.319   8.030  0.00  0.00    +0.000 A 
ATOM     15  C   UNL     1      45.027   4.304   9.297  0.00  0.00    +0.000 A 
ATOM     16  C   UNL     1      45.004   3.107  10.008  0.00  0.00    +0.000 A 
ATOM     17  N   UNL     1      45.505   1.950   9.505  0.00  0.00    +0.000 NA
ENDBRANCH  10  16
ENDBRANCH   8  10
ENDBRANCH   7   8
ENDBRANCH   1   7
BRANCH   4  18
ATOM     18  C   UNL     1      48.698   5.971  17.344  0.00  0.00    +0.000 C 
BRANCH  18  19
ATOM     19  N   UNL     1      49.730   5.093  17.924  0.00  0.00    +0.000 N 
ATOM     20  C   UNL     1      49.471   4.460  19.212  0.00  0.00    +0.000 C 
ATOM     21  C   UNL     1      51.005   5.132  17.319  0.00  0.00    +0.000 C 
ATOM     22  O   UNL     1      51.207   5.839  16.334  0.00  0.00    +0.000 OA
BRANCH  21  23
ATOM     23  C   UNL     1      52.089   4.277  17.842  0.00  0.00    +0.000 A 
ATOM     24  C   UNL     1      53.189   4.749  18.541  0.00  0.00    +0.000 A 
ATOM     25  S   UNL     1      54.267   3.526  19.045  0.00  0.00    +0.000 S 
ATOM     26  C   UNL     1      53.226   2.306  18.480  0.00  0.00    +0.000 A 
ATOM     27  N   UNL     1      53.516   0.995  18.692  0.00  0.00    +0.000 NA
ATOM     28  C   UNL     1      52.617   0.177  18.267  0.00  0.00    +0.000 A 
ATOM     29  N   UNL     1      51.469   0.555  17.619  0.00  0.00    +0.000 N 
ATOM     30  C   UNL     1      51.193   1.861  17.261  0.00  0.00    +0.000 A 
ATOM     31  O   UNL     1      50.286   2.124  16.481  0.00  0.00    +0.000 OA
ATOM     32  C   UNL     1      52.123   2.828  17.827  0.00  0.00    +0.000 A 
ATOM     33  H   UNL     1      50.832  -0.138  17.243  0.00  0.00    +0.000 HD
ENDBRANCH  21  23
ENDBRANCH  18  19
ENDBRANCH   4  18
TORSDOF 7
ENDMDL
MODEL 6
REMARK VINA RESULT:    -7.022      4.306      6.036
REMARK INTER + INTRA:         -10.964
REMARK INTER:                  -9.983
REMARK INTRA:                  -0.980
REMARK UNBOUND:                -1.068
REMARK  Name = 
REMARK  9 active torsions:
REMARK  status: ('A' for Active; 'I' for Inactive)
REMARK    1  A    between atoms: C_1  and  C_2
REMARK    2  A    between atoms: C_6  and  C_7
REMARK    3  A    between atoms: C_7  and  N_8
REMARK    4  A    between atoms: N_8  and  C_9
REMARK    5  A    between atoms: C_9  and  C_10
REMARK    6  A    between atoms: C_13  and  C_14
REMARK    7  A    between atoms: C_14  and  N_15
REMARK    8  A    between atoms: N_15  and  C_16
REMARK    9  A    between atoms: C_17  and  C_19
REMARK                            x       y       z     vdW  Elec       q    Type
REMARK                         _______ _______ _______ _____ _____    ______ ____
ROOT
ATOM      1  C   UNL     1      44.691   4.161  12.741  0.00  0.00    +0.000 A 
ATOM      2  C   UNL     1      44.399   5.518  12.598  0.00  0.00    +0.000 A 
ATOM      3  C   UNL     1      45.374   6.462  12.917  0.00  0.00    +0.000 A 
ATOM      4  C   UNL     1      46.617   6.042  13.391  0.00  0.00    +0.000 A 
ATOM      5  C   UNL     1      46.795   4.670  13.555  0.00  0.00    +0.000 A 
ATOM      6  N   UNL     1      45.879   3.729  13.229  0.00  0.00    +0.000 NA
ENDROOT
BRANCH   1   7
ATOM      7  C   UNL     1      43.683   3.110  12.307  0.00  0.00    +0.000 C 
BRANCH   7   8
ATOM      8  N   UNL     1      44.007   2.457  11.029  0.00  0.00    +0.000 NA
ATOM      9  H   UNL     1      44.962   2.096  11.083  0.00  0.00    +0.000 HD
BRANCH   8  10
ATOM     10  C   UNL     1      43.989   3.413   9.910  0.00  0.00    +0.000 C 
BRANCH  10  16
ATOM     11  C   UNL     1      46.793   0.097   7.685  0.00  0.00    +0.000 C 
ATOM     12  C   UNL     1      46.425   1.542   7.841  0.00  0.00    +0.000 A 
ATOM     13  C   UNL     1      47.071   2.528   7.106  0.00  0.00    +0.000 A 
ATOM     14  C   UNL     1      46.706   3.856   7.299  0.00  0.00    +0.000 A 
ATOM     15  C   UNL     1      45.707   4.161   8.218  0.00  0.00    +0.000 A 
ATOM     16  C   UNL     1      45.106   3.122   8.924  0.00  0.00    +0.000 A 
ATOM     17  N   UNL     1      45.446   1.821   8.738  0.00  0.00    +0.000 NA
ENDBRANCH  10  16
ENDBRANCH   8  10
ENDBRANCH   7   8
ENDBRANCH   1   7
BRANCH   4  18
ATOM     18  C   UNL     1      47.732   7.015  13.691  0.00  0.00    +0.000 C 
BRANCH  18  19
ATOM     19  N   UNL     1      48.163   7.880  12.579  0.00  0.00    +0.000 N 
ATOM     20  C   UNL     1      48.577   7.259  11.326  0.00  0.00    +0.000 C 
ATOM     21  C   UNL     1      48.396   9.237  12.889  0.00  0.00    +0.000 C 
ATOM     22  O   UNL     1      48.201   9.661  14.026  0.00  0.00    +0.000 OA
BRANCH  21  23
ATOM     23  C   UNL     1      48.827  10.167  11.826  0.00  0.00    +0.000 A 
ATOM     24  C   UNL     1      47.978  11.029  11.149  0.00  0.00    +0.000 A 
ATOM     25  S   UNL     1      48.762  12.006   9.991  0.00  0.00    +0.000 S 
ATOM     26  C   UNL     1      50.289  11.421  10.456  0.00  0.00    +0.000 A 
ATOM     27  N   UNL     1      51.424  11.933   9.910  0.00  0.00    +0.000 NA
ATOM     28  C   UNL     1      52.513  11.445  10.393  0.00  0.00    +0.000 A 
ATOM     29  N   UNL     1      52.565  10.465  11.352  0.00  0.00    +0.000 N 
ATOM     30  C   UNL     1      51.446   9.819  11.841  0.00  0.00    +0.000 A 
ATOM     31  O   UNL     1      51.547   8.798  12.509  0.00  0.00    +0.000 OA
ATOM     32  C   UNL     1      50.192  10.422  11.411  0.00  0.00    +0.000 A 
ATOM     33  H   UNL     1      53.452  10.069  11.643  0.00  0.00    +0.000 HD
ENDBRANCH  21  23
ENDBRANCH  18  19
ENDBRANCH   4  18
TORSDOF 7
ENDMDL
MODEL 7
REMARK VINA RESULT:    -6.833      2.351      2.862
REMARK INTER + INTRA:         -10.698
REMARK INTER:                  -9.572
REMARK INTRA:                  -1.126
REMARK UNBOUND:                -1.068
REMARK  Name = 
REMARK  9 active torsions:
REMARK  status: ('A' for Active; 'I' for Inactive)
REMARK    1  A    between atoms: C_1  and  C_2
REMARK    2  A    between atoms: C_6  and  C_7
REMARK    3  A    between atoms: C_7  and  N_8
REMARK    4  A    between atoms: N_8  and  C_9
REMARK    5  A    between atoms: C_9  and  C_10
REMARK    6  A    between atoms: C_13  and  C_14
REMARK    7  A    between atoms: C_14  and  N_15
REMARK    8  A    between atoms: N_15  and  C_16
REMARK    9  A    between atoms: C_17  and  C_19
REMARK                            x       y       z     vdW  Elec       q    Type
REMARK                         _______ _______ _______ _____ _____    ______ ____
ROOT
ATOM      1  C   UNL     1      45.129   5.309  12.805  0.00  0.00    +0.000 A 
ATOM      2  C   UNL     1      46.503   5.074  12.865  0.00  0.00    +0.000 A 
ATOM      3  C   UNL     1      47.384   6.149  12.745  0.00  0.00    +0.000 A 
ATOM      4  C   UNL     1      46.884   7.437  12.548  0.00  0.00    +0.000 A 
ATOM      5  C   UNL     1      45.500   7.564  12.444  0.00  0.00    +0.000 A 
ATOM      6  N   UNL     1      44.620   6.546  12.583  0.00  0.00    +0.000 NA
ENDROOT
BRANCH   1   7
ATOM      7  C   UNL     1      44.146   4.173  13.033  0.00  0.00    +0.000 C 
BRANCH   7   8
ATOM      8  N   UNL     1      44.480   2.935  12.311  0.00  0.00    +0.000 NA
ATOM      9  H   UNL     1      45.469   2.966  12.056  0.00  0.00    +0.000 HD
BRANCH   8  10
ATOM     10  C   UNL     1      43.730   2.823  11.050  0.00  0.00    +0.000 C 
BRANCH  10  16
ATOM     11  C   UNL     1      46.667   0.853   7.686  0.00  0.00    +0.000 C 
ATOM     12  C   UNL     1      46.019   2.090   8.231  0.00  0.00    +0.000 A 
ATOM     13  C   UNL     1      46.244   3.332   7.648  0.00  0.00    +0.000 A 
ATOM     14  C   UNL     1      45.634   4.453   8.201  0.00  0.00    +0.000 A 
ATOM     15  C   UNL     1      44.818   4.303   9.317  0.00  0.00    +0.000 A 
ATOM     16  C   UNL     1      44.642   3.030   9.853  0.00  0.00    +0.000 A 
ATOM     17  N   UNL     1      45.223   1.926   9.317  0.00  0.00    +0.000 NA
ENDBRANCH  10  16
ENDBRANCH   8  10
ENDBRANCH   7   8
ENDBRANCH   1   7
BRANCH   4  18
ATOM     18  C   UNL     1      47.786   8.645  12.475  0.00  0.00    +0.000 C 
BRANCH  18  19
ATOM     19  N   UNL     1      49.050   8.565  13.230  0.00  0.00    +0.000 N 
ATOM     20  C   UNL     1      50.236   8.043  12.561  0.00  0.00    +0.000 C 
ATOM     21  C   UNL     1      48.963   8.754  14.626  0.00  0.00    +0.000 C 
ATOM     22  O   UNL     1      47.884   9.012  15.156  0.00  0.00    +0.000 OA
BRANCH  21  23
ATOM     23  C   UNL     1      50.186   8.692  15.450  0.00  0.00    +0.000 A 
ATOM     24  C   UNL     1      51.065   9.750  15.627  0.00  0.00    +0.000 A 
ATOM     25  S   UNL     1      52.379   9.395  16.655  0.00  0.00    +0.000 S 
ATOM     26  C   UNL     1      51.743   7.862  17.023  0.00  0.00    +0.000 A 
ATOM     27  N   UNL     1      52.347   7.064  17.943  0.00  0.00    +0.000 NA
ATOM     28  C   UNL     1      51.731   5.957  18.171  0.00  0.00    +0.000 A 
ATOM     29  N   UNL     1      50.580   5.564  17.536  0.00  0.00    +0.000 N 
ATOM     30  C   UNL     1      50.003   6.275  16.501  0.00  0.00    +0.000 A 
ATOM     31  O   UNL     1      49.125   5.779  15.805  0.00  0.00    +0.000 OA
ATOM     32  C   UNL     1      50.598   7.588  16.294  0.00  0.00    +0.000 A 
ATOM     33  H   UNL     1      50.179   4.649  17.706  0.00  0.00    +0.000 HD
ENDBRANCH  21  23
ENDBRANCH  18  19
ENDBRANCH   4  18
TORSDOF 7
ENDMDL
MODEL 8
REMARK VINA RESULT:    -6.379      3.533      4.773
REMARK INTER + INTRA:         -10.058
REMARK INTER:                  -9.212
REMARK INTRA:                  -0.846
REMARK UNBOUND:                -1.068
REMARK  Name = 
REMARK  9 active torsions:
REMARK  status: ('A' for Active; 'I' for Inactive)
REMARK    1  A    between atoms: C_1  and  C_2
REMARK    2  A    between atoms: C_6  and  C_7
REMARK    3  A    between atoms: C_7  and  N_8
REMARK    4  A    between atoms: N_8  and  C_9
REMARK    5  A    between atoms: C_9  and  C_10
REMARK    6  A    between atoms: C_13  and  C_14
REMARK    7  A    between atoms: C_14  and  N_15
REMARK    8  A    between atoms: N_15  and  C_16
REMARK    9  A    between atoms: C_17  and  C_19
REMARK                            x       y       z     vdW  Elec       q    Type
REMARK                         _______ _______ _______ _____ _____    ______ ____
ROOT
ATOM      1  C   UNL     1      48.022   7.517  13.696  0.00  0.00    +0.000 A 
ATOM      2  C   UNL     1      48.107   8.673  14.472  0.00  0.00    +0.000 A 
ATOM      3  C   UNL     1      48.541   8.576  15.794  0.00  0.00    +0.000 A 
ATOM      4  C   UNL     1      48.866   7.329  16.327  0.00  0.00    +0.000 A 
ATOM      5  C   UNL     1      48.694   6.226  15.493  0.00  0.00    +0.000 A 
ATOM      6  N   UNL     1      48.301   6.291  14.200  0.00  0.00    +0.000 NA
ENDROOT
BRANCH   1   7
ATOM      7  C   UNL     1      47.649   7.607  12.226  0.00  0.00    +0.000 C 
BRANCH   7   8
ATOM      8  N   UNL     1      46.957   6.416  11.707  0.00  0.00    +0.000 NA
ATOM      9  H   UNL     1      47.249   6.269  10.739  0.00  0.00    +0.000 HD
BRANCH   8  10
ATOM     10  C   UNL     1      45.498   6.605  11.676  0.00  0.00    +0.000 C 
BRANCH  10  16
ATOM     11  C   UNL     1      44.551   2.456   9.288  0.00  0.00    +0.000 C 
ATOM     12  C   UNL     1      44.345   3.280  10.523  0.00  0.00    +0.000 A 
ATOM     13  C   UNL     1      43.550   2.818  11.565  0.00  0.00    +0.000 A 
ATOM     14  C   UNL     1      43.374   3.627  12.684  0.00  0.00    +0.000 A 
ATOM     15  C   UNL     1      43.998   4.869  12.730  0.00  0.00    +0.000 A 
ATOM     16  C   UNL     1      44.775   5.270  11.647  0.00  0.00    +0.000 A 
ATOM     17  N   UNL     1      44.963   4.487  10.554  0.00  0.00    +0.000 NA
ENDBRANCH  10  16
ENDBRANCH   8  10
ENDBRANCH   7   8
ENDBRANCH   1   7
BRANCH   4  18
ATOM     18  C   UNL     1      49.401   7.171  17.730  0.00  0.00    +0.000 C 
BRANCH  18  19
ATOM     19  N   UNL     1      50.639   6.384  17.873  0.00  0.00    +0.000 N 
ATOM     20  C   UNL     1      51.791   6.732  17.049  0.00  0.00    +0.000 C 
ATOM     21  C   UNL     1      50.542   5.183  18.608  0.00  0.00    +0.000 C 
ATOM     22  O   UNL     1      49.478   4.853  19.128  0.00  0.00    +0.000 OA
BRANCH  21  23
ATOM     23  C   UNL     1      51.741   4.343  18.798  0.00  0.00    +0.000 A 
ATOM     24  C   UNL     1      52.786   4.653  19.654  0.00  0.00    +0.000 A 
ATOM     25  S   UNL     1      54.026   3.482  19.688  0.00  0.00    +0.000 S 
ATOM     26  C   UNL     1      53.141   2.443  18.673  0.00  0.00    +0.000 A 
ATOM     27  N   UNL     1      53.605   1.199  18.380  0.00  0.00    +0.000 NA
ATOM     28  C   UNL     1      52.811   0.494  17.651  0.00  0.00    +0.000 A 
ATOM     29  N   UNL     1      51.609   0.937  17.163  0.00  0.00    +0.000 N 
ATOM     30  C   UNL     1      51.155   2.233  17.319  0.00  0.00    +0.000 A 
ATOM     31  O   UNL     1      50.204   2.653  16.672  0.00  0.00    +0.000 OA
ATOM     32  C   UNL     1      51.964   3.025  18.236  0.00  0.00    +0.000 A 
ATOM     33  H   UNL     1      51.059   0.362  16.535  0.00  0.00    +0.000 HD
ENDBRANCH  21  23
ENDBRANCH  18  19
ENDBRANCH   4  18
TORSDOF 7
ENDMDL
MODEL 9
REMARK VINA RESULT:    -6.157      3.775      8.336
REMARK INTER + INTRA:          -9.744
REMARK INTER:                  -8.151
REMARK INTRA:                  -1.593
REMARK UNBOUND:                -1.068
REMARK  Name = 
REMARK  9 active torsions:
REMARK  status: ('A' for Active; 'I' for Inactive)
REMARK    1  A    between atoms: C_1  and  C_2
REMARK    2  A    between atoms: C_6  and  C_7
REMARK    3  A    between atoms: C_7  and  N_8
REMARK    4  A    between atoms: N_8  and  C_9
REMARK    5  A    between atoms: C_9  and  C_10
REMARK    6  A    between atoms: C_13  and  C_14
REMARK    7  A    between atoms: C_14  and  N_15
REMARK    8  A    between atoms: N_15  and  C_16
REMARK    9  A    between atoms: C_17  and  C_19
REMARK                            x       y       z     vdW  Elec       q    Type
REMARK                         _______ _______ _______ _____ _____    ______ ____
ROOT
ATOM      1  C   UNL     1      52.434   6.973  15.902  0.00  0.00    +0.000 A 
ATOM      2  C   UNL     1      51.088   6.928  16.267  0.00  0.00    +0.000 A 
ATOM      3  C   UNL     1      50.148   7.606  15.490  0.00  0.00    +0.000 A 
ATOM      4  C   UNL     1      50.565   8.332  14.375  0.00  0.00    +0.000 A 
ATOM      5  C   UNL     1      51.935   8.366  14.124  0.00  0.00    +0.000 A 
ATOM      6  N   UNL     1      52.868   7.698  14.842  0.00  0.00    +0.000 NA
ENDROOT
BRANCH   1   7
ATOM      7  C   UNL     1      53.464   6.163  16.671  0.00  0.00    +0.000 C 
BRANCH   7   8
ATOM      8  N   UNL     1      53.030   5.760  18.018  0.00  0.00    +0.000 NA
ATOM      9  H   UNL     1      53.811   5.892  18.663  0.00  0.00    +0.000 HD
BRANCH   8  10
ATOM     10  C   UNL     1      52.685   4.330  18.072  0.00  0.00    +0.000 C 
BRANCH  10  16
ATOM     11  C   UNL     1      48.595   2.279  16.374  0.00  0.00    +0.000 C 
ATOM     12  C   UNL     1      49.240   3.137  17.422  0.00  0.00    +0.000 A 
ATOM     13  C   UNL     1      48.490   3.692  18.452  0.00  0.00    +0.000 A 
ATOM     14  C   UNL     1      49.130   4.495  19.389  0.00  0.00    +0.000 A 
ATOM     15  C   UNL     1      50.498   4.720  19.273  0.00  0.00    +0.000 A 
ATOM     16  C   UNL     1      51.185   4.136  18.212  0.00  0.00    +0.000 A 
ATOM     17  N   UNL     1      50.574   3.342  17.296  0.00  0.00    +0.000 NA
ENDBRANCH  10  16
ENDBRANCH   8  10
ENDBRANCH   7   8
ENDBRANCH   1   7
BRANCH   4  18
ATOM     18  C   UNL     1      49.587   9.032  13.463  0.00  0.00    +0.000 C 
BRANCH  18  19
ATOM     19  N   UNL     1      48.579   8.181  12.807  0.00  0.00    +0.000 N 
ATOM     20  C   UNL     1      48.880   7.618  11.496  0.00  0.00    +0.000 C 
ATOM     21  C   UNL     1      47.287   8.181  13.376  0.00  0.00    +0.000 C 
ATOM     22  O   UNL     1      47.051   8.834  14.390  0.00  0.00    +0.000 OA
BRANCH  21  23
ATOM     23  C   UNL     1      46.224   7.350  12.777  0.00  0.00    +0.000 A 
ATOM     24  C   UNL     1      45.258   7.825  11.903  0.00  0.00    +0.000 A 
ATOM     25  S   UNL     1      44.175   6.629  11.350  0.00  0.00    +0.000 S 
ATOM     26  C   UNL     1      45.047   5.402  12.140  0.00  0.00    +0.000 A 
ATOM     27  N   UNL     1      44.699   4.096  11.989  0.00  0.00    +0.000 NA
ATOM     28  C   UNL     1      45.477   3.266  12.591  0.00  0.00    +0.000 A 
ATOM     29  N   UNL     1      46.555   3.630  13.358  0.00  0.00    +0.000 N 
ATOM     30  C   UNL     1      46.871   4.943  13.652  0.00  0.00    +0.000 A 
ATOM     31  O   UNL     1      47.684   5.217  14.525  0.00  0.00    +0.000 OA
ATOM     32  C   UNL     1      46.090   5.912  12.895  0.00  0.00    +0.000 A 
ATOM     33  H   UNL     1      47.090   2.934  13.866  0.00  0.00    +0.000 HD
ENDBRANCH  21  23
ENDBRANCH  18  19
ENDBRANCH   4  18
TORSDOF 7
ENDMDL
