MODEL 1
REMARK VINA RESULT:    -8.355      0.000      0.000
REMARK INTER + INTRA:         -12.137
REMARK INTER:                 -11.285
REMARK INTRA:                  -0.851
REMARK UNBOUND:                -0.851
REMARK  Name = 
REMARK  7 active torsions:
REMARK  status: ('A' for Active; 'I' for Inactive)
REMARK    1  A    between atoms: C_1  and  C_2
REMARK    2  A    between atoms: C_5  and  C_6
REMARK    3  A    between atoms: C_6  and  N_7
REMARK    4  A    between atoms: N_7  and  C_8
REMARK    5  A    between atoms: C_11  and  C_12
REMARK    6  A    between atoms: C_12  and  N_13
REMARK    7  A    between atoms: C_14  and  C_16
REMARK                            x       y       z     vdW  Elec       q    Type
REMARK                         _______ _______ _______ _____ _____    ______ ____
ROOT
ATOM      1  C   UNL     1      44.661   6.011  11.097  0.00  0.00    +0.000 A 
ATOM      2  C   UNL     1      45.846   5.431  11.574  0.00  0.00    +0.000 A 
ATOM      3  C   UNL     1      46.724   6.145  12.404  0.00  0.00    +0.000 A 
ATOM      4  C   UNL     1      46.448   7.471  12.758  0.00  0.00    +0.000 A 
ATOM      5  C   UNL     1      45.323   8.083  12.203  0.00  0.00    +0.000 A 
ATOM      6  C   UNL     1      44.452   7.365  11.377  0.00  0.00    +0.000 A 
ENDROOT
BRANCH   1   7
ATOM      7  N   UNL     1      43.814   5.261  10.257  0.00  0.00    +0.000 N 
ATOM      8  H   UNL     1      43.836   5.626   9.306  0.00  0.00    +0.000 HD
BRANCH   7   9
ATOM      9  C   UNL     1      43.999   3.808  10.269  0.00  0.00    +0.000 C 
BRANCH   9  14
ATOM     10  C   UNL     1      47.521   2.368   5.942  0.00  0.00    +0.000 C 
ATOM     11  C   UNL     1      46.604   2.684   7.084  0.00  0.00    +0.000 A 
ATOM     12  C   UNL     1      46.232   1.702   7.997  0.00  0.00    +0.000 A 
ATOM     13  C   UNL     1      45.366   2.041   9.037  0.00  0.00    +0.000 A 
ATOM     14  C   UNL     1      44.878   3.345   9.137  0.00  0.00    +0.000 A 
ATOM     15  C   UNL     1      45.329   4.261   8.192  0.00  0.00    +0.000 A 
ATOM     16  N   UNL     1      46.168   3.961   7.175  0.00  0.00    +0.000 NA
ENDBRANCH   9  14
ENDBRANCH   7   9
ENDBRANCH   1   7
BRANCH   4  17
ATOM     17  C   UNL     1      47.349   8.248  13.680  0.00  0.00    +0.000 C 
BRANCH  17  18
ATOM     18  N   UNL     1      47.709   7.482  14.843  0.00  0.00    +0.000 N 
ATOM     19  C   UNL     1      48.945   6.895  14.942  0.00  0.00    +0.000 C 
ATOM     20  O   UNL     1      49.798   7.025  14.068  0.00  0.00    +0.000 OA
ATOM     21  H   UNL     1      46.954   7.166  15.444  0.00  0.00    +0.000 HD
BRANCH  19  22
ATOM     22  C   UNL     1      49.225   6.159  16.179  0.00  0.00    +0.000 A 
ATOM     23  C   UNL     1      50.286   6.550  16.987  0.00  0.00    +0.000 A 
ATOM     24  S   UNL     1      50.425   5.640  18.421  0.00  0.00    +0.000 S 
ATOM     25  C   UNL     1      49.108   4.654  17.988  0.00  0.00    +0.000 A 
ATOM     26  N   UNL     1      48.701   3.636  18.795  0.00  0.00    +0.000 NA
ATOM     27  C   UNL     1      47.715   2.946  18.324  0.00  0.00    +0.000 A 
ATOM     28  N   UNL     1      47.099   3.181  17.123  0.00  0.00    +0.000 N 
ATOM     29  C   UNL     1      47.459   4.213  16.288  0.00  0.00    +0.000 A 
ATOM     30  O   UNL     1      46.868   4.416  15.233  0.00  0.00    +0.000 OA
ATOM     31  C   UNL     1      48.565   5.019  16.770  0.00  0.00    +0.000 A 
ATOM     32  H   UNL     1      46.330   2.605  16.814  0.00  0.00    +0.000 HD
ENDBRANCH  19  22
ENDBRANCH  17  18
ENDBRANCH   4  17
TORSDOF 6
ENDMDL
MODEL 2
REMARK VINA RESULT:    -8.237      1.953      2.364
REMARK INTER + INTRA:         -11.977
REMARK INTER:                 -11.076
REMARK INTRA:                  -0.901
REMARK UNBOUND:                -0.851
REMARK  Name = 
REMARK  7 active torsions:
REMARK  status: ('A' for Active; 'I' for Inactive)
REMARK    1  A    between atoms: C_1  and  C_2
REMARK    2  A    between atoms: C_5  and  C_6
REMARK    3  A    between atoms: C_6  and  N_7
REMARK    4  A    between atoms: N_7  and  C_8
REMARK    5  A    between atoms: C_11  and  C_12
REMARK    6  A    between atoms: C_12  and  N_13
REMARK    7  A    between atoms: C_14  and  C_16
REMARK                            x       y       z     vdW  Elec       q    Type
REMARK                         _______ _______ _______ _____ _____    ______ ____
ROOT
ATOM      1  C   UNL     1      45.160   4.724  11.963  0.00  0.00    +0.000 A 
ATOM      2  C   UNL     1      45.829   4.114  13.033  0.00  0.00    +0.000 A 
ATOM      3  C   UNL     1      46.904   4.746  13.677  0.00  0.00    +0.000 A 
ATOM      4  C   UNL     1      47.351   6.001  13.247  0.00  0.00    +0.000 A 
ATOM      5  C   UNL     1      46.753   6.565  12.119  0.00  0.00    +0.000 A 
ATOM      6  C   UNL     1      45.682   5.928  11.483  0.00  0.00    +0.000 A 
ENDROOT
BRANCH   1   7
ATOM      7  N   UNL     1      44.094   4.046  11.338  0.00  0.00    +0.000 N 
ATOM      8  H   UNL     1      43.224   4.197  11.848  0.00  0.00    +0.000 HD
BRANCH   7   9
ATOM      9  C   UNL     1      43.915   4.288   9.905  0.00  0.00    +0.000 C 
BRANCH   9  14
ATOM     10  C   UNL     1      47.573   1.135   6.762  0.00  0.00    +0.000 C 
ATOM     11  C   UNL     1      46.642   2.005   7.550  0.00  0.00    +0.000 A 
ATOM     12  C   UNL     1      46.544   3.368   7.292  0.00  0.00    +0.000 A 
ATOM     13  C   UNL     1      45.672   4.139   8.061  0.00  0.00    +0.000 A 
ATOM     14  C   UNL     1      44.929   3.540   9.080  0.00  0.00    +0.000 A 
ATOM     15  C   UNL     1      45.077   2.167   9.242  0.00  0.00    +0.000 A 
ATOM     16  N   UNL     1      45.913   1.395   8.512  0.00  0.00    +0.000 NA
ENDBRANCH   9  14
ENDBRANCH   7   9
ENDBRANCH   1   7
BRANCH   4  17
ATOM     17  C   UNL     1      48.472   6.723  13.945  0.00  0.00    +0.000 C 
BRANCH  17  18
ATOM     18  N   UNL     1      48.185   6.934  15.339  0.00  0.00    +0.000 N 
ATOM     19  C   UNL     1      49.093   6.580  16.304  0.00  0.00    +0.000 C 
ATOM     20  O   UNL     1      50.191   6.107  16.021  0.00  0.00    +0.000 OA
ATOM     21  H   UNL     1      47.214   7.088  15.596  0.00  0.00    +0.000 HD
BRANCH  19  22
ATOM     22  C   UNL     1      48.718   6.861  17.694  0.00  0.00    +0.000 A 
ATOM     23  C   UNL     1      48.400   8.159  18.071  0.00  0.00    +0.000 A 
ATOM     24  S   UNL     1      47.912   8.299  19.698  0.00  0.00    +0.000 S 
ATOM     25  C   UNL     1      48.164   6.639  19.973  0.00  0.00    +0.000 A 
ATOM     26  N   UNL     1      47.944   6.091  21.199  0.00  0.00    +0.000 NA
ATOM     27  C   UNL     1      48.212   4.830  21.273  0.00  0.00    +0.000 A 
ATOM     28  N   UNL     1      48.678   4.066  20.236  0.00  0.00    +0.000 N 
ATOM     29  C   UNL     1      48.891   4.570  18.974  0.00  0.00    +0.000 A 
ATOM     30  O   UNL     1      49.280   3.855  18.058  0.00  0.00    +0.000 OA
ATOM     31  C   UNL     1      48.606   5.986  18.836  0.00  0.00    +0.000 A 
ATOM     32  H   UNL     1      48.866   3.082  20.361  0.00  0.00    +0.000 HD
ENDBRANCH  19  22
ENDBRANCH  17  18
ENDBRANCH   4  17
TORSDOF 6
ENDMDL
MODEL 3
REMARK VINA RESULT:    -7.953      2.556      3.206
REMARK INTER + INTRA:         -11.594
REMARK INTER:                 -10.472
REMARK INTRA:                  -1.122
REMARK UNBOUND:                -0.851
REMARK  Name = 
REMARK  7 active torsions:
REMARK  status: ('A' for Active; 'I' for Inactive)
REMARK    1  A    between atoms: C_1  and  C_2
REMARK    2  A    between atoms: C_5  and  C_6
REMARK    3  A    between atoms: C_6  and  N_7
REMARK    4  A    between atoms: N_7  and  C_8
REMARK    5  A    between atoms: C_11  and  C_12
REMARK    6  A    between atoms: C_12  and  N_13
REMARK    7  A    between atoms: C_14  and  C_16
REMARK                            x       y       z     vdW  Elec       q    Type
REMARK                         _______ _______ _______ _____ _____    ______ ____
ROOT
ATOM      1  C   UNL     1      45.175   4.796  11.986  0.00  0.00    +0.000 A 
ATOM      2  C   UNL     1      45.858   4.117  13.004  0.00  0.00    +0.000 A 
ATOM      3  C   UNL     1      46.904   4.727  13.714  0.00  0.00    +0.000 A 
ATOM      4  C   UNL     1      47.308   6.030  13.402  0.00  0.00    +0.000 A 
ATOM      5  C   UNL     1      46.699   6.672  12.323  0.00  0.00    +0.000 A 
ATOM      6  C   UNL     1      45.657   6.056  11.620  0.00  0.00    +0.000 A 
ENDROOT
BRANCH   1   7
ATOM      7  N   UNL     1      44.139   4.140  11.291  0.00  0.00    +0.000 N 
ATOM      8  H   UNL     1      43.245   4.282  11.760  0.00  0.00    +0.000 HD
BRANCH   7   9
ATOM      9  C   UNL     1      44.033   4.417   9.857  0.00  0.00    +0.000 C 
BRANCH   9  14
ATOM     10  C   UNL     1      47.596   1.080   6.796  0.00  0.00    +0.000 C 
ATOM     11  C   UNL     1      46.694   1.997   7.565  0.00  0.00    +0.000 A 
ATOM     12  C   UNL     1      46.690   3.367   7.323  0.00  0.00    +0.000 A 
ATOM     13  C   UNL     1      45.841   4.181   8.073  0.00  0.00    +0.000 A 
ATOM     14  C   UNL     1      45.027   3.618   9.057  0.00  0.00    +0.000 A 
ATOM     15  C   UNL     1      45.083   2.236   9.205  0.00  0.00    +0.000 A 
ATOM     16  N   UNL     1      45.895   1.422   8.492  0.00  0.00    +0.000 NA
ENDBRANCH   9  14
ENDBRANCH   7   9
ENDBRANCH   1   7
BRANCH   4  17
ATOM     17  C   UNL     1      48.397   6.726  14.173  0.00  0.00    +0.000 C 
BRANCH  17  18
ATOM     18  N   UNL     1      48.058   6.870  15.564  0.00  0.00    +0.000 N 
ATOM     19  C   UNL     1      48.868   6.350  16.541  0.00  0.00    +0.000 C 
ATOM     20  O   UNL     1      49.921   5.777  16.276  0.00  0.00    +0.000 OA
ATOM     21  H   UNL     1      47.097   7.113  15.786  0.00  0.00    +0.000 HD
BRANCH  19  22
ATOM     22  C   UNL     1      48.448   6.573  17.929  0.00  0.00    +0.000 A 
ATOM     23  C   UNL     1      48.417   5.506  18.818  0.00  0.00    +0.000 A 
ATOM     24  S   UNL     1      47.984   5.951  20.405  0.00  0.00    +0.000 S 
ATOM     25  C   UNL     1      47.766   7.575  19.949  0.00  0.00    +0.000 A 
ATOM     26  N   UNL     1      47.368   8.509  20.855  0.00  0.00    +0.000 NA
ATOM     27  C   UNL     1      47.206   9.692  20.362  0.00  0.00    +0.000 A 
ATOM     28  N   UNL     1      47.406  10.027  19.049  0.00  0.00    +0.000 N 
ATOM     29  C   UNL     1      47.833   9.124  18.104  0.00  0.00    +0.000 A 
ATOM     30  O   UNL     1      48.032   9.461  16.942  0.00  0.00    +0.000 OA
ATOM     31  C   UNL     1      48.028   7.776  18.606  0.00  0.00    +0.000 A 
ATOM     32  H   UNL     1      47.264  10.974  18.729  0.00  0.00    +0.000 HD
ENDBRANCH  19  22
ENDBRANCH  17  18
ENDBRANCH   4  17
TORSDOF 6
ENDMDL
MODEL 4
REMARK VINA RESULT:    -7.674      3.511      5.659
REMARK INTER + INTRA:         -11.216
REMARK INTER:                 -10.409
REMARK INTRA:                  -0.808
REMARK UNBOUND:                -0.851
REMARK  Name = 
REMARK  7 active torsions:
REMARK  status: ('A' for Active; 'I' for Inactive)
REMARK    1  A    between atoms: C_1  and  C_2
REMARK    2  A    between atoms: C_5  and  C_6
REMARK    3  A    between atoms: C_6  and  N_7
REMARK    4  A    between atoms: N_7  and  C_8
REMARK    5  A    between atoms: C_11  and  C_12
REMARK    6  A    between atoms: C_12  and  N_13
REMARK    7  A    between atoms: C_14  and  C_16
REMARK                            x       y       z     vdW  Elec       q    Type
REMARK                         _______ _______ _______ _____ _____    ______ ____
ROOT
ATOM      1  C   UNL     1      45.378   3.767  11.982  0.00  0.00    +0.000 A 
ATOM      2  C   UNL     1      45.303   5.105  11.569  0.00  0.00    +0.000 A 
ATOM      3  C   UNL     1      46.103   6.096  12.159  0.00  0.00    +0.000 A 
ATOM      4  C   UNL     1      46.985   5.773  13.197  0.00  0.00    +0.000 A 
ATOM      5  C   UNL     1      46.989   4.462  13.678  0.00  0.00    +0.000 A 
ATOM      6  C   UNL     1      46.188   3.480  13.085  0.00  0.00    +0.000 A 
ENDROOT
BRANCH   1   7
ATOM      7  N   UNL     1      44.547   2.807  11.370  0.00  0.00    +0.000 N 
ATOM      8  H   UNL     1      43.821   2.497  12.014  0.00  0.00    +0.000 HD
BRANCH   7   9
ATOM      9  C   UNL     1      43.981   3.166  10.068  0.00  0.00    +0.000 C 
BRANCH   9  14
ATOM     10  C   UNL     1      47.769   2.432   5.788  0.00  0.00    +0.000 C 
ATOM     11  C   UNL     1      46.790   2.563   6.915  0.00  0.00    +0.000 A 
ATOM     12  C   UNL     1      46.528   1.494   7.765  0.00  0.00    +0.000 A 
ATOM     13  C   UNL     1      45.599   1.661   8.792  0.00  0.00    +0.000 A 
ATOM     14  C   UNL     1      44.941   2.883   8.942  0.00  0.00    +0.000 A 
ATOM     15  C   UNL     1      45.291   3.899   8.060  0.00  0.00    +0.000 A 
ATOM     16  N   UNL     1      46.187   3.766   7.056  0.00  0.00    +0.000 NA
ENDBRANCH   9  14
ENDBRANCH   7   9
ENDBRANCH   1   7
BRANCH   4  17
ATOM     17  C   UNL     1      47.886   6.805  13.819  0.00  0.00    +0.000 C 
BRANCH  17  18
ATOM     18  N   UNL     1      47.615   8.124  13.312  0.00  0.00    +0.000 N 
ATOM     19  C   UNL     1      48.309   8.619  12.237  0.00  0.00    +0.000 C 
ATOM     20  O   UNL     1      49.155   7.952  11.647  0.00  0.00    +0.000 OA
ATOM     21  H   UNL     1      47.111   8.762  13.921  0.00  0.00    +0.000 HD
BRANCH  19  22
ATOM     22  C   UNL     1      47.939   9.963  11.780  0.00  0.00    +0.000 A 
ATOM     23  C   UNL     1      48.926  10.831  11.328  0.00  0.00    +0.000 A 
ATOM     24  S   UNL     1      48.319  12.319  10.762  0.00  0.00    +0.000 S 
ATOM     25  C   UNL     1      46.723  11.881  11.153  0.00  0.00    +0.000 A 
ATOM     26  N   UNL     1      45.688  12.736  10.933  0.00  0.00    +0.000 NA
ATOM     27  C   UNL     1      44.538  12.288  11.312  0.00  0.00    +0.000 A 
ATOM     28  N   UNL     1      44.327  11.063  11.889  0.00  0.00    +0.000 N 
ATOM     29  C   UNL     1      45.337  10.156  12.108  0.00  0.00    +0.000 A 
ATOM     30  O   UNL     1      45.113   9.056  12.600  0.00  0.00    +0.000 OA
ATOM     31  C   UNL     1      46.653  10.612  11.701  0.00  0.00    +0.000 A 
ATOM     32  H   UNL     1      43.399  10.772  12.161  0.00  0.00    +0.000 HD
ENDBRANCH  19  22
ENDBRANCH  17  18
ENDBRANCH   4  17
TORSDOF 6
ENDMDL
MODEL 5
REMARK VINA RESULT:    -7.500      1.913      2.334
REMARK INTER + INTRA:         -10.982
REMARK INTER:                  -9.907
REMARK INTRA:                  -1.076
REMARK UNBOUND:                -0.851
REMARK  Name = 
REMARK  7 active torsions:
REMARK  status: ('A' for Active; 'I' for Inactive)
REMARK    1  A    between atoms: C_1  and  C_2
REMARK    2  A    between atoms: C_5  and  C_6
REMARK    3  A    between atoms: C_6  and  N_7
REMARK    4  A    between atoms: N_7  and  C_8
REMARK    5  A    between atoms: C_11  and  C_12
REMARK    6  A    between atoms: C_12  and  N_13
REMARK    7  A    between atoms: C_14  and  C_16
REMARK                            x       y       z     vdW  Elec       q    Type
REMARK                         _______ _______ _______ _____ _____    ______ ____
ROOT
ATOM      1  C   UNL     1      45.059   4.553  11.921  0.00  0.00    +0.000 A 
ATOM      2  C   UNL     1      46.275   4.746  12.592  0.00  0.00    +0.000 A 
ATOM      3  C   UNL     1      46.712   6.029  12.955  0.00  0.00    +0.000 A 
ATOM      4  C   UNL     1      45.948   7.157  12.633  0.00  0.00    +0.000 A 
ATOM      5  C   UNL     1      44.789   6.977  11.877  0.00  0.00    +0.000 A 
ATOM      6  C   UNL     1      44.360   5.695  11.519  0.00  0.00    +0.000 A 
ENDROOT
BRANCH   1   7
ATOM      7  N   UNL     1      44.666   3.247  11.565  0.00  0.00    +0.000 N 
ATOM      8  H   UNL     1      44.169   2.799  12.334  0.00  0.00    +0.000 HD
BRANCH   7   9
ATOM      9  C   UNL     1      43.930   3.105  10.306  0.00  0.00    +0.000 C 
BRANCH   9  14
ATOM     10  C   UNL     1      47.579   2.706   5.864  0.00  0.00    +0.000 C 
ATOM     11  C   UNL     1      46.640   2.750   7.031  0.00  0.00    +0.000 A 
ATOM     12  C   UNL     1      46.446   1.634   7.838  0.00  0.00    +0.000 A 
ATOM     13  C   UNL     1      45.551   1.720   8.905  0.00  0.00    +0.000 A 
ATOM     14  C   UNL     1      44.857   2.909   9.135  0.00  0.00    +0.000 A 
ATOM     15  C   UNL     1      45.139   3.976   8.290  0.00  0.00    +0.000 A 
ATOM     16  N   UNL     1      46.001   3.922   7.250  0.00  0.00    +0.000 NA
ENDBRANCH   9  14
ENDBRANCH   7   9
ENDBRANCH   1   7
BRANCH   4  17
ATOM     17  C   UNL     1      46.369   8.542  13.046  0.00  0.00    +0.000 C 
BRANCH  17  18
ATOM     18  N   UNL     1      46.911   8.558  14.379  0.00  0.00    +0.000 N 
ATOM     19  C   UNL     1      48.184   9.011  14.614  0.00  0.00    +0.000 C 
ATOM     20  O   UNL     1      48.895   9.448  13.712  0.00  0.00    +0.000 OA
ATOM     21  H   UNL     1      46.445   7.987  15.078  0.00  0.00    +0.000 HD
BRANCH  19  22
ATOM     22  C   UNL     1      48.634   9.014  16.010  0.00  0.00    +0.000 A 
ATOM     23  C   UNL     1      48.811  10.222  16.673  0.00  0.00    +0.000 A 
ATOM     24  S   UNL     1      49.259  10.045  18.308  0.00  0.00    +0.000 S 
ATOM     25  C   UNL     1      49.290   8.350  18.173  0.00  0.00    +0.000 A 
ATOM     26  N   UNL     1      49.626   7.569  19.236  0.00  0.00    +0.000 NA
ATOM     27  C   UNL     1      49.645   6.303  18.980  0.00  0.00    +0.000 A 
ATOM     28  N   UNL     1      49.358   5.746  17.762  0.00  0.00    +0.000 N 
ATOM     29  C   UNL     1      48.990   6.492  16.667  0.00  0.00    +0.000 A 
ATOM     30  O   UNL     1      48.710   5.962  15.598  0.00  0.00    +0.000 OA
ATOM     31  C   UNL     1      48.954   7.924  16.900  0.00  0.00    +0.000 A 
ATOM     32  H   UNL     1      49.389   4.746  17.630  0.00  0.00    +0.000 HD
ENDBRANCH  19  22
ENDBRANCH  17  18
ENDBRANCH   4  17
TORSDOF 6
ENDMDL
MODEL 6
REMARK VINA RESULT:    -7.491      1.770      2.643
REMARK INTER + INTRA:         -10.970
REMARK INTER:                 -10.240
REMARK INTRA:                  -0.730
REMARK UNBOUND:                -0.851
REMARK  Name = 
REMARK  7 active torsions:
REMARK  status: ('A' for Active; 'I' for Inactive)
REMARK    1  A    between atoms: C_1  and  C_2
REMARK    2  A    between atoms: C_5  and  C_6
REMARK    3  A    between atoms: C_6  and  N_7
REMARK    4  A    between atoms: N_7  and  C_8
REMARK    5  A    between atoms: C_11  and  C_12
REMARK    6  A    between atoms: C_12  and  N_13
REMARK    7  A    between atoms: C_14  and  C_16
REMARK                            x       y       z     vdW  Elec       q    Type
REMARK                         _______ _______ _______ _____ _____    ______ ____
ROOT
ATOM      1  C   UNL     1      45.060   6.152  11.264  0.00  0.00    +0.000 A 
ATOM      2  C   UNL     1      45.082   7.517  11.585  0.00  0.00    +0.000 A 
ATOM      3  C   UNL     1      45.995   8.032  12.517  0.00  0.00    +0.000 A 
ATOM      4  C   UNL     1      46.898   7.185  13.170  0.00  0.00    +0.000 A 
ATOM      5  C   UNL     1      46.812   5.813  12.928  0.00  0.00    +0.000 A 
ATOM      6  C   UNL     1      45.898   5.307  11.997  0.00  0.00    +0.000 A 
ENDROOT
BRANCH   1   7
ATOM      7  N   UNL     1      44.117   5.676  10.330  0.00  0.00    +0.000 N 
ATOM      8  H   UNL     1      44.304   6.058   9.404  0.00  0.00    +0.000 HD
BRANCH   7   9
ATOM      9  C   UNL     1      43.925   4.225  10.275  0.00  0.00    +0.000 C 
BRANCH   9  14
ATOM     10  C   UNL     1      47.442   1.406   6.684  0.00  0.00    +0.000 C 
ATOM     11  C   UNL     1      46.543   2.192   7.590  0.00  0.00    +0.000 A 
ATOM     12  C   UNL     1      46.374   3.562   7.420  0.00  0.00    +0.000 A 
ATOM     13  C   UNL     1      45.537   4.252   8.297  0.00  0.00    +0.000 A 
ATOM     14  C   UNL     1      44.899   3.567   9.333  0.00  0.00    +0.000 A 
ATOM     15  C   UNL     1      45.110   2.195   9.403  0.00  0.00    +0.000 A 
ATOM     16  N   UNL     1      45.915   1.500   8.567  0.00  0.00    +0.000 NA
ENDBRANCH   9  14
ENDBRANCH   7   9
ENDBRANCH   1   7
BRANCH   4  17
ATOM     17  C   UNL     1      47.918   7.714  14.142  0.00  0.00    +0.000 C 
BRANCH  17  18
ATOM     18  N   UNL     1      47.967   6.925  15.345  0.00  0.00    +0.000 N 
ATOM     19  C   UNL     1      49.163   6.462  15.831  0.00  0.00    +0.000 C 
ATOM     20  O   UNL     1      50.232   6.726  15.287  0.00  0.00    +0.000 OA
ATOM     21  H   UNL     1      47.099   6.502  15.660  0.00  0.00    +0.000 HD
BRANCH  19  22
ATOM     22  C   UNL     1      49.111   5.691  17.078  0.00  0.00    +0.000 A 
ATOM     23  C   UNL     1      48.578   4.408  17.071  0.00  0.00    +0.000 A 
ATOM     24  S   UNL     1      48.663   3.624  18.582  0.00  0.00    +0.000 S 
ATOM     25  C   UNL     1      49.362   4.991  19.313  0.00  0.00    +0.000 A 
ATOM     26  N   UNL     1      49.677   4.993  20.637  0.00  0.00    +0.000 NA
ATOM     27  C   UNL     1      50.166   6.109  21.066  0.00  0.00    +0.000 A 
ATOM     28  N   UNL     1      50.369   7.222  20.294  0.00  0.00    +0.000 N 
ATOM     29  C   UNL     1      50.089   7.259  18.948  0.00  0.00    +0.000 A 
ATOM     30  O   UNL     1      50.310   8.262  18.277  0.00  0.00    +0.000 OA
ATOM     31  C   UNL     1      49.536   6.029  18.415  0.00  0.00    +0.000 A 
ATOM     32  H   UNL     1      50.758   8.064  20.693  0.00  0.00    +0.000 HD
ENDBRANCH  19  22
ENDBRANCH  17  18
ENDBRANCH   4  17
TORSDOF 6
ENDMDL
MODEL 7
REMARK VINA RESULT:    -7.036      2.870      8.064
REMARK INTER + INTRA:         -10.356
REMARK INTER:                  -8.998
REMARK INTRA:                  -1.358
REMARK UNBOUND:                -0.851
REMARK  Name = 
REMARK  7 active torsions:
REMARK  status: ('A' for Active; 'I' for Inactive)
REMARK    1  A    between atoms: C_1  and  C_2
REMARK    2  A    between atoms: C_5  and  C_6
REMARK    3  A    between atoms: C_6  and  N_7
REMARK    4  A    between atoms: N_7  and  C_8
REMARK    5  A    between atoms: C_11  and  C_12
REMARK    6  A    between atoms: C_12  and  N_13
REMARK    7  A    between atoms: C_14  and  C_16
REMARK                            x       y       z     vdW  Elec       q    Type
REMARK                         _______ _______ _______ _____ _____    ______ ____
ROOT
ATOM      1  C   UNL     1      49.695   8.300  15.786  0.00  0.00    +0.000 A 
ATOM      2  C   UNL     1      48.414   8.832  15.581  0.00  0.00    +0.000 A 
ATOM      3  C   UNL     1      47.783   8.755  14.330  0.00  0.00    +0.000 A 
ATOM      4  C   UNL     1      48.433   8.161  13.242  0.00  0.00    +0.000 A 
ATOM      5  C   UNL     1      49.746   7.720  13.416  0.00  0.00    +0.000 A 
ATOM      6  C   UNL     1      50.368   7.801  14.666  0.00  0.00    +0.000 A 
ENDROOT
BRANCH   1   7
ATOM      7  N   UNL     1      50.295   8.410  17.056  0.00  0.00    +0.000 N 
ATOM      8  H   UNL     1      50.393   9.389  17.324  0.00  0.00    +0.000 HD
BRANCH   7   9
ATOM      9  C   UNL     1      49.693   7.625  18.136  0.00  0.00    +0.000 C 
BRANCH   9  14
ATOM     10  C   UNL     1      49.147   2.057  16.755  0.00  0.00    +0.000 C 
ATOM     11  C   UNL     1      49.227   3.510  17.114  0.00  0.00    +0.000 A 
ATOM     12  C   UNL     1      48.077   4.256  17.346  0.00  0.00    +0.000 A 
ATOM     13  C   UNL     1      48.203   5.609  17.664  0.00  0.00    +0.000 A 
ATOM     14  C   UNL     1      49.469   6.193  17.729  0.00  0.00    +0.000 A 
ATOM     15  C   UNL     1      50.559   5.358  17.507  0.00  0.00    +0.000 A 
ATOM     16  N   UNL     1      50.467   4.044  17.198  0.00  0.00    +0.000 NA
ENDBRANCH   9  14
ENDBRANCH   7   9
ENDBRANCH   1   7
BRANCH   4  17
ATOM     17  C   UNL     1      47.766   8.025  11.900  0.00  0.00    +0.000 C 
BRANCH  17  18
ATOM     18  N   UNL     1      47.058   6.777  11.780  0.00  0.00    +0.000 N 
ATOM     19  C   UNL     1      45.690   6.736  11.864  0.00  0.00    +0.000 C 
ATOM     20  O   UNL     1      45.017   7.753  12.007  0.00  0.00    +0.000 OA
ATOM     21  H   UNL     1      47.595   5.924  11.907  0.00  0.00    +0.000 HD
BRANCH  19  22
ATOM     22  C   UNL     1      45.062   5.421  11.701  0.00  0.00    +0.000 A 
ATOM     23  C   UNL     1      44.406   4.834  12.777  0.00  0.00    +0.000 A 
ATOM     24  S   UNL     1      43.666   3.346  12.398  0.00  0.00    +0.000 S 
ATOM     25  C   UNL     1      44.245   3.403  10.799  0.00  0.00    +0.000 A 
ATOM     26  N   UNL     1      43.978   2.398   9.922  0.00  0.00    +0.000 NA
ATOM     27  C   UNL     1      44.511   2.555   8.756  0.00  0.00    +0.000 A 
ATOM     28  N   UNL     1      45.284   3.623   8.386  0.00  0.00    +0.000 N 
ATOM     29  C   UNL     1      45.560   4.674   9.230  0.00  0.00    +0.000 A 
ATOM     30  O   UNL     1      46.231   5.631   8.860  0.00  0.00    +0.000 OA
ATOM     31  C   UNL     1      44.985   4.546  10.556  0.00  0.00    +0.000 A 
ATOM     32  H   UNL     1      45.670   3.686   7.455  0.00  0.00    +0.000 HD
ENDBRANCH  19  22
ENDBRANCH  17  18
ENDBRANCH   4  17
TORSDOF 6
ENDMDL
MODEL 8
REMARK VINA RESULT:    -6.942      4.963      7.360
REMARK INTER + INTRA:         -10.229
REMARK INTER:                  -9.204
REMARK INTRA:                  -1.025
REMARK UNBOUND:                -0.851
REMARK  Name = 
REMARK  7 active torsions:
REMARK  status: ('A' for Active; 'I' for Inactive)
REMARK    1  A    between atoms: C_1  and  C_2
REMARK    2  A    between atoms: C_5  and  C_6
REMARK    3  A    between atoms: C_6  and  N_7
REMARK    4  A    between atoms: N_7  and  C_8
REMARK    5  A    between atoms: C_11  and  C_12
REMARK    6  A    between atoms: C_12  and  N_13
REMARK    7  A    between atoms: C_14  and  C_16
REMARK                            x       y       z     vdW  Elec       q    Type
REMARK                         _______ _______ _______ _____ _____    ______ ____
ROOT
ATOM      1  C   UNL     1      51.117   8.698  11.088  0.00  0.00    +0.000 A 
ATOM      2  C   UNL     1      50.559   7.476  11.490  0.00  0.00    +0.000 A 
ATOM      3  C   UNL     1      49.204   7.373  11.841  0.00  0.00    +0.000 A 
ATOM      4  C   UNL     1      48.377   8.502  11.819  0.00  0.00    +0.000 A 
ATOM      5  C   UNL     1      48.952   9.738  11.517  0.00  0.00    +0.000 A 
ATOM      6  C   UNL     1      50.304   9.832  11.169  0.00  0.00    +0.000 A 
ENDROOT
BRANCH   1   7
ATOM      7  N   UNL     1      52.486   8.757  10.756  0.00  0.00    +0.000 N 
ATOM      8  H   UNL     1      52.999   8.003  11.211  0.00  0.00    +0.000 HD
BRANCH   7   9
ATOM      9  C   UNL     1      52.811   8.833   9.331  0.00  0.00    +0.000 C 
BRANCH   9  14
ATOM     10  C   UNL     1      53.614   3.764   6.709  0.00  0.00    +0.000 C 
ATOM     11  C   UNL     1      53.441   5.063   7.437  0.00  0.00    +0.000 A 
ATOM     12  C   UNL     1      54.121   5.316   8.624  0.00  0.00    +0.000 A 
ATOM     13  C   UNL     1      53.917   6.535   9.271  0.00  0.00    +0.000 A 
ATOM     14  C   UNL     1      53.030   7.469   8.732  0.00  0.00    +0.000 A 
ATOM     15  C   UNL     1      52.419   7.134   7.529  0.00  0.00    +0.000 A 
ATOM     16  N   UNL     1      52.598   5.962   6.879  0.00  0.00    +0.000 NA
ENDBRANCH   9  14
ENDBRANCH   7   9
ENDBRANCH   1   7
BRANCH   4  17
ATOM     17  C   UNL     1      46.911   8.415  12.148  0.00  0.00    +0.000 C 
BRANCH  17  18
ATOM     18  N   UNL     1      46.410   7.074  12.002  0.00  0.00    +0.000 N 
ATOM     19  C   UNL     1      45.102   6.847  11.658  0.00  0.00    +0.000 C 
ATOM     20  O   UNL     1      44.321   7.767  11.430  0.00  0.00    +0.000 OA
ATOM     21  H   UNL     1      46.958   6.325  12.416  0.00  0.00    +0.000 HD
BRANCH  19  22
ATOM     22  C   UNL     1      44.697   5.445  11.507  0.00  0.00    +0.000 A 
ATOM     23  C   UNL     1      43.994   4.819  12.529  0.00  0.00    +0.000 A 
ATOM     24  S   UNL     1      43.534   3.219  12.161  0.00  0.00    +0.000 S 
ATOM     25  C   UNL     1      44.306   3.287  10.647  0.00  0.00    +0.000 A 
ATOM     26  N   UNL     1      44.306   2.213   9.812  0.00  0.00    +0.000 NA
ATOM     27  C   UNL     1      44.961   2.392   8.714  0.00  0.00    +0.000 A 
ATOM     28  N   UNL     1      45.616   3.547   8.373  0.00  0.00    +0.000 N 
ATOM     29  C   UNL     1      45.622   4.666   9.172  0.00  0.00    +0.000 A 
ATOM     30  O   UNL     1      46.192   5.694   8.826  0.00  0.00    +0.000 OA
ATOM     31  C   UNL     1      44.900   4.516  10.422  0.00  0.00    +0.000 A 
ATOM     32  H   UNL     1      46.109   3.622   7.495  0.00  0.00    +0.000 HD
ENDBRANCH  19  22
ENDBRANCH  17  18
ENDBRANCH   4  17
TORSDOF 6
ENDMDL
MODEL 9
REMARK VINA RESULT:    -6.906      3.552      5.735
REMARK INTER + INTRA:         -10.180
REMARK INTER:                  -9.480
REMARK INTRA:                  -0.699
REMARK UNBOUND:                -0.851
REMARK  Name = 
REMARK  7 active torsions:
REMARK  status: ('A' for Active; 'I' for Inactive)
REMARK    1  A    between atoms: C_1  and  C_2
REMARK    2  A    between atoms: C_5  and  C_6
REMARK    3  A    between atoms: C_6  and  N_7
REMARK    4  A    between atoms: N_7  and  C_8
REMARK    5  A    between atoms: C_11  and  C_12
REMARK    6  A    between atoms: C_12  and  N_13
REMARK    7  A    between atoms: C_14  and  C_16
REMARK                            x       y       z     vdW  Elec       q    Type
REMARK                         _______ _______ _______ _____ _____    ______ ____
ROOT
ATOM      1  C   UNL     1      45.359   3.715  11.975  0.00  0.00    +0.000 A 
ATOM      2  C   UNL     1      45.427   5.033  11.501  0.00  0.00    +0.000 A 
ATOM      3  C   UNL     1      46.297   5.971  12.076  0.00  0.00    +0.000 A 
ATOM      4  C   UNL     1      47.107   5.617  13.162  0.00  0.00    +0.000 A 
ATOM      5  C   UNL     1      46.968   4.337  13.701  0.00  0.00    +0.000 A 
ATOM      6  C   UNL     1      46.098   3.407  13.121  0.00  0.00    +0.000 A 
ENDROOT
BRANCH   1   7
ATOM      7  N   UNL     1      44.461   2.810  11.374  0.00  0.00    +0.000 N 
ATOM      8  H   UNL     1      43.714   2.561  12.021  0.00  0.00    +0.000 HD
BRANCH   7   9
ATOM      9  C   UNL     1      43.924   3.191  10.067  0.00  0.00    +0.000 C 
BRANCH   9  14
ATOM     10  C   UNL     1      47.747   2.409   5.827  0.00  0.00    +0.000 C 
ATOM     11  C   UNL     1      46.760   2.554   6.945  0.00  0.00    +0.000 A 
ATOM     12  C   UNL     1      46.508   1.501   7.819  0.00  0.00    +0.000 A 
ATOM     13  C   UNL     1      45.571   1.680   8.837  0.00  0.00    +0.000 A 
ATOM     14  C   UNL     1      44.894   2.895   8.954  0.00  0.00    +0.000 A 
ATOM     15  C   UNL     1      45.236   3.895   8.049  0.00  0.00    +0.000 A 
ATOM     16  N   UNL     1      46.140   3.751   7.054  0.00  0.00    +0.000 NA
ENDBRANCH   9  14
ENDBRANCH   7   9
ENDBRANCH   1   7
BRANCH   4  17
ATOM     17  C   UNL     1      48.081   6.588  13.772  0.00  0.00    +0.000 C 
BRANCH  17  18
ATOM     18  N   UNL     1      48.424   7.645  12.858  0.00  0.00    +0.000 N 
ATOM     19  C   UNL     1      47.828   8.876  12.952  0.00  0.00    +0.000 C 
ATOM     20  O   UNL     1      47.011   9.137  13.832  0.00  0.00    +0.000 OA
ATOM     21  H   UNL     1      48.898   7.381  11.999  0.00  0.00    +0.000 HD
BRANCH  19  22
ATOM     22  C   UNL     1      48.266   9.894  11.991  0.00  0.00    +0.000 A 
ATOM     23  C   UNL     1      47.352  10.820  11.505  0.00  0.00    +0.000 A 
ATOM     24  S   UNL     1      48.041  11.977  10.460  0.00  0.00    +0.000 S 
ATOM     25  C   UNL     1      49.574  11.248  10.574  0.00  0.00    +0.000 A 
ATOM     26  N   UNL     1      50.639  11.747   9.890  0.00  0.00    +0.000 NA
ATOM     27  C   UNL     1      51.730  11.073  10.040  0.00  0.00    +0.000 A 
ATOM     28  N   UNL     1      51.855   9.947  10.811  0.00  0.00    +0.000 N 
ATOM     29  C   UNL     1      50.814   9.422  11.540  0.00  0.00    +0.000 A 
ATOM     30  O   UNL     1      50.964   8.430  12.244  0.00  0.00    +0.000 OA
ATOM     31  C   UNL     1      49.562  10.142  11.405  0.00  0.00    +0.000 A 
ATOM     32  H   UNL     1      52.740   9.468  10.887  0.00  0.00    +0.000 HD
ENDBRANCH  19  22
ENDBRANCH  17  18
ENDBRANCH   4  17
TORSDOF 6
ENDMDL
