MODEL 1
REMARK VINA RESULT:    -7.820      0.000      0.000
REMARK INTER + INTRA:         -12.994
REMARK INTER:                 -11.705
REMARK INTRA:                  -1.289
REMARK UNBOUND:                -1.289
REMARK  Name = 
REMARK  9 active torsions:
REMARK  status: ('A' for Active; 'I' for Inactive)
REMARK    1  A    between atoms: N_1  and  C_2
REMARK    2  A    between atoms: C_2  and  C_3
REMARK    3  A    between atoms: C_2  and  C_26
REMARK    4  A    between atoms: C_3  and  N_4
REMARK    5  A    between atoms: N_4  and  C_5
REMARK    6  A    between atoms: C_5  and  C_6
REMARK    7  A    between atoms: C_9  and  C_10
REMARK    8  A    between atoms: C_10  and  N_11
REMARK    9  A    between atoms: C_12  and  C_14
REMARK                            x       y       z     vdW  Elec       q    Type
REMARK                         _______ _______ _______ _____ _____    ______ ____
ROOT
ATOM      1  C   UNL     1      44.786   4.166  12.025  0.00  0.00    +0.000 A 
ATOM      2  C   UNL     1      45.642   3.610  12.973  0.00  0.00    +0.000 A 
ATOM      3  C   UNL     1      46.710   4.370  13.449  0.00  0.00    +0.000 A 
ATOM      4  C   UNL     1      46.918   5.660  12.957  0.00  0.00    +0.000 A 
ATOM      5  C   UNL     1      46.002   6.142  12.031  0.00  0.00    +0.000 A 
ATOM      6  N   UNL     1      44.947   5.436  11.568  0.00  0.00    +0.000 NA
ENDROOT
BRANCH   1   7
ATOM      7  C   UNL     1      43.621   3.341  11.489  0.00  0.00    +0.000 C 
BRANCH   7   8
ATOM      8  N   UNL     1      43.591   3.285  10.023  0.00  0.00    +0.000 NA
ATOM      9  H   UNL     1      42.686   2.887   9.757  0.00  0.00    +0.000 HD
BRANCH   8  10
ATOM     10  C   UNL     1      44.686   2.487   9.467  0.00  0.00    +0.000 C 
BRANCH  10  11
ATOM     11  C   UNL     1      45.759   3.371   8.752  0.00  0.00    +0.000 C 
BRANCH  11  12
ATOM     12  C   UNL     1      46.354   2.674   7.543  0.00  0.00    +0.000 A 
ATOM     13  C   UNL     1      46.536   3.306   6.305  0.00  0.00    +0.000 A 
ATOM     14  C   UNL     1      47.087   2.607   5.237  0.00  0.00    +0.000 A 
ATOM     15  C   UNL     1      47.429   1.281   5.429  0.00  0.00    +0.000 A 
ATOM     16  N   UNL     1      47.249   0.622   6.593  0.00  0.00    +0.000 NA
ATOM     17  C   UNL     1      46.722   1.333   7.618  0.00  0.00    +0.000 A 
ENDBRANCH  11  12
BRANCH  11  18
ATOM     18  N   UNL     1      45.202   4.694   8.404  0.00  0.00    +0.000 NA
ATOM     19  H   UNL     1      45.550   5.377   9.074  0.00  0.00    +0.000 HD
ATOM     20  H   UNL     1      44.201   4.649   8.615  0.00  0.00    +0.000 HD
ENDBRANCH  11  18
ENDBRANCH  10  11
ENDBRANCH   8  10
ENDBRANCH   7   8
ENDBRANCH   1   7
BRANCH   4  21
ATOM     21  C   UNL     1      48.048   6.518  13.440  0.00  0.00    +0.000 C 
BRANCH  21  22
ATOM     22  N   UNL     1      48.094   6.557  14.879  0.00  0.00    +0.000 N 
ATOM     23  C   UNL     1      49.246   6.888  15.544  0.00  0.00    +0.000 C 
ATOM     24  O   UNL     1      50.277   7.190  14.947  0.00  0.00    +0.000 OA
ATOM     25  H   UNL     1      47.351   6.082  15.382  0.00  0.00    +0.000 HD
BRANCH  23  26
ATOM     26  C   UNL     1      49.167   6.924  17.008  0.00  0.00    +0.000 A 
ATOM     27  C   UNL     1      49.241   8.140  17.673  0.00  0.00    +0.000 A 
ATOM     28  S   UNL     1      49.088   8.001  19.366  0.00  0.00    +0.000 S 
ATOM     29  C   UNL     1      48.967   6.306  19.273  0.00  0.00    +0.000 A 
ATOM     30  N   UNL     1      48.844   5.550  20.395  0.00  0.00    +0.000 NA
ATOM     31  C   UNL     1      48.787   4.277  20.178  0.00  0.00    +0.000 A 
ATOM     32  N   UNL     1      48.835   3.694  18.942  0.00  0.00    +0.000 N 
ATOM     33  C   UNL     1      48.931   4.417  17.777  0.00  0.00    +0.000 A 
ATOM     34  O   UNL     1      48.930   3.866  16.677  0.00  0.00    +0.000 OA
ATOM     35  C   UNL     1      49.016   5.851  17.967  0.00  0.00    +0.000 A 
ATOM     36  H   UNL     1      48.774   2.691  18.839  0.00  0.00    +0.000 HD
ENDBRANCH  23  26
ENDBRANCH  21  22
ENDBRANCH   4  21
TORSDOF 9
ENDMDL
MODEL 2
REMARK VINA RESULT:    -7.539      2.184      3.660
REMARK INTER + INTRA:         -12.574
REMARK INTER:                 -11.850
REMARK INTRA:                  -0.724
REMARK UNBOUND:                -1.289
REMARK  Name = 
REMARK  9 active torsions:
REMARK  status: ('A' for Active; 'I' for Inactive)
REMARK    1  A    between atoms: N_1  and  C_2
REMARK    2  A    between atoms: C_2  and  C_3
REMARK    3  A    between atoms: C_2  and  C_26
REMARK    4  A    between atoms: C_3  and  N_4
REMARK    5  A    between atoms: N_4  and  C_5
REMARK    6  A    between atoms: C_5  and  C_6
REMARK    7  A    between atoms: C_9  and  C_10
REMARK    8  A    between atoms: C_10  and  N_11
REMARK    9  A    between atoms: C_12  and  C_14
REMARK                            x       y       z     vdW  Elec       q    Type
REMARK                         _______ _______ _______ _____ _____    ______ ____
ROOT
ATOM      1  C   UNL     1      45.024   3.781   8.856  0.00  0.00    +0.000 A 
ATOM      2  C   UNL     1      45.443   4.988   9.411  0.00  0.00    +0.000 A 
ATOM      3  C   UNL     1      45.142   5.260  10.745  0.00  0.00    +0.000 A 
ATOM      4  C   UNL     1      44.412   4.337  11.495  0.00  0.00    +0.000 A 
ATOM      5  C   UNL     1      44.055   3.150  10.868  0.00  0.00    +0.000 A 
ATOM      6  N   UNL     1      44.352   2.851   9.584  0.00  0.00    +0.000 NA
ENDROOT
BRANCH   1   7
ATOM      7  C   UNL     1      45.339   3.477   7.396  0.00  0.00    +0.000 C 
BRANCH   7   8
ATOM      8  N   UNL     1      46.710   2.991   7.199  0.00  0.00    +0.000 NA
ATOM      9  H   UNL     1      47.108   3.525   6.422  0.00  0.00    +0.000 HD
BRANCH   8  10
ATOM     10  C   UNL     1      46.764   1.555   6.917  0.00  0.00    +0.000 C 
BRANCH  10  11
ATOM     11  C   UNL     1      47.737   1.219   5.742  0.00  0.00    +0.000 C 
BRANCH  11  12
ATOM     12  C   UNL     1      47.004   0.635   4.549  0.00  0.00    +0.000 A 
ATOM     13  C   UNL     1      46.254   1.410   3.653  0.00  0.00    +0.000 A 
ATOM     14  C   UNL     1      45.606   0.810   2.580  0.00  0.00    +0.000 A 
ATOM     15  C   UNL     1      45.710  -0.562   2.437  0.00  0.00    +0.000 A 
ATOM     16  N   UNL     1      46.397  -1.354   3.287  0.00  0.00    +0.000 NA
ATOM     17  C   UNL     1      47.028  -0.738   4.316  0.00  0.00    +0.000 A 
ENDBRANCH  11  12
BRANCH  11  18
ATOM     18  N   UNL     1      48.537   2.402   5.368  0.00  0.00    +0.000 NA
ATOM     19  H   UNL     1      48.635   2.418   4.354  0.00  0.00    +0.000 HD
ATOM     20  H   UNL     1      49.491   2.218   5.691  0.00  0.00    +0.000 HD
ENDBRANCH  11  18
ENDBRANCH  10  11
ENDBRANCH   8  10
ENDBRANCH   7   8
ENDBRANCH   1   7
BRANCH   4  21
ATOM     21  C   UNL     1      44.066   4.581  12.933  0.00  0.00    +0.000 C 
BRANCH  21  22
ATOM     22  N   UNL     1      45.156   5.215  13.629  0.00  0.00    +0.000 N 
ATOM     23  C   UNL     1      46.274   4.510  13.990  0.00  0.00    +0.000 C 
ATOM     24  O   UNL     1      46.410   3.320  13.715  0.00  0.00    +0.000 OA
ATOM     25  H   UNL     1      44.968   6.107  14.075  0.00  0.00    +0.000 HD
BRANCH  23  26
ATOM     26  C   UNL     1      47.332   5.266  14.669  0.00  0.00    +0.000 A 
ATOM     27  C   UNL     1      48.000   6.277  13.991  0.00  0.00    +0.000 A 
ATOM     28  S   UNL     1      49.166   7.080  14.943  0.00  0.00    +0.000 S 
ATOM     29  C   UNL     1      48.852   6.072  16.278  0.00  0.00    +0.000 A 
ATOM     30  N   UNL     1      49.546   6.211  17.439  0.00  0.00    +0.000 NA
ATOM     31  C   UNL     1      49.221   5.365  18.359  0.00  0.00    +0.000 A 
ATOM     32  N   UNL     1      48.262   4.398  18.227  0.00  0.00    +0.000 N 
ATOM     33  C   UNL     1      47.516   4.237  17.085  0.00  0.00    +0.000 A 
ATOM     34  O   UNL     1      46.631   3.386  17.011  0.00  0.00    +0.000 OA
ATOM     35  C   UNL     1      47.854   5.152  16.013  0.00  0.00    +0.000 A 
ATOM     36  H   UNL     1      48.047   3.773  18.991  0.00  0.00    +0.000 HD
ENDBRANCH  23  26
ENDBRANCH  21  22
ENDBRANCH   4  21
TORSDOF 9
ENDMDL
MODEL 3
REMARK VINA RESULT:    -7.521      1.493      2.065
REMARK INTER + INTRA:         -12.547
REMARK INTER:                 -11.601
REMARK INTRA:                  -0.945
REMARK UNBOUND:                -1.289
REMARK  Name = 
REMARK  9 active torsions:
REMARK  status: ('A' for Active; 'I' for Inactive)
REMARK    1  A    between atoms: N_1  and  C_2
REMARK    2  A    between atoms: C_2  and  C_3
REMARK    3  A    between atoms: C_2  and  C_26
REMARK    4  A    between atoms: C_3  and  N_4
REMARK    5  A    between atoms: N_4  and  C_5
REMARK    6  A    between atoms: C_5  and  C_6
REMARK    7  A    between atoms: C_9  and  C_10
REMARK    8  A    between atoms: C_10  and  N_11
REMARK    9  A    between atoms: C_12  and  C_14
REMARK                            x       y       z     vdW  Elec       q    Type
REMARK                         _______ _______ _______ _____ _____    ______ ____
ROOT
ATOM      1  C   UNL     1      44.995   4.550  12.120  0.00  0.00    +0.000 A 
ATOM      2  C   UNL     1      45.831   3.765  12.912  0.00  0.00    +0.000 A 
ATOM      3  C   UNL     1      46.848   4.382  13.639  0.00  0.00    +0.000 A 
ATOM      4  C   UNL     1      47.028   5.763  13.548  0.00  0.00    +0.000 A 
ATOM      5  C   UNL     1      46.134   6.470  12.753  0.00  0.00    +0.000 A 
ATOM      6  N   UNL     1      45.127   5.900  12.055  0.00  0.00    +0.000 NA
ENDROOT
BRANCH   1   7
ATOM      7  C   UNL     1      43.886   3.885  11.312  0.00  0.00    +0.000 C 
BRANCH   7   8
ATOM      8  N   UNL     1      44.282   2.580  10.770  0.00  0.00    +0.000 NA
ATOM      9  H   UNL     1      45.191   2.348  11.180  0.00  0.00    +0.000 HD
BRANCH   8  10
ATOM     10  C   UNL     1      44.362   2.578   9.308  0.00  0.00    +0.000 C 
BRANCH  10  11
ATOM     11  C   UNL     1      45.594   3.381   8.781  0.00  0.00    +0.000 C 
BRANCH  11  12
ATOM     12  C   UNL     1      46.294   2.664   7.642  0.00  0.00    +0.000 A 
ATOM     13  C   UNL     1      46.591   3.276   6.416  0.00  0.00    +0.000 A 
ATOM     14  C   UNL     1      47.233   2.559   5.412  0.00  0.00    +0.000 A 
ATOM     15  C   UNL     1      47.550   1.235   5.655  0.00  0.00    +0.000 A 
ATOM     16  N   UNL     1      47.263   0.595   6.808  0.00  0.00    +0.000 NA
ATOM     17  C   UNL     1      46.647   1.323   7.770  0.00  0.00    +0.000 A 
ENDBRANCH  11  12
BRANCH  11  18
ATOM     18  N   UNL     1      45.205   4.755   8.407  0.00  0.00    +0.000 NA
ATOM     19  H   UNL     1      46.046   5.273   8.160  0.00  0.00    +0.000 HD
ATOM     20  H   UNL     1      44.895   5.211   9.269  0.00  0.00    +0.000 HD
ENDBRANCH  11  18
ENDBRANCH  10  11
ENDBRANCH   8  10
ENDBRANCH   7   8
ENDBRANCH   1   7
BRANCH   4  21
ATOM     21  C   UNL     1      48.103   6.473  14.313  0.00  0.00    +0.000 C 
BRANCH  21  22
ATOM     22  N   UNL     1      47.977   6.240  15.729  0.00  0.00    +0.000 N 
ATOM     23  C   UNL     1      49.081   6.058  16.520  0.00  0.00    +0.000 C 
ATOM     24  O   UNL     1      50.222   6.112  16.068  0.00  0.00    +0.000 OA
ATOM     25  H   UNL     1      47.067   5.950  16.074  0.00  0.00    +0.000 HD
BRANCH  23  26
ATOM     26  C   UNL     1      48.831   5.857  17.952  0.00  0.00    +0.000 A 
ATOM     27  C   UNL     1      49.122   4.633  18.538  0.00  0.00    +0.000 A 
ATOM     28  S   UNL     1      48.812   4.589  20.215  0.00  0.00    +0.000 S 
ATOM     29  C   UNL     1      48.235   6.190  20.207  0.00  0.00    +0.000 A 
ATOM     30  N   UNL     1      47.772   6.773  21.344  0.00  0.00    +0.000 NA
ATOM     31  C   UNL     1      47.343   7.982  21.187  0.00  0.00    +0.000 A 
ATOM     32  N   UNL     1      47.339   8.661  20.000  0.00  0.00    +0.000 N 
ATOM     33  C   UNL     1      47.821   8.124  18.830  0.00  0.00    +0.000 A 
ATOM     34  O   UNL     1      47.843   8.775  17.787  0.00  0.00    +0.000 OA
ATOM     35  C   UNL     1      48.299   6.761  18.948  0.00  0.00    +0.000 A 
ATOM     36  H   UNL     1      46.999   9.611  19.946  0.00  0.00    +0.000 HD
ENDBRANCH  23  26
ENDBRANCH  21  22
ENDBRANCH   4  21
TORSDOF 9
ENDMDL
MODEL 4
REMARK VINA RESULT:    -7.367      3.672      8.581
REMARK INTER + INTRA:         -12.317
REMARK INTER:                 -11.111
REMARK INTRA:                  -1.206
REMARK UNBOUND:                -1.289
REMARK  Name = 
REMARK  9 active torsions:
REMARK  status: ('A' for Active; 'I' for Inactive)
REMARK    1  A    between atoms: N_1  and  C_2
REMARK    2  A    between atoms: C_2  and  C_3
REMARK    3  A    between atoms: C_2  and  C_26
REMARK    4  A    between atoms: C_3  and  N_4
REMARK    5  A    between atoms: N_4  and  C_5
REMARK    6  A    between atoms: C_5  and  C_6
REMARK    7  A    between atoms: C_9  and  C_10
REMARK    8  A    between atoms: C_10  and  N_11
REMARK    9  A    between atoms: C_12  and  C_14
REMARK                            x       y       z     vdW  Elec       q    Type
REMARK                         _______ _______ _______ _____ _____    ______ ____
ROOT
ATOM      1  C   UNL     1      48.749   7.614  16.160  0.00  0.00    +0.000 A 
ATOM      2  C   UNL     1      48.313   8.837  15.657  0.00  0.00    +0.000 A 
ATOM      3  C   UNL     1      48.176   8.990  14.278  0.00  0.00    +0.000 A 
ATOM      4  C   UNL     1      48.495   7.932  13.426  0.00  0.00    +0.000 A 
ATOM      5  C   UNL     1      48.899   6.741  14.015  0.00  0.00    +0.000 A 
ATOM      6  N   UNL     1      49.020   6.558  15.349  0.00  0.00    +0.000 NA
ENDROOT
BRANCH   1   7
ATOM      7  C   UNL     1      48.912   7.437  17.666  0.00  0.00    +0.000 C 
BRANCH   7   8
ATOM      8  N   UNL     1      47.743   6.811  18.295  0.00  0.00    +0.000 NA
ATOM      9  H   UNL     1      47.486   7.392  19.097  0.00  0.00    +0.000 HD
BRANCH   8  10
ATOM     10  C   UNL     1      48.002   5.433  18.721  0.00  0.00    +0.000 C 
BRANCH  10  11
ATOM     11  C   UNL     1      47.827   4.410  17.553  0.00  0.00    +0.000 C 
BRANCH  11  12
ATOM     12  C   UNL     1      49.051   3.530  17.382  0.00  0.00    +0.000 A 
ATOM     13  C   UNL     1      50.278   3.790  18.009  0.00  0.00    +0.000 A 
ATOM     14  C   UNL     1      51.361   2.943  17.808  0.00  0.00    +0.000 A 
ATOM     15  C   UNL     1      51.195   1.857  16.968  0.00  0.00    +0.000 A 
ATOM     16  N   UNL     1      50.043   1.579  16.322  0.00  0.00    +0.000 NA
ATOM     17  C   UNL     1      49.002   2.416  16.548  0.00  0.00    +0.000 A 
ENDBRANCH  11  12
BRANCH  11  18
ATOM     18  N   UNL     1      46.598   3.611  17.735  0.00  0.00    +0.000 NA
ATOM     19  H   UNL     1      46.785   2.885  18.423  0.00  0.00    +0.000 HD
ATOM     20  H   UNL     1      46.469   3.083  16.868  0.00  0.00    +0.000 HD
ENDBRANCH  11  18
ENDBRANCH  10  11
ENDBRANCH   8  10
ENDBRANCH   7   8
ENDBRANCH   1   7
BRANCH   4  21
ATOM     21  C   UNL     1      48.361   8.046  11.937  0.00  0.00    +0.000 C 
BRANCH  21  22
ATOM     22  N   UNL     1      47.630   6.930  11.394  0.00  0.00    +0.000 N 
ATOM     23  C   UNL     1      46.260   6.904  11.408  0.00  0.00    +0.000 C 
ATOM     24  O   UNL     1      45.596   7.835  11.858  0.00  0.00    +0.000 OA
ATOM     25  H   UNL     1      48.140   6.064  11.249  0.00  0.00    +0.000 HD
BRANCH  23  26
ATOM     26  C   UNL     1      45.623   5.731  10.800  0.00  0.00    +0.000 A 
ATOM     27  C   UNL     1      45.741   5.511   9.435  0.00  0.00    +0.000 A 
ATOM     28  S   UNL     1      44.978   4.081   8.905  0.00  0.00    +0.000 S 
ATOM     29  C   UNL     1      44.422   3.730  10.475  0.00  0.00    +0.000 A 
ATOM     30  N   UNL     1      43.661   2.630  10.719  0.00  0.00    +0.000 NA
ATOM     31  C   UNL     1      43.289   2.501  11.950  0.00  0.00    +0.000 A 
ATOM     32  N   UNL     1      43.615   3.366  12.958  0.00  0.00    +0.000 N 
ATOM     33  C   UNL     1      44.403   4.474  12.767  0.00  0.00    +0.000 A 
ATOM     34  O   UNL     1      44.714   5.211  13.702  0.00  0.00    +0.000 OA
ATOM     35  C   UNL     1      44.833   4.675  11.398  0.00  0.00    +0.000 A 
ATOM     36  H   UNL     1      43.301   3.201  13.905  0.00  0.00    +0.000 HD
ENDBRANCH  23  26
ENDBRANCH  21  22
ENDBRANCH   4  21
TORSDOF 9
ENDMDL
MODEL 5
REMARK VINA RESULT:    -7.266      3.232      8.995
REMARK INTER + INTRA:         -12.165
REMARK INTER:                 -10.720
REMARK INTRA:                  -1.446
REMARK UNBOUND:                -1.289
REMARK  Name = 
REMARK  9 active torsions:
REMARK  status: ('A' for Active; 'I' for Inactive)
REMARK    1  A    between atoms: N_1  and  C_2
REMARK    2  A    between atoms: C_2  and  C_3
REMARK    3  A    between atoms: C_2  and  C_26
REMARK    4  A    between atoms: C_3  and  N_4
REMARK    5  A    between atoms: N_4  and  C_5
REMARK    6  A    between atoms: C_5  and  C_6
REMARK    7  A    between atoms: C_9  and  C_10
REMARK    8  A    between atoms: C_10  and  N_11
REMARK    9  A    between atoms: C_12  and  C_14
REMARK                            x       y       z     vdW  Elec       q    Type
REMARK                         _______ _______ _______ _____ _____    ______ ____
ROOT
ATOM      1  C   UNL     1      49.343   7.861  15.892  0.00  0.00    +0.000 A 
ATOM      2  C   UNL     1      48.401   8.830  15.554  0.00  0.00    +0.000 A 
ATOM      3  C   UNL     1      47.832   8.806  14.282  0.00  0.00    +0.000 A 
ATOM      4  C   UNL     1      48.225   7.831  13.363  0.00  0.00    +0.000 A 
ATOM      5  C   UNL     1      49.152   6.891  13.793  0.00  0.00    +0.000 A 
ATOM      6  N   UNL     1      49.704   6.878  15.027  0.00  0.00    +0.000 NA
ENDROOT
BRANCH   1   7
ATOM      7  C   UNL     1      49.979   7.884  17.277  0.00  0.00    +0.000 C 
BRANCH   7   8
ATOM      8  N   UNL     1      48.989   7.827  18.359  0.00  0.00    +0.000 NA
ATOM      9  H   UNL     1      49.316   8.455  19.099  0.00  0.00    +0.000 HD
BRANCH   8  10
ATOM     10  C   UNL     1      48.802   6.472  18.882  0.00  0.00    +0.000 C 
BRANCH  10  11
ATOM     11  C   UNL     1      47.816   5.631  18.008  0.00  0.00    +0.000 C 
BRANCH  11  12
ATOM     12  C   UNL     1      48.457   4.352  17.502  0.00  0.00    +0.000 A 
ATOM     13  C   UNL     1      49.650   3.832  18.024  0.00  0.00    +0.000 A 
ATOM     14  C   UNL     1      50.183   2.655  17.512  0.00  0.00    +0.000 A 
ATOM     15  C   UNL     1      49.515   2.030  16.475  0.00  0.00    +0.000 A 
ATOM     16  N   UNL     1      48.379   2.505  15.922  0.00  0.00    +0.000 NA
ATOM     17  C   UNL     1      47.877   3.647  16.450  0.00  0.00    +0.000 A 
ENDBRANCH  11  12
BRANCH  11  18
ATOM     18  N   UNL     1      46.562   5.364  18.740  0.00  0.00    +0.000 NA
ATOM     19  H   UNL     1      45.966   4.780  18.156  0.00  0.00    +0.000 HD
ATOM     20  H   UNL     1      46.055   6.253  18.776  0.00  0.00    +0.000 HD
ENDBRANCH  11  18
ENDBRANCH  10  11
ENDBRANCH   8  10
ENDBRANCH   7   8
ENDBRANCH   1   7
BRANCH   4  21
ATOM     21  C   UNL     1      47.640   7.760  11.985  0.00  0.00    +0.000 C 
BRANCH  21  22
ATOM     22  N   UNL     1      46.933   6.522  11.783  0.00  0.00    +0.000 N 
ATOM     23  C   UNL     1      45.564   6.473  11.814  0.00  0.00    +0.000 C 
ATOM     24  O   UNL     1      44.881   7.479  11.987  0.00  0.00    +0.000 OA
ATOM     25  H   UNL     1      47.462   5.661  11.885  0.00  0.00    +0.000 HD
BRANCH  23  26
ATOM     26  C   UNL     1      44.952   5.163  11.565  0.00  0.00    +0.000 A 
ATOM     27  C   UNL     1      44.240   4.532  12.576  0.00  0.00    +0.000 A 
ATOM     28  S   UNL     1      43.561   3.040  12.102  0.00  0.00    +0.000 S 
ATOM     29  C   UNL     1      44.235   3.165  10.544  0.00  0.00    +0.000 A 
ATOM     30  N   UNL     1      44.056   2.181   9.623  0.00  0.00    +0.000 NA
ATOM     31  C   UNL     1      44.644   2.396   8.492  0.00  0.00    +0.000 A 
ATOM     32  N   UNL     1      45.387   3.506   8.197  0.00  0.00    +0.000 N 
ATOM     33  C   UNL     1      45.573   4.538   9.085  0.00  0.00    +0.000 A 
ATOM     34  O   UNL     1      46.211   5.543   8.775  0.00  0.00    +0.000 OA
ATOM     35  C   UNL     1      44.948   4.339  10.377  0.00  0.00    +0.000 A 
ATOM     36  H   UNL     1      45.811   3.619   7.287  0.00  0.00    +0.000 HD
ENDBRANCH  23  26
ENDBRANCH  21  22
ENDBRANCH   4  21
TORSDOF 9
ENDMDL
MODEL 6
REMARK VINA RESULT:    -7.054      2.628      4.587
REMARK INTER + INTRA:         -11.848
REMARK INTER:                 -10.921
REMARK INTRA:                  -0.927
REMARK UNBOUND:                -1.289
REMARK  Name = 
REMARK  9 active torsions:
REMARK  status: ('A' for Active; 'I' for Inactive)
REMARK    1  A    between atoms: N_1  and  C_2
REMARK    2  A    between atoms: C_2  and  C_3
REMARK    3  A    between atoms: C_2  and  C_26
REMARK    4  A    between atoms: C_3  and  N_4
REMARK    5  A    between atoms: N_4  and  C_5
REMARK    6  A    between atoms: C_5  and  C_6
REMARK    7  A    between atoms: C_9  and  C_10
REMARK    8  A    between atoms: C_10  and  N_11
REMARK    9  A    between atoms: C_12  and  C_14
REMARK                            x       y       z     vdW  Elec       q    Type
REMARK                         _______ _______ _______ _____ _____    ______ ____
ROOT
ATOM      1  C   UNL     1      45.282   3.708   8.824  0.00  0.00    +0.000 A 
ATOM      2  C   UNL     1      45.487   5.018   9.249  0.00  0.00    +0.000 A 
ATOM      3  C   UNL     1      45.157   5.365  10.558  0.00  0.00    +0.000 A 
ATOM      4  C   UNL     1      44.610   4.407  11.413  0.00  0.00    +0.000 A 
ATOM      5  C   UNL     1      44.461   3.120  10.914  0.00  0.00    +0.000 A 
ATOM      6  N   UNL     1      44.792   2.751   9.656  0.00  0.00    +0.000 NA
ENDROOT
BRANCH   1   7
ATOM      7  C   UNL     1      45.629   3.319   7.391  0.00  0.00    +0.000 C 
BRANCH   7   8
ATOM      8  N   UNL     1      46.946   2.680   7.279  0.00  0.00    +0.000 NA
ATOM      9  H   UNL     1      47.524   3.286   6.690  0.00  0.00    +0.000 HD
BRANCH   8  10
ATOM     10  C   UNL     1      46.871   1.332   6.712  0.00  0.00    +0.000 C 
BRANCH  10  11
ATOM     11  C   UNL     1      47.724   1.189   5.411  0.00  0.00    +0.000 C 
BRANCH  11  12
ATOM     12  C   UNL     1      46.947   0.517   4.295  0.00  0.00    +0.000 A 
ATOM     13  C   UNL     1      47.038  -0.854   4.012  0.00  0.00    +0.000 A 
ATOM     14  C   UNL     1      46.299  -1.405   2.973  0.00  0.00    +0.000 A 
ATOM     15  C   UNL     1      45.493  -0.566   2.226  0.00  0.00    +0.000 A 
ATOM     16  N   UNL     1      45.391   0.763   2.442  0.00  0.00    +0.000 NA
ATOM     17  C   UNL     1      46.115   1.269   3.469  0.00  0.00    +0.000 A 
ENDBRANCH  11  12
BRANCH  11  18
ATOM     18  N   UNL     1      48.266   2.497   4.992  0.00  0.00    +0.000 NA
ATOM     19  H   UNL     1      49.279   2.476   5.097  0.00  0.00    +0.000 HD
ATOM     20  H   UNL     1      47.972   3.171   5.703  0.00  0.00    +0.000 HD
ENDBRANCH  11  18
ENDBRANCH  10  11
ENDBRANCH   8  10
ENDBRANCH   7   8
ENDBRANCH   1   7
BRANCH   4  21
ATOM     21  C   UNL     1      44.242   4.729  12.830  0.00  0.00    +0.000 C 
BRANCH  21  22
ATOM     22  N   UNL     1      45.335   5.365  13.520  0.00  0.00    +0.000 N 
ATOM     23  C   UNL     1      46.407   4.641  13.972  0.00  0.00    +0.000 C 
ATOM     24  O   UNL     1      46.497   3.429  13.789  0.00  0.00    +0.000 OA
ATOM     25  H   UNL     1      45.173   6.295  13.893  0.00  0.00    +0.000 HD
BRANCH  23  26
ATOM     26  C   UNL     1      47.474   5.399  14.634  0.00  0.00    +0.000 A 
ATOM     27  C   UNL     1      47.795   5.128  15.957  0.00  0.00    +0.000 A 
ATOM     28  S   UNL     1      49.086   6.070  16.552  0.00  0.00    +0.000 S 
ATOM     29  C   UNL     1      49.230   6.906  15.077  0.00  0.00    +0.000 A 
ATOM     30  N   UNL     1      50.150   7.894  14.919  0.00  0.00    +0.000 NA
ATOM     31  C   UNL     1      50.132   8.459  13.756  0.00  0.00    +0.000 A 
ATOM     32  N   UNL     1      49.284   8.121  12.738  0.00  0.00    +0.000 N 
ATOM     33  C   UNL     1      48.357   7.112  12.841  0.00  0.00    +0.000 A 
ATOM     34  O   UNL     1      47.637   6.803  11.892  0.00  0.00    +0.000 OA
ATOM     35  C   UNL     1      48.324   6.457  14.133  0.00  0.00    +0.000 A 
ATOM     36  H   UNL     1      49.329   8.595  11.847  0.00  0.00    +0.000 HD
ENDBRANCH  23  26
ENDBRANCH  21  22
ENDBRANCH   4  21
TORSDOF 9
ENDMDL
MODEL 7
REMARK VINA RESULT:    -7.043      1.621      2.387
REMARK INTER + INTRA:         -11.831
REMARK INTER:                 -10.232
REMARK INTRA:                  -1.599
REMARK UNBOUND:                -1.289
REMARK  Name = 
REMARK  9 active torsions:
REMARK  status: ('A' for Active; 'I' for Inactive)
REMARK    1  A    between atoms: N_1  and  C_2
REMARK    2  A    between atoms: C_2  and  C_3
REMARK    3  A    between atoms: C_2  and  C_26
REMARK    4  A    between atoms: C_3  and  N_4
REMARK    5  A    between atoms: N_4  and  C_5
REMARK    6  A    between atoms: C_5  and  C_6
REMARK    7  A    between atoms: C_9  and  C_10
REMARK    8  A    between atoms: C_10  and  N_11
REMARK    9  A    between atoms: C_12  and  C_14
REMARK                            x       y       z     vdW  Elec       q    Type
REMARK                         _______ _______ _______ _____ _____    ______ ____
ROOT
ATOM      1  C   UNL     1      45.121   6.514  12.390  0.00  0.00    +0.000 A 
ATOM      2  C   UNL     1      45.567   7.822  12.222  0.00  0.00    +0.000 A 
ATOM      3  C   UNL     1      46.889   8.132  12.538  0.00  0.00    +0.000 A 
ATOM      4  C   UNL     1      47.736   7.140  13.034  0.00  0.00    +0.000 A 
ATOM      5  C   UNL     1      47.214   5.858  13.148  0.00  0.00    +0.000 A 
ATOM      6  N   UNL     1      45.943   5.525  12.830  0.00  0.00    +0.000 NA
ENDROOT
BRANCH   1   7
ATOM      7  C   UNL     1      43.674   6.165  12.058  0.00  0.00    +0.000 C 
BRANCH   7   8
ATOM      8  N   UNL     1      43.382   4.736  12.221  0.00  0.00    +0.000 NA
ATOM      9  H   UNL     1      44.165   4.327  12.739  0.00  0.00    +0.000 HD
BRANCH   8  10
ATOM     10  C   UNL     1      43.199   4.049  10.940  0.00  0.00    +0.000 C 
BRANCH  10  11
ATOM     11  C   UNL     1      44.237   2.900  10.732  0.00  0.00    +0.000 C 
BRANCH  11  12
ATOM     12  C   UNL     1      45.073   3.111   9.483  0.00  0.00    +0.000 A 
ATOM     13  C   UNL     1      45.610   2.057   8.731  0.00  0.00    +0.000 A 
ATOM     14  C   UNL     1      46.369   2.321   7.596  0.00  0.00    +0.000 A 
ATOM     15  C   UNL     1      46.587   3.641   7.248  0.00  0.00    +0.000 A 
ATOM     16  N   UNL     1      46.114   4.690   7.954  0.00  0.00    +0.000 NA
ATOM     17  C   UNL     1      45.368   4.400   9.047  0.00  0.00    +0.000 A 
ENDBRANCH  11  12
BRANCH  11  18
ATOM     18  N   UNL     1      45.080   2.728  11.932  0.00  0.00    +0.000 NA
ATOM     19  H   UNL     1      45.940   2.258  11.658  0.00  0.00    +0.000 HD
ATOM     20  H   UNL     1      44.609   2.030  12.516  0.00  0.00    +0.000 HD
ENDBRANCH  11  18
ENDBRANCH  10  11
ENDBRANCH   8  10
ENDBRANCH   7   8
ENDBRANCH   1   7
BRANCH   4  21
ATOM     21  C   UNL     1      49.165   7.421  13.384  0.00  0.00    +0.000 C 
BRANCH  21  22
ATOM     22  N   UNL     1      49.440   7.090  14.759  0.00  0.00    +0.000 N 
ATOM     23  C   UNL     1      49.147   7.966  15.772  0.00  0.00    +0.000 C 
ATOM     24  O   UNL     1      48.616   9.054  15.559  0.00  0.00    +0.000 OA
ATOM     25  H   UNL     1      50.086   6.328  14.935  0.00  0.00    +0.000 HD
BRANCH  23  26
ATOM     26  C   UNL     1      49.442   7.510  17.135  0.00  0.00    +0.000 A 
ATOM     27  C   UNL     1      50.196   8.310  17.982  0.00  0.00    +0.000 A 
ATOM     28  S   UNL     1      50.405   7.647  19.539  0.00  0.00    +0.000 S 
ATOM     29  C   UNL     1      49.536   6.245  19.120  0.00  0.00    +0.000 A 
ATOM     30  N   UNL     1      49.365   5.234  20.012  0.00  0.00    +0.000 NA
ATOM     31  C   UNL     1      48.707   4.222  19.552  0.00  0.00    +0.000 A 
ATOM     32  N   UNL     1      48.199   4.132  18.285  0.00  0.00    +0.000 N 
ATOM     33  C   UNL     1      48.323   5.137  17.357  0.00  0.00    +0.000 A 
ATOM     34  O   UNL     1      47.819   5.045  16.239  0.00  0.00    +0.000 OA
ATOM     35  C   UNL     1      49.069   6.290  17.818  0.00  0.00    +0.000 A 
ATOM     36  H   UNL     1      47.682   3.315  17.990  0.00  0.00    +0.000 HD
ENDBRANCH  23  26
ENDBRANCH  21  22
ENDBRANCH   4  21
TORSDOF 9
ENDMDL
MODEL 8
REMARK VINA RESULT:    -6.785      4.906      6.652
REMARK INTER + INTRA:         -11.446
REMARK INTER:                 -10.867
REMARK INTRA:                  -0.579
REMARK UNBOUND:                -1.289
REMARK  Name = 
REMARK  9 active torsions:
REMARK  status: ('A' for Active; 'I' for Inactive)
REMARK    1  A    between atoms: N_1  and  C_2
REMARK    2  A    between atoms: C_2  and  C_3
REMARK    3  A    between atoms: C_2  and  C_26
REMARK    4  A    between atoms: C_3  and  N_4
REMARK    5  A    between atoms: N_4  and  C_5
REMARK    6  A    between atoms: C_5  and  C_6
REMARK    7  A    between atoms: C_9  and  C_10
REMARK    8  A    between atoms: C_10  and  N_11
REMARK    9  A    between atoms: C_12  and  C_14
REMARK                            x       y       z     vdW  Elec       q    Type
REMARK                         _______ _______ _______ _____ _____    ______ ____
ROOT
ATOM      1  C   UNL     1      44.937   2.583   9.211  0.00  0.00    +0.000 A 
ATOM      2  C   UNL     1      44.991   3.871   8.685  0.00  0.00    +0.000 A 
ATOM      3  C   UNL     1      44.342   4.905   9.359  0.00  0.00    +0.000 A 
ATOM      4  C   UNL     1      43.634   4.634  10.530  0.00  0.00    +0.000 A 
ATOM      5  C   UNL     1      43.651   3.325  10.995  0.00  0.00    +0.000 A 
ATOM      6  N   UNL     1      44.290   2.308  10.374  0.00  0.00    +0.000 NA
ENDROOT
BRANCH   1   7
ATOM      7  C   UNL     1      45.634   1.442   8.478  0.00  0.00    +0.000 C 
BRANCH   7   8
ATOM      8  N   UNL     1      46.722   1.907   7.609  0.00  0.00    +0.000 NA
ATOM      9  H   UNL     1      46.326   2.616   6.986  0.00  0.00    +0.000 HD
BRANCH   8  10
ATOM     10  C   UNL     1      47.327   0.822   6.834  0.00  0.00    +0.000 C 
BRANCH  10  11
ATOM     11  C   UNL     1      47.792   1.294   5.419  0.00  0.00    +0.000 C 
BRANCH  11  12
ATOM     12  C   UNL     1      46.982   0.647   4.311  0.00  0.00    +0.000 A 
ATOM     13  C   UNL     1      46.168   1.373   3.430  0.00  0.00    +0.000 A 
ATOM     14  C   UNL     1      45.451   0.718   2.437  0.00  0.00    +0.000 A 
ATOM     15  C   UNL     1      45.552  -0.660   2.357  0.00  0.00    +0.000 A 
ATOM     16  N   UNL     1      46.301  -1.405   3.197  0.00  0.00    +0.000 NA
ATOM     17  C   UNL     1      46.998  -0.736   4.147  0.00  0.00    +0.000 A 
ENDBRANCH  11  12
BRANCH  11  18
ATOM     18  N   UNL     1      47.773   2.767   5.324  0.00  0.00    +0.000 NA
ATOM     19  H   UNL     1      47.588   3.148   6.250  0.00  0.00    +0.000 HD
ATOM     20  H   UNL     1      46.929   3.010   4.799  0.00  0.00    +0.000 HD
ENDBRANCH  11  18
ENDBRANCH  10  11
ENDBRANCH   8  10
ENDBRANCH   7   8
ENDBRANCH   1   7
BRANCH   4  21
ATOM     21  C   UNL     1      42.923   5.711  11.293  0.00  0.00    +0.000 C 
BRANCH  21  22
ATOM     22  N   UNL     1      43.677   6.938  11.285  0.00  0.00    +0.000 N 
ATOM     23  C   UNL     1      44.650   7.180  12.220  0.00  0.00    +0.000 C 
ATOM     24  O   UNL     1      44.940   6.356  13.084  0.00  0.00    +0.000 OA
ATOM     25  H   UNL     1      43.297   7.715  10.753  0.00  0.00    +0.000 HD
BRANCH  23  26
ATOM     26  C   UNL     1      45.372   8.450  12.096  0.00  0.00    +0.000 A 
ATOM     27  C   UNL     1      46.667   8.558  12.585  0.00  0.00    +0.000 A 
ATOM     28  S   UNL     1      47.372  10.088  12.318  0.00  0.00    +0.000 S 
ATOM     29  C   UNL     1      45.953  10.675  11.583  0.00  0.00    +0.000 A 
ATOM     30  N   UNL     1      45.873  11.958  11.140  0.00  0.00    +0.000 NA
ATOM     31  C   UNL     1      44.731  12.274  10.626  0.00  0.00    +0.000 A 
ATOM     32  N   UNL     1      43.665  11.425  10.509  0.00  0.00    +0.000 N 
ATOM     33  C   UNL     1      43.707  10.113  10.917  0.00  0.00    +0.000 A 
ATOM     34  O   UNL     1      42.746   9.361  10.759  0.00  0.00    +0.000 OA
ATOM     35  C   UNL     1      44.963   9.711  11.517  0.00  0.00    +0.000 A 
ATOM     36  H   UNL     1      42.801  11.732  10.085  0.00  0.00    +0.000 HD
ENDBRANCH  23  26
ENDBRANCH  21  22
ENDBRANCH   4  21
TORSDOF 9
ENDMDL
MODEL 9
REMARK VINA RESULT:    -6.526      3.729      8.958
REMARK INTER + INTRA:         -11.057
REMARK INTER:                  -9.648
REMARK INTRA:                  -1.409
REMARK UNBOUND:                -1.289
REMARK  Name = 
REMARK  9 active torsions:
REMARK  status: ('A' for Active; 'I' for Inactive)
REMARK    1  A    between atoms: N_1  and  C_2
REMARK    2  A    between atoms: C_2  and  C_3
REMARK    3  A    between atoms: C_2  and  C_26
REMARK    4  A    between atoms: C_3  and  N_4
REMARK    5  A    between atoms: N_4  and  C_5
REMARK    6  A    between atoms: C_5  and  C_6
REMARK    7  A    between atoms: C_9  and  C_10
REMARK    8  A    between atoms: C_10  and  N_11
REMARK    9  A    between atoms: C_12  and  C_14
REMARK                            x       y       z     vdW  Elec       q    Type
REMARK                         _______ _______ _______ _____ _____    ______ ____
ROOT
ATOM      1  C   UNL     1      50.290   7.275  15.603  0.00  0.00    +0.000 A 
ATOM      2  C   UNL     1      48.948   6.925  15.474  0.00  0.00    +0.000 A 
ATOM      3  C   UNL     1      48.292   7.191  14.273  0.00  0.00    +0.000 A 
ATOM      4  C   UNL     1      48.977   7.818  13.231  0.00  0.00    +0.000 A 
ATOM      5  C   UNL     1      50.319   8.111  13.439  0.00  0.00    +0.000 A 
ATOM      6  N   UNL     1      50.985   7.845  14.585  0.00  0.00    +0.000 NA
ENDROOT
BRANCH   1   7
ATOM      7  C   UNL     1      51.015   6.998  16.916  0.00  0.00    +0.000 C 
BRANCH   7   8
ATOM      8  N   UNL     1      52.105   6.027  16.769  0.00  0.00    +0.000 NA
ATOM      9  H   UNL     1      52.248   5.886  15.765  0.00  0.00    +0.000 HD
BRANCH   8  10
ATOM     10  C   UNL     1      51.819   4.753  17.431  0.00  0.00    +0.000 C 
BRANCH  10  11
ATOM     11  C   UNL     1      50.693   4.885  18.506  0.00  0.00    +0.000 C 
BRANCH  11  12
ATOM     12  C   UNL     1      49.380   4.293  18.027  0.00  0.00    +0.000 A 
ATOM     13  C   UNL     1      49.303   3.185  17.172  0.00  0.00    +0.000 A 
ATOM     14  C   UNL     1      48.067   2.694  16.770  0.00  0.00    +0.000 A 
ATOM     15  C   UNL     1      46.929   3.337  17.223  0.00  0.00    +0.000 A 
ATOM     16  N   UNL     1      46.951   4.422  18.025  0.00  0.00    +0.000 NA
ATOM     17  C   UNL     1      48.171   4.869  18.409  0.00  0.00    +0.000 A 
ENDBRANCH  11  12
BRANCH  11  18
ATOM     18  N   UNL     1      51.121   4.298  19.792  0.00  0.00    +0.000 NA
ATOM     19  H   UNL     1      51.085   5.024  20.505  0.00  0.00    +0.000 HD
ATOM     20  H   UNL     1      52.123   4.110  19.701  0.00  0.00    +0.000 HD
ENDBRANCH  11  18
ENDBRANCH  10  11
ENDBRANCH   8  10
ENDBRANCH   7   8
ENDBRANCH   1   7
BRANCH   4  21
ATOM     21  C   UNL     1      48.318   8.122  11.920  0.00  0.00    +0.000 C 
BRANCH  21  22
ATOM     22  N   UNL     1      47.612   6.973  11.414  0.00  0.00    +0.000 N 
ATOM     23  C   UNL     1      46.243   6.951  11.351  0.00  0.00    +0.000 C 
ATOM     24  O   UNL     1      45.561   7.913  11.695  0.00  0.00    +0.000 OA
ATOM     25  H   UNL     1      48.124   6.098  11.360  0.00  0.00    +0.000 HD
BRANCH  23  26
ATOM     26  C   UNL     1      45.635   5.740  10.790  0.00  0.00    +0.000 A 
ATOM     27  C   UNL     1      45.751   5.475   9.432  0.00  0.00    +0.000 A 
ATOM     28  S   UNL     1      45.024   4.005   8.960  0.00  0.00    +0.000 S 
ATOM     29  C   UNL     1      44.487   3.697  10.546  0.00  0.00    +0.000 A 
ATOM     30  N   UNL     1      43.757   2.587  10.834  0.00  0.00    +0.000 NA
ATOM     31  C   UNL     1      43.396   2.493  12.072  0.00  0.00    +0.000 A 
ATOM     32  N   UNL     1      43.704   3.402  13.046  0.00  0.00    +0.000 N 
ATOM     33  C   UNL     1      44.461   4.524  12.809  0.00  0.00    +0.000 A 
ATOM     34  O   UNL     1      44.758   5.302  13.715  0.00  0.00    +0.000 OA
ATOM     35  C   UNL     1      44.877   4.686  11.430  0.00  0.00    +0.000 A 
ATOM     36  H   UNL     1      43.401   3.263  14.000  0.00  0.00    +0.000 HD
ENDBRANCH  23  26
ENDBRANCH  21  22
ENDBRANCH   4  21
TORSDOF 9
ENDMDL
