MODEL 1
REMARK VINA RESULT:    -7.229      0.000      0.000
REMARK INTER + INTRA:         -11.479
REMARK INTER:                 -10.398
REMARK INTRA:                  -1.081
REMARK UNBOUND:                -1.081
REMARK  Name = 
REMARK  9 active torsions:
REMARK  status: ('A' for Active; 'I' for Inactive)
REMARK    1  A    between atoms: C_1  and  O_2
REMARK    2  A    between atoms: O_2  and  C_3
REMARK    3  A    between atoms: C_5  and  O_6
REMARK    4  A    between atoms: O_6  and  C_7
REMARK    5  A    between atoms: C_7  and  C_8
REMARK    6  A    between atoms: C_8  and  C_9
REMARK    7  A    between atoms: C_13  and  C_14
REMARK    8  A    between atoms: C_14  and  N_15
REMARK    9  A    between atoms: C_19  and  C_20
REMARK                            x       y       z     vdW  Elec       q    Type
REMARK                         _______ _______ _______ _____ _____    ______ ____
ROOT
ATOM      1  C   UNL     1      45.701   6.496  13.079  0.00  0.00    +0.000 A 
ATOM      2  C   UNL     1      44.586   5.677  12.850  0.00  0.00    +0.000 A 
ATOM      3  C   UNL     1      44.712   4.309  13.041  0.00  0.00    +0.000 A 
ATOM      4  N   UNL     1      45.858   3.719  13.431  0.00  0.00    +0.000 NA
ATOM      5  C   UNL     1      46.926   4.523  13.634  0.00  0.00    +0.000 A 
ATOM      6  C   UNL     1      46.911   5.903  13.473  0.00  0.00    +0.000 A 
ENDROOT
BRANCH   6   7
ATOM      7  C   UNL     1      48.188   6.613  13.760  0.00  0.00    +0.000 C 
ATOM      8  N   UNL     1      48.260   7.402  14.868  0.00  0.00    +0.000 N 
ATOM      9  O   UNL     1      49.163   6.496  13.024  0.00  0.00    +0.000 OA
ATOM     10  H   UNL     1      47.458   7.553  15.468  0.00  0.00    +0.000 HD
ATOM     11  H   UNL     1      49.122   7.897  15.052  0.00  0.00    +0.000 HD
ENDBRANCH   6   7
BRANCH   1  13
ATOM     12  C   UNL     1      45.041   8.332  11.709  0.00  0.00    +0.000 C 
ATOM     13  O   UNL     1      45.684   7.857  12.888  0.00  0.00    +0.000 OA
ENDBRANCH   1  13
BRANCH   3  14
ATOM     14  O   UNL     1      43.592   3.526  12.811  0.00  0.00    +0.000 OA
BRANCH  14  15
ATOM     15  C   UNL     1      43.235   3.505  11.421  0.00  0.00    +0.000 C 
BRANCH  15  16
ATOM     16  C   UNL     1      43.909   2.326  10.718  0.00  0.00    +0.000 C 
BRANCH  16  17
ATOM     17  C   UNL     1      44.765   2.806   9.571  0.00  0.00    +0.000 A 
ATOM     18  C   UNL     1      44.878   4.172   9.285  0.00  0.00    +0.000 A 
ATOM     19  C   UNL     1      45.724   4.613   8.268  0.00  0.00    +0.000 A 
ATOM     20  C   UNL     1      46.480   3.698   7.535  0.00  0.00    +0.000 A 
ATOM     21  C   UNL     1      46.398   2.327   7.812  0.00  0.00    +0.000 A 
ATOM     22  C   UNL     1      45.525   1.892   8.826  0.00  0.00    +0.000 A 
BRANCH  21  23
ATOM     23  C   UNL     1      47.226   1.331   7.041  0.00  0.00    +0.000 C 
BRANCH  23  24
ATOM     24  N   UNL     1      48.451   1.934   6.529  0.00  0.00    +0.000 NA
ATOM     25  H   UNL     1      49.093   1.191   6.255  0.00  0.00    +0.000 HD
ATOM     26  H   UNL     1      48.909   2.453   7.275  0.00  0.00    +0.000 HD
ENDBRANCH  23  24
ENDBRANCH  21  23
ENDBRANCH  16  17
ENDBRANCH  15  16
ENDBRANCH  14  15
ENDBRANCH   3  14
TORSDOF 8
ENDMDL
MODEL 2
REMARK VINA RESULT:    -7.014      2.848      6.649
REMARK INTER + INTRA:         -11.171
REMARK INTER:                 -10.187
REMARK INTRA:                  -0.983
REMARK UNBOUND:                -1.081
REMARK  Name = 
REMARK  9 active torsions:
REMARK  status: ('A' for Active; 'I' for Inactive)
REMARK    1  A    between atoms: C_1  and  O_2
REMARK    2  A    between atoms: O_2  and  C_3
REMARK    3  A    between atoms: C_5  and  O_6
REMARK    4  A    between atoms: O_6  and  C_7
REMARK    5  A    between atoms: C_7  and  C_8
REMARK    6  A    between atoms: C_8  and  C_9
REMARK    7  A    between atoms: C_13  and  C_14
REMARK    8  A    between atoms: C_14  and  N_15
REMARK    9  A    between atoms: C_19  and  C_20
REMARK                            x       y       z     vdW  Elec       q    Type
REMARK                         _______ _______ _______ _____ _____    ______ ____
ROOT
ATOM      1  C   UNL     1      46.298   1.650   8.117  0.00  0.00    +0.000 A 
ATOM      2  C   UNL     1      45.343   1.853   9.122  0.00  0.00    +0.000 A 
ATOM      3  C   UNL     1      44.622   3.038   9.129  0.00  0.00    +0.000 A 
ATOM      4  N   UNL     1      44.799   4.015   8.220  0.00  0.00    +0.000 NA
ATOM      5  C   UNL     1      45.733   3.807   7.265  0.00  0.00    +0.000 A 
ATOM      6  C   UNL     1      46.510   2.659   7.164  0.00  0.00    +0.000 A 
ENDROOT
BRANCH   6   7
ATOM      7  C   UNL     1      47.475   2.614   6.032  0.00  0.00    +0.000 C 
ATOM      8  N   UNL     1      48.806   2.544   6.313  0.00  0.00    +0.000 N 
ATOM      9  O   UNL     1      47.094   2.638   4.866  0.00  0.00    +0.000 OA
ATOM     10  H   UNL     1      49.152   2.569   7.265  0.00  0.00    +0.000 HD
ATOM     11  H   UNL     1      49.461   2.531   5.543  0.00  0.00    +0.000 HD
ENDBRANCH   6   7
BRANCH   1  13
ATOM     12  C   UNL     1      46.519  -0.608   7.384  0.00  0.00    +0.000 C 
ATOM     13  O   UNL     1      47.081   0.522   8.044  0.00  0.00    +0.000 OA
ENDBRANCH   1  13
BRANCH   3  14
ATOM     14  O   UNL     1      43.682   3.209  10.132  0.00  0.00    +0.000 OA
BRANCH  14  15
ATOM     15  C   UNL     1      43.394   4.597  10.360  0.00  0.00    +0.000 C 
BRANCH  15  16
ATOM     16  C   UNL     1      43.475   4.918  11.852  0.00  0.00    +0.000 C 
BRANCH  16  17
ATOM     17  C   UNL     1      44.897   5.228  12.256  0.00  0.00    +0.000 A 
ATOM     18  C   UNL     1      45.672   6.126  11.512  0.00  0.00    +0.000 A 
ATOM     19  C   UNL     1      46.960   6.461  11.928  0.00  0.00    +0.000 A 
ATOM     20  C   UNL     1      47.483   5.918  13.103  0.00  0.00    +0.000 A 
ATOM     21  C   UNL     1      46.722   5.031  13.875  0.00  0.00    +0.000 A 
ATOM     22  C   UNL     1      45.433   4.683  13.433  0.00  0.00    +0.000 A 
BRANCH  21  23
ATOM     23  C   UNL     1      47.269   4.454  15.156  0.00  0.00    +0.000 C 
BRANCH  23  24
ATOM     24  N   UNL     1      47.687   3.067  14.982  0.00  0.00    +0.000 NA
ATOM     25  H   UNL     1      48.613   2.951  15.392  0.00  0.00    +0.000 HD
ATOM     26  H   UNL     1      47.781   2.864  13.989  0.00  0.00    +0.000 HD
ENDBRANCH  23  24
ENDBRANCH  21  23
ENDBRANCH  16  17
ENDBRANCH  15  16
ENDBRANCH  14  15
ENDBRANCH   3  14
TORSDOF 8
ENDMDL
MODEL 3
REMARK VINA RESULT:    -6.924      1.246      2.013
REMARK INTER + INTRA:         -11.041
REMARK INTER:                  -9.969
REMARK INTRA:                  -1.072
REMARK UNBOUND:                -1.081
REMARK  Name = 
REMARK  9 active torsions:
REMARK  status: ('A' for Active; 'I' for Inactive)
REMARK    1  A    between atoms: C_1  and  O_2
REMARK    2  A    between atoms: O_2  and  C_3
REMARK    3  A    between atoms: C_5  and  O_6
REMARK    4  A    between atoms: O_6  and  C_7
REMARK    5  A    between atoms: C_7  and  C_8
REMARK    6  A    between atoms: C_8  and  C_9
REMARK    7  A    between atoms: C_13  and  C_14
REMARK    8  A    between atoms: C_14  and  N_15
REMARK    9  A    between atoms: C_19  and  C_20
REMARK                            x       y       z     vdW  Elec       q    Type
REMARK                         _______ _______ _______ _____ _____    ______ ____
ROOT
ATOM      1  C   UNL     1      46.618   5.178  13.670  0.00  0.00    +0.000 A 
ATOM      2  C   UNL     1      45.559   4.326  13.326  0.00  0.00    +0.000 A 
ATOM      3  C   UNL     1      44.527   4.825  12.545  0.00  0.00    +0.000 A 
ATOM      4  N   UNL     1      44.484   6.096  12.103  0.00  0.00    +0.000 NA
ATOM      5  C   UNL     1      45.507   6.906  12.455  0.00  0.00    +0.000 A 
ATOM      6  C   UNL     1      46.590   6.511  13.231  0.00  0.00    +0.000 A 
ENDROOT
BRANCH   6   7
ATOM      7  C   UNL     1      47.623   7.549  13.498  0.00  0.00    +0.000 C 
ATOM      8  N   UNL     1      48.083   7.700  14.771  0.00  0.00    +0.000 N 
ATOM      9  O   UNL     1      48.062   8.259  12.598  0.00  0.00    +0.000 OA
ATOM     10  H   UNL     1      47.706   7.159  15.541  0.00  0.00    +0.000 HD
ATOM     11  H   UNL     1      48.772   8.417  14.953  0.00  0.00    +0.000 HD
ENDBRANCH   6   7
BRANCH   1  13
ATOM     12  C   UNL     1      47.346   4.287  15.758  0.00  0.00    +0.000 C 
ATOM     13  O   UNL     1      47.670   4.784  14.463  0.00  0.00    +0.000 OA
ENDBRANCH   1  13
BRANCH   3  14
ATOM     14  O   UNL     1      43.496   3.960  12.218  0.00  0.00    +0.000 OA
BRANCH  14  15
ATOM     15  C   UNL     1      43.391   3.769  10.800  0.00  0.00    +0.000 C 
BRANCH  15  16
ATOM     16  C   UNL     1      44.204   2.548  10.367  0.00  0.00    +0.000 C 
BRANCH  16  17
ATOM     17  C   UNL     1      45.096   2.888   9.197  0.00  0.00    +0.000 A 
ATOM     18  C   UNL     1      45.359   4.221   8.860  0.00  0.00    +0.000 A 
ATOM     19  C   UNL     1      46.239   4.528   7.823  0.00  0.00    +0.000 A 
ATOM     20  C   UNL     1      46.880   3.507   7.120  0.00  0.00    +0.000 A 
ATOM     21  C   UNL     1      46.648   2.165   7.447  0.00  0.00    +0.000 A 
ATOM     22  C   UNL     1      45.742   1.868   8.482  0.00  0.00    +0.000 A 
BRANCH  21  23
ATOM     23  C   UNL     1      47.350   1.055   6.708  0.00  0.00    +0.000 C 
BRANCH  23  24
ATOM     24  N   UNL     1      48.423   1.569   5.863  0.00  0.00    +0.000 NA
ATOM     25  H   UNL     1      48.845   0.789   5.360  0.00  0.00    +0.000 HD
ATOM     26  H   UNL     1      49.153   1.967   6.450  0.00  0.00    +0.000 HD
ENDBRANCH  23  24
ENDBRANCH  21  23
ENDBRANCH  16  17
ENDBRANCH  15  16
ENDBRANCH  14  15
ENDBRANCH   3  14
TORSDOF 8
ENDMDL
MODEL 4
REMARK VINA RESULT:    -6.639      4.155      7.362
REMARK INTER + INTRA:         -10.631
REMARK INTER:                  -9.853
REMARK INTRA:                  -0.778
REMARK UNBOUND:                -1.081
REMARK  Name = 
REMARK  9 active torsions:
REMARK  status: ('A' for Active; 'I' for Inactive)
REMARK    1  A    between atoms: C_1  and  O_2
REMARK    2  A    between atoms: O_2  and  C_3
REMARK    3  A    between atoms: C_5  and  O_6
REMARK    4  A    between atoms: O_6  and  C_7
REMARK    5  A    between atoms: C_7  and  C_8
REMARK    6  A    between atoms: C_8  and  C_9
REMARK    7  A    between atoms: C_13  and  C_14
REMARK    8  A    between atoms: C_14  and  N_15
REMARK    9  A    between atoms: C_19  and  C_20
REMARK                            x       y       z     vdW  Elec       q    Type
REMARK                         _______ _______ _______ _____ _____    ______ ____
ROOT
ATOM      1  C   UNL     1      45.947   5.708  12.209  0.00  0.00    +0.000 A 
ATOM      2  C   UNL     1      46.826   5.318  13.228  0.00  0.00    +0.000 A 
ATOM      3  C   UNL     1      46.820   3.994  13.645  0.00  0.00    +0.000 A 
ATOM      4  N   UNL     1      46.002   3.060  13.123  0.00  0.00    +0.000 NA
ATOM      5  C   UNL     1      45.153   3.458  12.150  0.00  0.00    +0.000 A 
ATOM      6  C   UNL     1      45.076   4.755  11.658  0.00  0.00    +0.000 A 
ENDROOT
BRANCH   6   7
ATOM      7  C   UNL     1      44.084   4.990  10.573  0.00  0.00    +0.000 C 
ATOM      8  N   UNL     1      43.195   6.013  10.713  0.00  0.00    +0.000 N 
ATOM      9  O   UNL     1      44.058   4.287   9.568  0.00  0.00    +0.000 OA
ATOM     10  H   UNL     1      43.163   6.580  11.552  0.00  0.00    +0.000 HD
ATOM     11  H   UNL     1      42.510   6.160   9.984  0.00  0.00    +0.000 HD
ENDBRANCH   6   7
BRANCH   1  13
ATOM     12  C   UNL     1      45.508   7.999  12.703  0.00  0.00    +0.000 C 
ATOM     13  O   UNL     1      45.859   7.001  11.749  0.00  0.00    +0.000 OA
ENDBRANCH   1  13
BRANCH   3  14
ATOM     14  O   UNL     1      47.702   3.636  14.651  0.00  0.00    +0.000 OA
BRANCH  14  15
ATOM     15  C   UNL     1      47.271   4.120  15.932  0.00  0.00    +0.000 C 
BRANCH  15  16
ATOM     16  C   UNL     1      47.792   3.210  17.045  0.00  0.00    +0.000 C 
BRANCH  16  17
ATOM     17  C   UNL     1      49.273   3.415  17.253  0.00  0.00    +0.000 A 
ATOM     18  C   UNL     1      49.796   4.696  17.468  0.00  0.00    +0.000 A 
ATOM     19  C   UNL     1      51.154   4.870  17.728  0.00  0.00    +0.000 A 
ATOM     20  C   UNL     1      52.006   3.766  17.795  0.00  0.00    +0.000 A 
ATOM     21  C   UNL     1      51.505   2.472  17.600  0.00  0.00    +0.000 A 
ATOM     22  C   UNL     1      50.137   2.310  17.317  0.00  0.00    +0.000 A 
BRANCH  21  23
ATOM     23  C   UNL     1      52.412   1.271  17.690  0.00  0.00    +0.000 C 
BRANCH  23  24
ATOM     24  N   UNL     1      51.701   0.101  18.194  0.00  0.00    +0.000 NA
ATOM     25  H   UNL     1      50.731   0.149  17.885  0.00  0.00    +0.000 HD
ATOM     26  H   UNL     1      51.684   0.129  19.211  0.00  0.00    +0.000 HD
ENDBRANCH  23  24
ENDBRANCH  21  23
ENDBRANCH  16  17
ENDBRANCH  15  16
ENDBRANCH  14  15
ENDBRANCH   3  14
TORSDOF 8
ENDMDL
MODEL 5
REMARK VINA RESULT:    -6.495      1.750      2.577
REMARK INTER + INTRA:         -10.423
REMARK INTER:                  -9.646
REMARK INTRA:                  -0.778
REMARK UNBOUND:                -1.081
REMARK  Name = 
REMARK  9 active torsions:
REMARK  status: ('A' for Active; 'I' for Inactive)
REMARK    1  A    between atoms: C_1  and  O_2
REMARK    2  A    between atoms: O_2  and  C_3
REMARK    3  A    between atoms: C_5  and  O_6
REMARK    4  A    between atoms: O_6  and  C_7
REMARK    5  A    between atoms: C_7  and  C_8
REMARK    6  A    between atoms: C_8  and  C_9
REMARK    7  A    between atoms: C_13  and  C_14
REMARK    8  A    between atoms: C_14  and  N_15
REMARK    9  A    between atoms: C_19  and  C_20
REMARK                            x       y       z     vdW  Elec       q    Type
REMARK                         _______ _______ _______ _____ _____    ______ ____
ROOT
ATOM      1  C   UNL     1      47.394   6.057  13.713  0.00  0.00    +0.000 A 
ATOM      2  C   UNL     1      46.775   6.281  12.476  0.00  0.00    +0.000 A 
ATOM      3  C   UNL     1      45.826   5.373  12.030  0.00  0.00    +0.000 A 
ATOM      4  N   UNL     1      45.471   4.274  12.724  0.00  0.00    +0.000 NA
ATOM      5  C   UNL     1      46.089   4.068  13.908  0.00  0.00    +0.000 A 
ATOM      6  C   UNL     1      47.051   4.912  14.450  0.00  0.00    +0.000 A 
ENDROOT
BRANCH   6   7
ATOM      7  C   UNL     1      47.602   4.518  15.775  0.00  0.00    +0.000 C 
ATOM      8  N   UNL     1      47.529   5.409  16.803  0.00  0.00    +0.000 N 
ATOM      9  O   UNL     1      48.112   3.416  15.952  0.00  0.00    +0.000 OA
ATOM     10  H   UNL     1      47.155   6.342  16.674  0.00  0.00    +0.000 HD
ATOM     11  H   UNL     1      47.920   5.146  17.697  0.00  0.00    +0.000 HD
ENDBRANCH   6   7
BRANCH   1  13
ATOM     12  C   UNL     1      49.343   7.370  13.311  0.00  0.00    +0.000 C 
ATOM     13  O   UNL     1      48.366   6.883  14.226  0.00  0.00    +0.000 OA
ENDBRANCH   1  13
BRANCH   3  14
ATOM     14  O   UNL     1      45.228   5.622  10.806  0.00  0.00    +0.000 OA
BRANCH  14  15
ATOM     15  C   UNL     1      44.371   4.543  10.403  0.00  0.00    +0.000 C 
BRANCH  15  16
ATOM     16  C   UNL     1      44.294   4.468   8.878  0.00  0.00    +0.000 C 
BRANCH  16  17
ATOM     17  C   UNL     1      45.192   3.375   8.350  0.00  0.00    +0.000 A 
ATOM     18  C   UNL     1      45.240   2.123   8.976  0.00  0.00    +0.000 A 
ATOM     19  C   UNL     1      46.018   1.096   8.444  0.00  0.00    +0.000 A 
ATOM     20  C   UNL     1      46.745   1.300   7.271  0.00  0.00    +0.000 A 
ATOM     21  C   UNL     1      46.702   2.537   6.615  0.00  0.00    +0.000 A 
ATOM     22  C   UNL     1      45.930   3.572   7.173  0.00  0.00    +0.000 A 
BRANCH  21  23
ATOM     23  C   UNL     1      47.467   2.762   5.336  0.00  0.00    +0.000 C 
BRANCH  23  24
ATOM     24  N   UNL     1      48.414   1.682   5.081  0.00  0.00    +0.000 NA
ATOM     25  H   UNL     1      48.034   1.080   4.350  0.00  0.00    +0.000 HD
ATOM     26  H   UNL     1      48.501   1.106   5.915  0.00  0.00    +0.000 HD
ENDBRANCH  23  24
ENDBRANCH  21  23
ENDBRANCH  16  17
ENDBRANCH  15  16
ENDBRANCH  14  15
ENDBRANCH   3  14
TORSDOF 8
ENDMDL
MODEL 6
REMARK VINA RESULT:    -5.950      3.801      7.567
REMARK INTER + INTRA:          -9.640
REMARK INTER:                  -9.106
REMARK INTRA:                  -0.534
REMARK UNBOUND:                -1.081
REMARK  Name = 
REMARK  9 active torsions:
REMARK  status: ('A' for Active; 'I' for Inactive)
REMARK    1  A    between atoms: C_1  and  O_2
REMARK    2  A    between atoms: O_2  and  C_3
REMARK    3  A    between atoms: C_5  and  O_6
REMARK    4  A    between atoms: O_6  and  C_7
REMARK    5  A    between atoms: C_7  and  C_8
REMARK    6  A    between atoms: C_8  and  C_9
REMARK    7  A    between atoms: C_13  and  C_14
REMARK    8  A    between atoms: C_14  and  N_15
REMARK    9  A    between atoms: C_19  and  C_20
REMARK                            x       y       z     vdW  Elec       q    Type
REMARK                         _______ _______ _______ _____ _____    ______ ____
ROOT
ATOM      1  C   UNL     1      45.321   5.702  12.670  0.00  0.00    +0.000 A 
ATOM      2  C   UNL     1      46.268   5.237  13.592  0.00  0.00    +0.000 A 
ATOM      3  C   UNL     1      46.510   3.873  13.671  0.00  0.00    +0.000 A 
ATOM      4  N   UNL     1      45.872   2.964  12.909  0.00  0.00    +0.000 NA
ATOM      5  C   UNL     1      44.953   3.430  12.034  0.00  0.00    +0.000 A 
ATOM      6  C   UNL     1      44.633   4.773  11.872  0.00  0.00    +0.000 A 
ENDROOT
BRANCH   6   7
ATOM      7  C   UNL     1      43.602   5.085  10.845  0.00  0.00    +0.000 C 
ATOM      8  N   UNL     1      43.902   4.869   9.534  0.00  0.00    +0.000 N 
ATOM      9  O   UNL     1      42.501   5.526  11.159  0.00  0.00    +0.000 OA
ATOM     10  H   UNL     1      44.818   4.549   9.243  0.00  0.00    +0.000 HD
ATOM     11  H   UNL     1      43.207   5.098   8.836  0.00  0.00    +0.000 HD
ENDBRANCH   6   7
BRANCH   1  13
ATOM     12  C   UNL     1      46.065   7.939  12.320  0.00  0.00    +0.000 C 
ATOM     13  O   UNL     1      44.991   7.030  12.538  0.00  0.00    +0.000 OA
ENDBRANCH   1  13
BRANCH   3  14
ATOM     14  O   UNL     1      47.454   3.443  14.589  0.00  0.00    +0.000 OA
BRANCH  14  15
ATOM     15  C   UNL     1      47.347   4.151  15.833  0.00  0.00    +0.000 C 
BRANCH  15  16
ATOM     16  C   UNL     1      47.581   3.200  17.007  0.00  0.00    +0.000 C 
BRANCH  16  17
ATOM     17  C   UNL     1      49.054   3.099  17.327  0.00  0.00    +0.000 A 
ATOM     18  C   UNL     1      49.774   1.936  17.027  0.00  0.00    +0.000 A 
ATOM     19  C   UNL     1      51.147   1.875  17.262  0.00  0.00    +0.000 A 
ATOM     20  C   UNL     1      51.822   2.981  17.782  0.00  0.00    +0.000 A 
ATOM     21  C   UNL     1      51.128   4.162  18.075  0.00  0.00    +0.000 A 
ATOM     22  C   UNL     1      49.739   4.204  17.855  0.00  0.00    +0.000 A 
BRANCH  21  23
ATOM     23  C   UNL     1      51.850   5.369  18.619  0.00  0.00    +0.000 C 
BRANCH  23  24
ATOM     24  N   UNL     1      51.434   6.591  17.940  0.00  0.00    +0.000 NA
ATOM     25  H   UNL     1      50.441   6.521  17.718  0.00  0.00    +0.000 HD
ATOM     26  H   UNL     1      51.926   6.668  17.052  0.00  0.00    +0.000 HD
ENDBRANCH  23  24
ENDBRANCH  21  23
ENDBRANCH  16  17
ENDBRANCH  15  16
ENDBRANCH  14  15
ENDBRANCH   3  14
TORSDOF 8
ENDMDL
MODEL 7
REMARK VINA RESULT:    -5.731      3.681      7.799
REMARK INTER + INTRA:          -9.324
REMARK INTER:                  -8.584
REMARK INTRA:                  -0.741
REMARK UNBOUND:                -1.081
REMARK  Name = 
REMARK  9 active torsions:
REMARK  status: ('A' for Active; 'I' for Inactive)
REMARK    1  A    between atoms: C_1  and  O_2
REMARK    2  A    between atoms: O_2  and  C_3
REMARK    3  A    between atoms: C_5  and  O_6
REMARK    4  A    between atoms: O_6  and  C_7
REMARK    5  A    between atoms: C_7  and  C_8
REMARK    6  A    between atoms: C_8  and  C_9
REMARK    7  A    between atoms: C_13  and  C_14
REMARK    8  A    between atoms: C_14  and  N_15
REMARK    9  A    between atoms: C_19  and  C_20
REMARK                            x       y       z     vdW  Elec       q    Type
REMARK                         _______ _______ _______ _____ _____    ______ ____
ROOT
ATOM      1  C   UNL     1      45.678   5.882  12.624  0.00  0.00    +0.000 A 
ATOM      2  C   UNL     1      46.626   5.251  13.441  0.00  0.00    +0.000 A 
ATOM      3  C   UNL     1      46.603   3.868  13.545  0.00  0.00    +0.000 A 
ATOM      4  N   UNL     1      45.707   3.094  12.904  0.00  0.00    +0.000 NA
ATOM      5  C   UNL     1      44.792   3.720  12.131  0.00  0.00    +0.000 A 
ATOM      6  C   UNL     1      44.725   5.098  11.955  0.00  0.00    +0.000 A 
ENDROOT
BRANCH   6   7
ATOM      7  C   UNL     1      43.651   5.594  11.051  0.00  0.00    +0.000 C 
ATOM      8  N   UNL     1      43.056   6.785  11.338  0.00  0.00    +0.000 N 
ATOM      9  O   UNL     1      43.303   4.955  10.063  0.00  0.00    +0.000 OA
ATOM     10  H   UNL     1      43.292   7.311  12.171  0.00  0.00    +0.000 HD
ATOM     11  H   UNL     1      42.316   7.112  10.733  0.00  0.00    +0.000 HD
ENDBRANCH   6   7
BRANCH   1  13
ATOM     12  C   UNL     1      46.523   8.025  13.238  0.00  0.00    +0.000 C 
ATOM     13  O   UNL     1      45.602   7.247  12.480  0.00  0.00    +0.000 OA
ENDBRANCH   1  13
BRANCH   3  14
ATOM     14  O   UNL     1      47.555   3.272  14.356  0.00  0.00    +0.000 OA
BRANCH  14  15
ATOM     15  C   UNL     1      47.360   3.607  15.738  0.00  0.00    +0.000 C 
BRANCH  15  16
ATOM     16  C   UNL     1      48.311   2.797  16.619  0.00  0.00    +0.000 C 
BRANCH  16  17
ATOM     17  C   UNL     1      49.111   3.708  17.520  0.00  0.00    +0.000 A 
ATOM     18  C   UNL     1      50.469   3.467  17.760  0.00  0.00    +0.000 A 
ATOM     19  C   UNL     1      51.217   4.350  18.536  0.00  0.00    +0.000 A 
ATOM     20  C   UNL     1      50.624   5.496  19.069  0.00  0.00    +0.000 A 
ATOM     21  C   UNL     1      49.271   5.770  18.830  0.00  0.00    +0.000 A 
ATOM     22  C   UNL     1      48.521   4.860  18.063  0.00  0.00    +0.000 A 
BRANCH  21  23
ATOM     23  C   UNL     1      48.625   7.015  19.383  0.00  0.00    +0.000 C 
BRANCH  23  24
ATOM     24  N   UNL     1      47.373   7.317  18.698  0.00  0.00    +0.000 NA
ATOM     25  H   UNL     1      46.950   8.135  19.135  0.00  0.00    +0.000 HD
ATOM     26  H   UNL     1      46.721   6.547  18.831  0.00  0.00    +0.000 HD
ENDBRANCH  23  24
ENDBRANCH  21  23
ENDBRANCH  16  17
ENDBRANCH  15  16
ENDBRANCH  14  15
ENDBRANCH   3  14
TORSDOF 8
ENDMDL
MODEL 8
REMARK VINA RESULT:    -5.641      2.810      4.739
REMARK INTER + INTRA:          -9.196
REMARK INTER:                  -8.321
REMARK INTRA:                  -0.874
REMARK UNBOUND:                -1.081
REMARK  Name = 
REMARK  9 active torsions:
REMARK  status: ('A' for Active; 'I' for Inactive)
REMARK    1  A    between atoms: C_1  and  O_2
REMARK    2  A    between atoms: O_2  and  C_3
REMARK    3  A    between atoms: C_5  and  O_6
REMARK    4  A    between atoms: O_6  and  C_7
REMARK    5  A    between atoms: C_7  and  C_8
REMARK    6  A    between atoms: C_8  and  C_9
REMARK    7  A    between atoms: C_13  and  C_14
REMARK    8  A    between atoms: C_14  and  N_15
REMARK    9  A    between atoms: C_19  and  C_20
REMARK                            x       y       z     vdW  Elec       q    Type
REMARK                         _______ _______ _______ _____ _____    ______ ____
ROOT
ATOM      1  C   UNL     1      48.502   5.606  16.291  0.00  0.00    +0.000 A 
ATOM      2  C   UNL     1      48.473   6.479  15.195  0.00  0.00    +0.000 A 
ATOM      3  C   UNL     1      47.673   6.159  14.107  0.00  0.00    +0.000 A 
ATOM      4  N   UNL     1      46.924   5.042  14.044  0.00  0.00    +0.000 NA
ATOM      5  C   UNL     1      46.975   4.205  15.105  0.00  0.00    +0.000 A 
ATOM      6  C   UNL     1      47.740   4.428  16.244  0.00  0.00    +0.000 A 
ENDROOT
BRANCH   6   7
ATOM      7  C   UNL     1      47.649   3.393  17.311  0.00  0.00    +0.000 C 
ATOM      8  N   UNL     1      48.763   3.112  18.043  0.00  0.00    +0.000 N 
ATOM      9  O   UNL     1      46.599   2.801  17.538  0.00  0.00    +0.000 OA
ATOM     10  H   UNL     1      49.654   3.553  17.847  0.00  0.00    +0.000 HD
ATOM     11  H   UNL     1      48.704   2.397  18.755  0.00  0.00    +0.000 HD
ENDBRANCH   6   7
BRANCH   1  13
ATOM     12  C   UNL     1      50.688   5.931  17.184  0.00  0.00    +0.000 C 
ATOM     13  O   UNL     1      49.284   5.822  17.400  0.00  0.00    +0.000 OA
ENDBRANCH   1  13
BRANCH   3  14
ATOM     14  O   UNL     1      47.661   7.042  13.040  0.00  0.00    +0.000 OA
BRANCH  14  15
ATOM     15  C   UNL     1      46.376   7.660  12.876  0.00  0.00    +0.000 C 
BRANCH  15  16
ATOM     16  C   UNL     1      45.857   7.435  11.455  0.00  0.00    +0.000 C 
BRANCH  16  17
ATOM     17  C   UNL     1      45.014   6.184  11.385  0.00  0.00    +0.000 A 
ATOM     18  C   UNL     1      43.990   5.958  12.313  0.00  0.00    +0.000 A 
ATOM     19  C   UNL     1      43.171   4.836  12.202  0.00  0.00    +0.000 A 
ATOM     20  C   UNL     1      43.353   3.933  11.153  0.00  0.00    +0.000 A 
ATOM     21  C   UNL     1      44.359   4.145  10.202  0.00  0.00    +0.000 A 
ATOM     22  C   UNL     1      45.193   5.269  10.337  0.00  0.00    +0.000 A 
BRANCH  21  23
ATOM     23  C   UNL     1      44.552   3.187   9.053  0.00  0.00    +0.000 C 
BRANCH  23  24
ATOM     24  N   UNL     1      44.617   1.805   9.513  0.00  0.00    +0.000 NA
ATOM     25  H   UNL     1      43.716   1.553   9.919  0.00  0.00    +0.000 HD
ATOM     26  H   UNL     1      45.303   1.730  10.262  0.00  0.00    +0.000 HD
ENDBRANCH  23  24
ENDBRANCH  21  23
ENDBRANCH  16  17
ENDBRANCH  15  16
ENDBRANCH  14  15
ENDBRANCH   3  14
TORSDOF 8
ENDMDL
MODEL 9
REMARK VINA RESULT:    -5.524      3.589      8.039
REMARK INTER + INTRA:          -9.028
REMARK INTER:                  -8.209
REMARK INTRA:                  -0.819
REMARK UNBOUND:                -1.081
REMARK  Name = 
REMARK  9 active torsions:
REMARK  status: ('A' for Active; 'I' for Inactive)
REMARK    1  A    between atoms: C_1  and  O_2
REMARK    2  A    between atoms: O_2  and  C_3
REMARK    3  A    between atoms: C_5  and  O_6
REMARK    4  A    between atoms: O_6  and  C_7
REMARK    5  A    between atoms: C_7  and  C_8
REMARK    6  A    between atoms: C_8  and  C_9
REMARK    7  A    between atoms: C_13  and  C_14
REMARK    8  A    between atoms: C_14  and  N_15
REMARK    9  A    between atoms: C_19  and  C_20
REMARK                            x       y       z     vdW  Elec       q    Type
REMARK                         _______ _______ _______ _____ _____    ______ ____
ROOT
ATOM      1  C   UNL     1      45.185   5.701  12.378  0.00  0.00    +0.000 A 
ATOM      2  C   UNL     1      46.150   5.904  13.374  0.00  0.00    +0.000 A 
ATOM      3  C   UNL     1      46.794   4.800  13.914  0.00  0.00    +0.000 A 
ATOM      4  N   UNL     1      46.533   3.534  13.535  0.00  0.00    +0.000 NA
ATOM      5  C   UNL     1      45.590   3.358  12.583  0.00  0.00    +0.000 A 
ATOM      6  C   UNL     1      44.886   4.390  11.975  0.00  0.00    +0.000 A 
ENDROOT
BRANCH   6   7
ATOM      7  C   UNL     1      43.897   3.991  10.936  0.00  0.00    +0.000 C 
ATOM      8  N   UNL     1      43.870   4.681   9.762  0.00  0.00    +0.000 N 
ATOM      9  O   UNL     1      43.120   3.059  11.119  0.00  0.00    +0.000 OA
ATOM     10  H   UNL     1      44.469   5.482   9.601  0.00  0.00    +0.000 HD
ATOM     11  H   UNL     1      43.187   4.420   9.065  0.00  0.00    +0.000 HD
ENDBRANCH   6   7
BRANCH   1  13
ATOM     12  C   UNL     1      45.112   8.000  11.750  0.00  0.00    +0.000 C 
ATOM     13  O   UNL     1      44.473   6.728  11.804  0.00  0.00    +0.000 OA
ENDBRANCH   1  13
BRANCH   3  14
ATOM     14  O   UNL     1      47.745   5.030  14.894  0.00  0.00    +0.000 OA
BRANCH  14  15
ATOM     15  C   UNL     1      48.244   6.375  14.845  0.00  0.00    +0.000 C 
BRANCH  15  16
ATOM     16  C   UNL     1      49.416   6.542  15.812  0.00  0.00    +0.000 C 
BRANCH  16  17
ATOM     17  C   UNL     1      48.920   6.729  17.226  0.00  0.00    +0.000 A 
ATOM     18  C   UNL     1      48.269   7.908  17.606  0.00  0.00    +0.000 A 
ATOM     19  C   UNL     1      47.752   8.046  18.894  0.00  0.00    +0.000 A 
ATOM     20  C   UNL     1      47.864   7.002  19.813  0.00  0.00    +0.000 A 
ATOM     21  C   UNL     1      48.496   5.805  19.452  0.00  0.00    +0.000 A 
ATOM     22  C   UNL     1      49.033   5.685  18.158  0.00  0.00    +0.000 A 
BRANCH  21  23
ATOM     23  C   UNL     1      48.605   4.662  20.430  0.00  0.00    +0.000 C 
BRANCH  23  24
ATOM     24  N   UNL     1      48.419   3.374  19.771  0.00  0.00    +0.000 NA
ATOM     25  H   UNL     1      49.322   3.052  19.423  0.00  0.00    +0.000 HD
ATOM     26  H   UNL     1      47.820   3.495  18.957  0.00  0.00    +0.000 HD
ENDBRANCH  23  24
ENDBRANCH  21  23
ENDBRANCH  16  17
ENDBRANCH  15  16
ENDBRANCH  14  15
ENDBRANCH   3  14
TORSDOF 8
ENDMDL
