MODEL 1
REMARK VINA RESULT:    -8.439      0.000      0.000
REMARK INTER + INTRA:         -13.310
REMARK INTER:                 -11.892
REMARK INTRA:                  -1.418
REMARK UNBOUND:                -1.418
REMARK  Name = 
REMARK  7 active torsions:
REMARK  status: ('A' for Active; 'I' for Inactive)
REMARK    1  A    between atoms: C_2  and  C_4
REMARK    2  A    between atoms: C_4  and  N_5
REMARK    3  A    between atoms: C_4  and  C_18
REMARK    4  A    between atoms: C_6  and  C_8
REMARK    5  A    between atoms: C_21  and  C_22
REMARK    6  A    between atoms: C_22  and  N_23
REMARK    7  A    between atoms: C_24  and  C_26
REMARK                            x       y       z     vdW  Elec       q    Type
REMARK                         _______ _______ _______ _____ _____    ______ ____
ROOT
ATOM      1  C   UNL     1      48.252   6.697  14.149  0.00  0.00    +0.000 C 
ENDROOT
BRANCH   1   2
ATOM      2  C   UNL     1      47.209   5.926  13.344  0.00  0.00    +0.000 A 
ATOM      3  C   UNL     1      46.632   6.496  12.198  0.00  0.00    +0.000 A 
ATOM      4  C   UNL     1      45.726   5.772  11.407  0.00  0.00    +0.000 A 
ATOM      5  C   UNL     1      45.360   4.463  11.749  0.00  0.00    +0.000 A 
ATOM      6  C   UNL     1      45.916   3.900  12.904  0.00  0.00    +0.000 A 
ATOM      7  C   UNL     1      46.822   4.622  13.691  0.00  0.00    +0.000 A 
BRANCH   5   8
ATOM      8  C   UNL     1      44.393   3.668  10.901  0.00  0.00    +0.000 C 
BRANCH   8   9
ATOM      9  N   UNL     1      45.068   2.928   9.852  0.00  0.00    +0.000 N 
ATOM     10  C   UNL     1      45.338   3.520   8.633  0.00  0.00    +0.000 C 
ATOM     11  O   UNL     1      45.031   4.669   8.354  0.00  0.00    +0.000 OA
ATOM     12  H   UNL     1      45.545   2.077  10.115  0.00  0.00    +0.000 HD
BRANCH  10  13
ATOM     13  C   UNL     1      46.070   2.680   7.650  0.00  0.00    +0.000 A 
ATOM     14  C   UNL     1      46.465   3.158   6.399  0.00  0.00    +0.000 A 
ATOM     15  C   UNL     1      47.146   2.310   5.526  0.00  0.00    +0.000 A 
ATOM     16  C   UNL     1      47.413   1.014   5.939  0.00  0.00    +0.000 A 
ATOM     17  N   UNL     1      47.060   0.527   7.147  0.00  0.00    +0.000 NA
ATOM     18  C   UNL     1      46.405   1.374   7.983  0.00  0.00    +0.000 A 
ENDBRANCH  10  13
ENDBRANCH   8   9
ENDBRANCH   5   8
ENDBRANCH   1   2
BRANCH   1  20
ATOM     19  N   UNL     1      47.263   8.883  14.758  0.00  0.00    +0.000 N 
ATOM     20  C   UNL     1      48.169   8.236  13.956  0.00  0.00    +0.000 C 
ATOM     21  O   UNL     1      48.775   8.877  13.099  0.00  0.00    +0.000 OA
ATOM     22  H   UNL     1      47.104   9.862  14.554  0.00  0.00    +0.000 HD
ATOM     23  H   UNL     1      46.508   8.364  15.198  0.00  0.00    +0.000 HD
ENDBRANCH   1  20
BRANCH   1  24
ATOM     24  N   UNL     1      48.126   6.403  15.576  0.00  0.00    +0.000 N 
ATOM     25  C   UNL     1      49.204   6.161  16.383  0.00  0.00    +0.000 C 
ATOM     26  O   UNL     1      50.352   6.170  15.945  0.00  0.00    +0.000 OA
ATOM     27  H   UNL     1      47.189   6.377  15.958  0.00  0.00    +0.000 HD
BRANCH  25  28
ATOM     28  C   UNL     1      48.927   5.950  17.815  0.00  0.00    +0.000 A 
ATOM     29  C   UNL     1      49.192   4.721  18.401  0.00  0.00    +0.000 A 
ATOM     30  S   UNL     1      48.792   4.649  20.060  0.00  0.00    +0.000 S 
ATOM     31  C   UNL     1      48.209   6.250  20.045  0.00  0.00    +0.000 A 
ATOM     32  N   UNL     1      47.665   6.805  21.156  0.00  0.00    +0.000 NA
ATOM     33  C   UNL     1      47.243   8.019  20.998  0.00  0.00    +0.000 A 
ATOM     34  N   UNL     1      47.336   8.723  19.830  0.00  0.00    +0.000 N 
ATOM     35  C   UNL     1      47.929   8.221  18.695  0.00  0.00    +0.000 A 
ATOM     36  O   UNL     1      48.086   8.917  17.700  0.00  0.00    +0.000 OA
ATOM     37  C   UNL     1      48.368   6.843  18.804  0.00  0.00    +0.000 A 
ATOM     38  H   UNL     1      47.028   9.687  19.781  0.00  0.00    +0.000 HD
ENDBRANCH  25  28
ENDBRANCH   1  24
TORSDOF 7
ENDMDL
MODEL 2
REMARK VINA RESULT:    -8.093      2.667      4.122
REMARK INTER + INTRA:         -12.822
REMARK INTER:                 -11.580
REMARK INTRA:                  -1.242
REMARK UNBOUND:                -1.418
REMARK  Name = 
REMARK  7 active torsions:
REMARK  status: ('A' for Active; 'I' for Inactive)
REMARK    1  A    between atoms: C_2  and  C_4
REMARK    2  A    between atoms: C_4  and  N_5
REMARK    3  A    between atoms: C_4  and  C_18
REMARK    4  A    between atoms: C_6  and  C_8
REMARK    5  A    between atoms: C_21  and  C_22
REMARK    6  A    between atoms: C_22  and  N_23
REMARK    7  A    between atoms: C_24  and  C_26
REMARK                            x       y       z     vdW  Elec       q    Type
REMARK                         _______ _______ _______ _____ _____    ______ ____
ROOT
ATOM      1  C   UNL     1      47.033   5.045  14.923  0.00  0.00    +0.000 C 
ENDROOT
BRANCH   1   2
ATOM      2  C   UNL     1      46.305   4.872  13.592  0.00  0.00    +0.000 A 
ATOM      3  C   UNL     1      45.767   3.626  13.233  0.00  0.00    +0.000 A 
ATOM      4  C   UNL     1      45.032   3.469  12.047  0.00  0.00    +0.000 A 
ATOM      5  C   UNL     1      44.828   4.550  11.180  0.00  0.00    +0.000 A 
ATOM      6  C   UNL     1      45.383   5.788  11.524  0.00  0.00    +0.000 A 
ATOM      7  C   UNL     1      46.113   5.945  12.708  0.00  0.00    +0.000 A 
BRANCH   5   8
ATOM      8  C   UNL     1      44.031   4.398   9.904  0.00  0.00    +0.000 C 
BRANCH   8   9
ATOM      9  N   UNL     1      44.673   3.499   8.964  0.00  0.00    +0.000 N 
ATOM     10  C   UNL     1      45.712   3.937   8.166  0.00  0.00    +0.000 C 
ATOM     11  O   UNL     1      46.148   5.078   8.185  0.00  0.00    +0.000 OA
ATOM     12  H   UNL     1      44.513   2.508   9.083  0.00  0.00    +0.000 HD
BRANCH  10  13
ATOM     13  C   UNL     1      46.319   2.919   7.271  0.00  0.00    +0.000 A 
ATOM     14  C   UNL     1      46.662   3.189   5.945  0.00  0.00    +0.000 A 
ATOM     15  C   UNL     1      47.225   2.181   5.163  0.00  0.00    +0.000 A 
ATOM     16  C   UNL     1      47.432   0.938   5.738  0.00  0.00    +0.000 A 
ATOM     17  N   UNL     1      47.129   0.648   7.022  0.00  0.00    +0.000 NA
ATOM     18  C   UNL     1      46.589   1.649   7.766  0.00  0.00    +0.000 A 
ENDBRANCH  10  13
ENDBRANCH   8   9
ENDBRANCH   5   8
ENDBRANCH   1   2
BRANCH   1  20
ATOM     19  N   UNL     1      46.923   3.550  16.891  0.00  0.00    +0.000 N 
ATOM     20  C   UNL     1      47.392   3.700  15.611  0.00  0.00    +0.000 C 
ATOM     21  O   UNL     1      48.120   2.831  15.134  0.00  0.00    +0.000 OA
ATOM     22  H   UNL     1      47.256   2.739  17.398  0.00  0.00    +0.000 HD
ATOM     23  H   UNL     1      46.646   4.364  17.433  0.00  0.00    +0.000 HD
ENDBRANCH   1  20
BRANCH   1  24
ATOM     24  N   UNL     1      48.262   5.816  14.743  0.00  0.00    +0.000 N 
ATOM     25  C   UNL     1      48.904   6.444  15.776  0.00  0.00    +0.000 C 
ATOM     26  O   UNL     1      48.470   6.401  16.926  0.00  0.00    +0.000 OA
ATOM     27  H   UNL     1      48.632   5.878  13.803  0.00  0.00    +0.000 HD
BRANCH  25  28
ATOM     28  C   UNL     1      50.171   7.123  15.456  0.00  0.00    +0.000 A 
ATOM     29  C   UNL     1      51.328   6.801  16.151  0.00  0.00    +0.000 A 
ATOM     30  S   UNL     1      52.697   7.699  15.664  0.00  0.00    +0.000 S 
ATOM     31  C   UNL     1      51.781   8.584  14.532  0.00  0.00    +0.000 A 
ATOM     32  N   UNL     1      52.348   9.574  13.798  0.00  0.00    +0.000 NA
ATOM     33  C   UNL     1      51.532  10.178  12.994  0.00  0.00    +0.000 A 
ATOM     34  N   UNL     1      50.209   9.864  12.854  0.00  0.00    +0.000 N 
ATOM     35  C   UNL     1      49.605   8.834  13.538  0.00  0.00    +0.000 A 
ATOM     36  O   UNL     1      48.445   8.517  13.311  0.00  0.00    +0.000 OA
ATOM     37  C   UNL     1      50.463   8.161  14.494  0.00  0.00    +0.000 A 
ATOM     38  H   UNL     1      49.632  10.345  12.175  0.00  0.00    +0.000 HD
ENDBRANCH  25  28
ENDBRANCH   1  24
TORSDOF 7
ENDMDL
MODEL 3
REMARK VINA RESULT:    -7.576      2.953      4.244
REMARK INTER + INTRA:         -12.093
REMARK INTER:                 -11.132
REMARK INTRA:                  -0.961
REMARK UNBOUND:                -1.418
REMARK  Name = 
REMARK  7 active torsions:
REMARK  status: ('A' for Active; 'I' for Inactive)
REMARK    1  A    between atoms: C_2  and  C_4
REMARK    2  A    between atoms: C_4  and  N_5
REMARK    3  A    between atoms: C_4  and  C_18
REMARK    4  A    between atoms: C_6  and  C_8
REMARK    5  A    between atoms: C_21  and  C_22
REMARK    6  A    between atoms: C_22  and  N_23
REMARK    7  A    between atoms: C_24  and  C_26
REMARK                            x       y       z     vdW  Elec       q    Type
REMARK                         _______ _______ _______ _____ _____    ______ ____
ROOT
ATOM      1  C   UNL     1      47.153   5.554  14.847  0.00  0.00    +0.000 C 
ENDROOT
BRANCH   1   2
ATOM      2  C   UNL     1      46.359   5.233  13.583  0.00  0.00    +0.000 A 
ATOM      3  C   UNL     1      46.102   3.899  13.225  0.00  0.00    +0.000 A 
ATOM      4  C   UNL     1      45.313   3.590  12.106  0.00  0.00    +0.000 A 
ATOM      5  C   UNL     1      44.772   4.605  11.305  0.00  0.00    +0.000 A 
ATOM      6  C   UNL     1      45.045   5.934  11.646  0.00  0.00    +0.000 A 
ATOM      7  C   UNL     1      45.831   6.243  12.765  0.00  0.00    +0.000 A 
BRANCH   5   8
ATOM      8  C   UNL     1      43.912   4.286  10.103  0.00  0.00    +0.000 C 
BRANCH   8   9
ATOM      9  N   UNL     1      44.592   3.417   9.161  0.00  0.00    +0.000 N 
ATOM     10  C   UNL     1      45.576   3.914   8.327  0.00  0.00    +0.000 C 
ATOM     11  O   UNL     1      45.929   5.083   8.315  0.00  0.00    +0.000 OA
ATOM     12  H   UNL     1      44.507   2.420   9.302  0.00  0.00    +0.000 HD
BRANCH  10  13
ATOM     13  C   UNL     1      46.231   2.924   7.434  0.00  0.00    +0.000 A 
ATOM     14  C   UNL     1      46.634   3.234   6.133  0.00  0.00    +0.000 A 
ATOM     15  C   UNL     1      47.241   2.251   5.351  0.00  0.00    +0.000 A 
ATOM     16  C   UNL     1      47.428   0.992   5.900  0.00  0.00    +0.000 A 
ATOM     17  N   UNL     1      47.065   0.665   7.159  0.00  0.00    +0.000 NA
ATOM     18  C   UNL     1      46.484   1.641   7.904  0.00  0.00    +0.000 A 
ENDBRANCH  10  13
ENDBRANCH   8   9
ENDBRANCH   5   8
ENDBRANCH   1   2
BRANCH   1  20
ATOM     19  N   UNL     1      46.954   4.450  17.053  0.00  0.00    +0.000 N 
ATOM     20  C   UNL     1      47.390   4.319  15.759  0.00  0.00    +0.000 C 
ATOM     21  O   UNL     1      48.003   3.304  15.433  0.00  0.00    +0.000 OA
ATOM     22  H   UNL     1      47.216   3.709  17.691  0.00  0.00    +0.000 HD
ATOM     23  H   UNL     1      46.785   5.372  17.445  0.00  0.00    +0.000 HD
ENDBRANCH   1  20
BRANCH   1  24
ATOM     24  N   UNL     1      48.450   6.136  14.510  0.00  0.00    +0.000 N 
ATOM     25  C   UNL     1      48.692   7.483  14.540  0.00  0.00    +0.000 C 
ATOM     26  O   UNL     1      47.815   8.288  14.848  0.00  0.00    +0.000 OA
ATOM     27  H   UNL     1      49.185   5.494  14.239  0.00  0.00    +0.000 HD
BRANCH  25  28
ATOM     28  C   UNL     1      50.068   7.918  14.244  0.00  0.00    +0.000 A 
ATOM     29  C   UNL     1      50.319   8.743  13.158  0.00  0.00    +0.000 A 
ATOM     30  S   UNL     1      51.970   9.131  12.954  0.00  0.00    +0.000 S 
ATOM     31  C   UNL     1      52.416   8.171  14.290  0.00  0.00    +0.000 A 
ATOM     32  N   UNL     1      53.718   8.022  14.637  0.00  0.00    +0.000 NA
ATOM     33  C   UNL     1      53.915   7.249  15.657  0.00  0.00    +0.000 A 
ATOM     34  N   UNL     1      52.921   6.630  16.362  0.00  0.00    +0.000 N 
ATOM     35  C   UNL     1      51.585   6.795  16.078  0.00  0.00    +0.000 A 
ATOM     36  O   UNL     1      50.720   6.307  16.795  0.00  0.00    +0.000 OA
ATOM     37  C   UNL     1      51.313   7.608  14.909  0.00  0.00    +0.000 A 
ATOM     38  H   UNL     1      53.136   6.071  17.179  0.00  0.00    +0.000 HD
ENDBRANCH  25  28
ENDBRANCH   1  24
TORSDOF 7
ENDMDL
MODEL 4
REMARK VINA RESULT:    -7.295      2.844      4.057
REMARK INTER + INTRA:         -11.698
REMARK INTER:                 -10.420
REMARK INTRA:                  -1.278
REMARK UNBOUND:                -1.418
REMARK  Name = 
REMARK  7 active torsions:
REMARK  status: ('A' for Active; 'I' for Inactive)
REMARK    1  A    between atoms: C_2  and  C_4
REMARK    2  A    between atoms: C_4  and  N_5
REMARK    3  A    between atoms: C_4  and  C_18
REMARK    4  A    between atoms: C_6  and  C_8
REMARK    5  A    between atoms: C_21  and  C_22
REMARK    6  A    between atoms: C_22  and  N_23
REMARK    7  A    between atoms: C_24  and  C_26
REMARK                            x       y       z     vdW  Elec       q    Type
REMARK                         _______ _______ _______ _____ _____    ______ ____
ROOT
ATOM      1  C   UNL     1      47.250   5.132  15.337  0.00  0.00    +0.000 C 
ENDROOT
BRANCH   1   2
ATOM      2  C   UNL     1      46.599   5.285  13.965  0.00  0.00    +0.000 A 
ATOM      3  C   UNL     1      47.163   6.135  13.001  0.00  0.00    +0.000 A 
ATOM      4  C   UNL     1      46.617   6.231  11.711  0.00  0.00    +0.000 A 
ATOM      5  C   UNL     1      45.482   5.490  11.355  0.00  0.00    +0.000 A 
ATOM      6  C   UNL     1      44.904   4.658  12.321  0.00  0.00    +0.000 A 
ATOM      7  C   UNL     1      45.451   4.561  13.607  0.00  0.00    +0.000 A 
BRANCH   5   8
ATOM      8  C   UNL     1      44.889   5.576   9.967  0.00  0.00    +0.000 C 
BRANCH   8   9
ATOM      9  N   UNL     1      45.622   4.771   9.009  0.00  0.00    +0.000 N 
ATOM     10  C   UNL     1      45.237   3.472   8.739  0.00  0.00    +0.000 C 
ATOM     11  O   UNL     1      44.288   2.919   9.274  0.00  0.00    +0.000 OA
ATOM     12  H   UNL     1      46.248   5.252   8.378  0.00  0.00    +0.000 HD
BRANCH  10  13
ATOM     13  C   UNL     1      46.036   2.758   7.709  0.00  0.00    +0.000 A 
ATOM     14  C   UNL     1      46.514   1.459   7.894  0.00  0.00    +0.000 A 
ATOM     15  C   UNL     1      47.261   0.853   6.885  0.00  0.00    +0.000 A 
ATOM     16  C   UNL     1      47.500   1.567   5.721  0.00  0.00    +0.000 A 
ATOM     17  N   UNL     1      47.038   2.817   5.504  0.00  0.00    +0.000 NA
ATOM     18  C   UNL     1      46.306   3.383   6.499  0.00  0.00    +0.000 A 
ENDBRANCH  10  13
ENDBRANCH   8   9
ENDBRANCH   5   8
ENDBRANCH   1   2
BRANCH   1  20
ATOM     19  N   UNL     1      46.918   3.405  17.079  0.00  0.00    +0.000 N 
ATOM     20  C   UNL     1      47.366   3.655  15.806  0.00  0.00    +0.000 C 
ATOM     21  O   UNL     1      47.896   2.747  15.168  0.00  0.00    +0.000 OA
ATOM     22  H   UNL     1      47.104   2.480  17.445  0.00  0.00    +0.000 HD
ATOM     23  H   UNL     1      46.821   4.165  17.745  0.00  0.00    +0.000 HD
ENDBRANCH   1  20
BRANCH   1  24
ATOM     24  N   UNL     1      48.587   5.725  15.345  0.00  0.00    +0.000 N 
ATOM     25  C   UNL     1      49.182   6.201  16.480  0.00  0.00    +0.000 C 
ATOM     26  O   UNL     1      48.615   6.164  17.570  0.00  0.00    +0.000 OA
ATOM     27  H   UNL     1      49.069   5.780  14.456  0.00  0.00    +0.000 HD
BRANCH  25  28
ATOM     28  C   UNL     1      50.560   6.706  16.347  0.00  0.00    +0.000 A 
ATOM     29  C   UNL     1      50.800   7.914  15.709  0.00  0.00    +0.000 A 
ATOM     30  S   UNL     1      52.454   8.333  15.627  0.00  0.00    +0.000 S 
ATOM     31  C   UNL     1      52.914   6.889  16.404  0.00  0.00    +0.000 A 
ATOM     32  N   UNL     1      54.222   6.591  16.604  0.00  0.00    +0.000 NA
ATOM     33  C   UNL     1      54.429   5.453  17.186  0.00  0.00    +0.000 A 
ATOM     34  N   UNL     1      53.441   4.603  17.596  0.00  0.00    +0.000 N 
ATOM     35  C   UNL     1      52.101   4.888  17.463  0.00  0.00    +0.000 A 
ATOM     36  O   UNL     1      51.246   4.150  17.935  0.00  0.00    +0.000 OA
ATOM     37  C   UNL     1      51.816   6.127  16.766  0.00  0.00    +0.000 A 
ATOM     38  H   UNL     1      53.666   3.746  18.087  0.00  0.00    +0.000 HD
ENDBRANCH  25  28
ENDBRANCH   1  24
TORSDOF 7
ENDMDL
MODEL 5
REMARK VINA RESULT:    -7.133      1.808      2.347
REMARK INTER + INTRA:         -11.470
REMARK INTER:                 -10.394
REMARK INTRA:                  -1.076
REMARK UNBOUND:                -1.418
REMARK  Name = 
REMARK  7 active torsions:
REMARK  status: ('A' for Active; 'I' for Inactive)
REMARK    1  A    between atoms: C_2  and  C_4
REMARK    2  A    between atoms: C_4  and  N_5
REMARK    3  A    between atoms: C_4  and  C_18
REMARK    4  A    between atoms: C_6  and  C_8
REMARK    5  A    between atoms: C_21  and  C_22
REMARK    6  A    between atoms: C_22  and  N_23
REMARK    7  A    between atoms: C_24  and  C_26
REMARK                            x       y       z     vdW  Elec       q    Type
REMARK                         _______ _______ _______ _____ _____    ______ ____
ROOT
ATOM      1  C   UNL     1      48.070   8.489  13.894  0.00  0.00    +0.000 C 
ENDROOT
BRANCH   1   2
ATOM      2  C   UNL     1      47.111   7.420  13.374  0.00  0.00    +0.000 A 
ATOM      3  C   UNL     1      45.848   7.779  12.877  0.00  0.00    +0.000 A 
ATOM      4  C   UNL     1      44.985   6.817  12.330  0.00  0.00    +0.000 A 
ATOM      5  C   UNL     1      45.355   5.466  12.278  0.00  0.00    +0.000 A 
ATOM      6  C   UNL     1      46.605   5.102  12.793  0.00  0.00    +0.000 A 
ATOM      7  C   UNL     1      47.467   6.063  13.337  0.00  0.00    +0.000 A 
BRANCH   5   8
ATOM      8  C   UNL     1      44.440   4.420  11.683  0.00  0.00    +0.000 C 
BRANCH   8   9
ATOM      9  N   UNL     1      45.113   3.609  10.686  0.00  0.00    +0.000 N 
ATOM     10  C   UNL     1      44.828   3.763   9.343  0.00  0.00    +0.000 C 
ATOM     11  O   UNL     1      44.010   4.559   8.909  0.00  0.00    +0.000 OA
ATOM     12  H   UNL     1      45.951   3.122  10.971  0.00  0.00    +0.000 HD
BRANCH  10  13
ATOM     13  C   UNL     1      45.609   2.908   8.411  0.00  0.00    +0.000 A 
ATOM     14  C   UNL     1      46.199   3.406   7.248  0.00  0.00    +0.000 A 
ATOM     15  C   UNL     1      46.914   2.543   6.418  0.00  0.00    +0.000 A 
ATOM     16  C   UNL     1      47.019   1.211   6.785  0.00  0.00    +0.000 A 
ATOM     17  N   UNL     1      46.475   0.701   7.911  0.00  0.00    +0.000 NA
ATOM     18  C   UNL     1      45.790   1.563   8.707  0.00  0.00    +0.000 A 
ENDBRANCH  10  13
ENDBRANCH   8   9
ENDBRANCH   5   8
ENDBRANCH   1   2
BRANCH   1  20
ATOM     19  N   UNL     1      47.925  10.944  13.622  0.00  0.00    +0.000 N 
ATOM     20  C   UNL     1      48.143   9.748  12.987  0.00  0.00    +0.000 C 
ATOM     21  O   UNL     1      48.288   9.735  11.766  0.00  0.00    +0.000 OA
ATOM     22  H   UNL     1      47.841  11.758  13.026  0.00  0.00    +0.000 HD
ATOM     23  H   UNL     1      47.454  10.967  14.521  0.00  0.00    +0.000 HD
ENDBRANCH   1  20
BRANCH   1  24
ATOM     24  N   UNL     1      47.693   8.911  15.242  0.00  0.00    +0.000 N 
ATOM     25  C   UNL     1      48.469   8.666  16.342  0.00  0.00    +0.000 C 
ATOM     26  O   UNL     1      49.536   8.061  16.256  0.00  0.00    +0.000 OA
ATOM     27  H   UNL     1      46.811   9.399  15.340  0.00  0.00    +0.000 HD
BRANCH  25  28
ATOM     28  C   UNL     1      47.995   9.214  17.624  0.00  0.00    +0.000 A 
ATOM     29  C   UNL     1      47.767  10.576  17.757  0.00  0.00    +0.000 A 
ATOM     30  S   UNL     1      47.242  11.038  19.316  0.00  0.00    +0.000 S 
ATOM     31  C   UNL     1      47.341   9.434  19.883  0.00  0.00    +0.000 A 
ATOM     32  N   UNL     1      47.070   9.136  21.178  0.00  0.00    +0.000 NA
ATOM     33  C   UNL     1      47.206   7.883  21.478  0.00  0.00    +0.000 A 
ATOM     34  N   UNL     1      47.572   6.911  20.591  0.00  0.00    +0.000 N 
ATOM     35  C   UNL     1      47.804   7.159  19.257  0.00  0.00    +0.000 A 
ATOM     36  O   UNL     1      48.029   6.247  18.472  0.00  0.00    +0.000 OA
ATOM     37  C   UNL     1      47.719   8.557  18.881  0.00  0.00    +0.000 A 
ATOM     38  H   UNL     1      47.618   5.939  20.876  0.00  0.00    +0.000 HD
ENDBRANCH  25  28
ENDBRANCH   1  24
TORSDOF 7
ENDMDL
MODEL 6
REMARK VINA RESULT:    -6.958      5.427      9.415
REMARK INTER + INTRA:         -11.223
REMARK INTER:                 -10.298
REMARK INTRA:                  -0.925
REMARK UNBOUND:                -1.418
REMARK  Name = 
REMARK  7 active torsions:
REMARK  status: ('A' for Active; 'I' for Inactive)
REMARK    1  A    between atoms: C_2  and  C_4
REMARK    2  A    between atoms: C_4  and  N_5
REMARK    3  A    between atoms: C_4  and  C_18
REMARK    4  A    between atoms: C_6  and  C_8
REMARK    5  A    between atoms: C_21  and  C_22
REMARK    6  A    between atoms: C_22  and  N_23
REMARK    7  A    between atoms: C_24  and  C_26
REMARK                            x       y       z     vdW  Elec       q    Type
REMARK                         _______ _______ _______ _____ _____    ______ ____
ROOT
ATOM      1  C   UNL     1      47.887   4.070  17.233  0.00  0.00    +0.000 C 
ENDROOT
BRANCH   1   2
ATOM      2  C   UNL     1      49.372   3.726  17.333  0.00  0.00    +0.000 A 
ATOM      3  C   UNL     1      50.324   4.738  17.535  0.00  0.00    +0.000 A 
ATOM      4  C   UNL     1      51.684   4.429  17.701  0.00  0.00    +0.000 A 
ATOM      5  C   UNL     1      52.130   3.102  17.654  0.00  0.00    +0.000 A 
ATOM      6  C   UNL     1      51.186   2.093  17.430  0.00  0.00    +0.000 A 
ATOM      7  C   UNL     1      49.830   2.401  17.267  0.00  0.00    +0.000 A 
BRANCH   5   8
ATOM      8  C   UNL     1      53.590   2.755  17.841  0.00  0.00    +0.000 C 
BRANCH   8   9
ATOM      9  N   UNL     1      53.901   1.423  17.358  0.00  0.00    +0.000 N 
ATOM     10  C   UNL     1      54.319   0.437  18.231  0.00  0.00    +0.000 C 
ATOM     11  O   UNL     1      54.462   0.609  19.432  0.00  0.00    +0.000 OA
ATOM     12  H   UNL     1      53.572   1.173  16.436  0.00  0.00    +0.000 HD
BRANCH  10  13
ATOM     13  C   UNL     1      54.568  -0.899  17.631  0.00  0.00    +0.000 A 
ATOM     14  C   UNL     1      54.913  -1.069  16.288  0.00  0.00    +0.000 A 
ATOM     15  C   UNL     1      55.128  -2.355  15.794  0.00  0.00    +0.000 A 
ATOM     16  C   UNL     1      54.996  -3.427  16.662  0.00  0.00    +0.000 A 
ATOM     17  N   UNL     1      54.681  -3.296  17.968  0.00  0.00    +0.000 NA
ATOM     18  C   UNL     1      54.484  -2.033  18.429  0.00  0.00    +0.000 A 
ENDBRANCH  10  13
ENDBRANCH   8   9
ENDBRANCH   5   8
ENDBRANCH   1   2
BRANCH   1  20
ATOM     19  N   UNL     1      47.911   4.401  19.686  0.00  0.00    +0.000 N 
ATOM     20  C   UNL     1      47.329   4.774  18.500  0.00  0.00    +0.000 C 
ATOM     21  O   UNL     1      46.374   5.548  18.519  0.00  0.00    +0.000 OA
ATOM     22  H   UNL     1      47.473   4.751  20.529  0.00  0.00    +0.000 HD
ATOM     23  H   UNL     1      48.426   3.528  19.750  0.00  0.00    +0.000 HD
ENDBRANCH   1  20
BRANCH   1  24
ATOM     24  N   UNL     1      47.631   4.927  16.077  0.00  0.00    +0.000 N 
ATOM     25  C   UNL     1      47.394   4.434  14.823  0.00  0.00    +0.000 C 
ATOM     26  O   UNL     1      47.391   3.225  14.596  0.00  0.00    +0.000 OA
ATOM     27  H   UNL     1      47.642   5.928  16.236  0.00  0.00    +0.000 HD
BRANCH  25  28
ATOM     28  C   UNL     1      47.081   5.416  13.771  0.00  0.00    +0.000 A 
ATOM     29  C   UNL     1      48.017   6.374  13.413  0.00  0.00    +0.000 A 
ATOM     30  S   UNL     1      47.478   7.442  12.193  0.00  0.00    +0.000 S 
ATOM     31  C   UNL     1      45.953   6.685  12.129  0.00  0.00    +0.000 A 
ATOM     32  N   UNL     1      44.978   7.151  11.310  0.00  0.00    +0.000 NA
ATOM     33  C   UNL     1      43.863   6.495  11.378  0.00  0.00    +0.000 A 
ATOM     34  N   UNL     1      43.652   5.410  12.181  0.00  0.00    +0.000 N 
ATOM     35  C   UNL     1      44.628   4.871  12.988  0.00  0.00    +0.000 A 
ATOM     36  O   UNL     1      44.433   3.838  13.615  0.00  0.00    +0.000 OA
ATOM     37  C   UNL     1      45.880   5.603  12.989  0.00  0.00    +0.000 A 
ATOM     38  H   UNL     1      42.770   4.911  12.157  0.00  0.00    +0.000 HD
ENDBRANCH  25  28
ENDBRANCH   1  24
TORSDOF 7
ENDMDL
MODEL 7
REMARK VINA RESULT:    -6.835      3.947      9.036
REMARK INTER + INTRA:         -11.050
REMARK INTER:                  -9.848
REMARK INTRA:                  -1.203
REMARK UNBOUND:                -1.418
REMARK  Name = 
REMARK  7 active torsions:
REMARK  status: ('A' for Active; 'I' for Inactive)
REMARK    1  A    between atoms: C_2  and  C_4
REMARK    2  A    between atoms: C_4  and  N_5
REMARK    3  A    between atoms: C_4  and  C_18
REMARK    4  A    between atoms: C_6  and  C_8
REMARK    5  A    between atoms: C_21  and  C_22
REMARK    6  A    between atoms: C_22  and  N_23
REMARK    7  A    between atoms: C_24  and  C_26
REMARK                            x       y       z     vdW  Elec       q    Type
REMARK                         _______ _______ _______ _____ _____    ______ ____
ROOT
ATOM      1  C   UNL     1      47.977   7.122  13.607  0.00  0.00    +0.000 C 
ENDROOT
BRANCH   1   2
ATOM      2  C   UNL     1      48.458   6.431  14.881  0.00  0.00    +0.000 A 
ATOM      3  C   UNL     1      49.601   6.894  15.553  0.00  0.00    +0.000 A 
ATOM      4  C   UNL     1      50.013   6.315  16.764  0.00  0.00    +0.000 A 
ATOM      5  C   UNL     1      49.303   5.246  17.327  0.00  0.00    +0.000 A 
ATOM      6  C   UNL     1      48.177   4.767  16.648  0.00  0.00    +0.000 A 
ATOM      7  C   UNL     1      47.765   5.347  15.442  0.00  0.00    +0.000 A 
BRANCH   5   8
ATOM      8  C   UNL     1      49.731   4.619  18.635  0.00  0.00    +0.000 C 
BRANCH   8   9
ATOM      9  N   UNL     1      51.006   3.937  18.523  0.00  0.00    +0.000 N 
ATOM     10  C   UNL     1      51.105   2.735  17.849  0.00  0.00    +0.000 C 
ATOM     11  O   UNL     1      50.158   2.170  17.323  0.00  0.00    +0.000 OA
ATOM     12  H   UNL     1      51.839   4.471  18.726  0.00  0.00    +0.000 HD
BRANCH  10  13
ATOM     13  C   UNL     1      52.468   2.149  17.762  0.00  0.00    +0.000 A 
ATOM     14  C   UNL     1      52.690   0.788  17.544  0.00  0.00    +0.000 A 
ATOM     15  C   UNL     1      53.998   0.309  17.478  0.00  0.00    +0.000 A 
ATOM     16  C   UNL     1      55.040   1.211  17.626  0.00  0.00    +0.000 A 
ATOM     17  N   UNL     1      54.860   2.535  17.820  0.00  0.00    +0.000 NA
ATOM     18  C   UNL     1      53.576   2.979  17.872  0.00  0.00    +0.000 A 
ENDBRANCH  10  13
ENDBRANCH   8   9
ENDBRANCH   5   8
ENDBRANCH   1   2
BRANCH   1  20
ATOM     19  N   UNL     1      49.970   6.908  12.155  0.00  0.00    +0.000 N 
ATOM     20  C   UNL     1      49.123   7.781  12.791  0.00  0.00    +0.000 C 
ATOM     21  O   UNL     1      49.365   8.986  12.753  0.00  0.00    +0.000 OA
ATOM     22  H   UNL     1      50.793   7.315  11.728  0.00  0.00    +0.000 HD
ATOM     23  H   UNL     1      50.023   5.939  12.453  0.00  0.00    +0.000 HD
ENDBRANCH   1  20
BRANCH   1  24
ATOM     24  N   UNL     1      47.274   6.179  12.740  0.00  0.00    +0.000 N 
ATOM     25  C   UNL     1      46.272   6.556  11.889  0.00  0.00    +0.000 C 
ATOM     26  O   UNL     1      45.898   7.724  11.812  0.00  0.00    +0.000 OA
ATOM     27  H   UNL     1      47.555   5.207  12.795  0.00  0.00    +0.000 HD
BRANCH  25  28
ATOM     28  C   UNL     1      45.705   5.507  11.024  0.00  0.00    +0.000 A 
ATOM     29  C   UNL     1      45.819   5.605   9.645  0.00  0.00    +0.000 A 
ATOM     30  S   UNL     1      45.087   4.314   8.799  0.00  0.00    +0.000 S 
ATOM     31  C   UNL     1      44.553   3.596  10.249  0.00  0.00    +0.000 A 
ATOM     32  N   UNL     1      43.804   2.465  10.233  0.00  0.00    +0.000 NA
ATOM     33  C   UNL     1      43.449   2.041  11.403  0.00  0.00    +0.000 A 
ATOM     34  N   UNL     1      43.793   2.643  12.581  0.00  0.00    +0.000 N 
ATOM     35  C   UNL     1      44.595   3.760  12.648  0.00  0.00    +0.000 A 
ATOM     36  O   UNL     1      44.966   4.210  13.725  0.00  0.00    +0.000 OA
ATOM     37  C   UNL     1      44.974   4.307  11.360  0.00  0.00    +0.000 A 
ATOM     38  H   UNL     1      43.521   2.237  13.469  0.00  0.00    +0.000 HD
ENDBRANCH  25  28
ENDBRANCH   1  24
TORSDOF 7
ENDMDL
MODEL 8
REMARK VINA RESULT:    -6.655      1.998      2.674
REMARK INTER + INTRA:         -10.796
REMARK INTER:                  -9.672
REMARK INTRA:                  -1.123
REMARK UNBOUND:                -1.418
REMARK  Name = 
REMARK  7 active torsions:
REMARK  status: ('A' for Active; 'I' for Inactive)
REMARK    1  A    between atoms: C_2  and  C_4
REMARK    2  A    between atoms: C_4  and  N_5
REMARK    3  A    between atoms: C_4  and  C_18
REMARK    4  A    between atoms: C_6  and  C_8
REMARK    5  A    between atoms: C_21  and  C_22
REMARK    6  A    between atoms: C_22  and  N_23
REMARK    7  A    between atoms: C_24  and  C_26
REMARK                            x       y       z     vdW  Elec       q    Type
REMARK                         _______ _______ _______ _____ _____    ______ ____
ROOT
ATOM      1  C   UNL     1      48.631   7.975  14.298  0.00  0.00    +0.000 C 
ENDROOT
BRANCH   1   2
ATOM      2  C   UNL     1      47.696   7.433  13.219  0.00  0.00    +0.000 A 
ATOM      3  C   UNL     1      47.647   6.057  12.947  0.00  0.00    +0.000 A 
ATOM      4  C   UNL     1      46.741   5.537  12.009  0.00  0.00    +0.000 A 
ATOM      5  C   UNL     1      45.870   6.380  11.306  0.00  0.00    +0.000 A 
ATOM      6  C   UNL     1      45.933   7.756  11.559  0.00  0.00    +0.000 A 
ATOM      7  C   UNL     1      46.835   8.274  12.497  0.00  0.00    +0.000 A 
BRANCH   5   8
ATOM      8  C   UNL     1      44.883   5.833  10.300  0.00  0.00    +0.000 C 
BRANCH   8   9
ATOM      9  N   UNL     1      45.524   4.992   9.308  0.00  0.00    +0.000 N 
ATOM     10  C   UNL     1      45.121   3.683   9.126  0.00  0.00    +0.000 C 
ATOM     11  O   UNL     1      44.231   3.151   9.771  0.00  0.00    +0.000 OA
ATOM     12  H   UNL     1      46.085   5.449   8.602  0.00  0.00    +0.000 HD
BRANCH  10  13
ATOM     13  C   UNL     1      45.821   2.930   8.053  0.00  0.00    +0.000 A 
ATOM     14  C   UNL     1      46.174   3.512   6.833  0.00  0.00    +0.000 A 
ATOM     15  C   UNL     1      46.827   2.742   5.871  0.00  0.00    +0.000 A 
ATOM     16  C   UNL     1      47.108   1.417   6.165  0.00  0.00    +0.000 A 
ATOM     17  N   UNL     1      46.795   0.829   7.339  0.00  0.00    +0.000 NA
ATOM     18  C   UNL     1      46.167   1.602   8.264  0.00  0.00    +0.000 A 
ENDBRANCH  10  13
ENDBRANCH   8   9
ENDBRANCH   5   8
ENDBRANCH   1   2
BRANCH   1  20
ATOM     19  N   UNL     1      47.568   9.513  15.919  0.00  0.00    +0.000 N 
ATOM     20  C   UNL     1      48.282   9.419  14.751  0.00  0.00    +0.000 C 
ATOM     21  O   UNL     1      48.516  10.440  14.108  0.00  0.00    +0.000 OA
ATOM     22  H   UNL     1      47.222  10.434  16.159  0.00  0.00    +0.000 HD
ATOM     23  H   UNL     1      47.055   8.710  16.271  0.00  0.00    +0.000 HD
ENDBRANCH   1  20
BRANCH   1  24
ATOM     24  N   UNL     1      48.621   7.106  15.474  0.00  0.00    +0.000 N 
ATOM     25  C   UNL     1      49.763   6.602  16.035  0.00  0.00    +0.000 C 
ATOM     26  O   UNL     1      50.874   6.849  15.570  0.00  0.00    +0.000 OA
ATOM     27  H   UNL     1      47.717   6.877  15.868  0.00  0.00    +0.000 HD
BRANCH  25  28
ATOM     28  C   UNL     1      49.603   5.800  17.260  0.00  0.00    +0.000 A 
ATOM     29  C   UNL     1      50.332   6.114  18.398  0.00  0.00    +0.000 A 
ATOM     30  S   UNL     1      50.036   5.068  19.716  0.00  0.00    +0.000 S 
ATOM     31  C   UNL     1      48.951   4.129  18.797  0.00  0.00    +0.000 A 
ATOM     32  N   UNL     1      48.368   3.023  19.323  0.00  0.00    +0.000 NA
ATOM     33  C   UNL     1      47.584   2.392  18.509  0.00  0.00    +0.000 A 
ATOM     34  N   UNL     1      47.325   2.784  17.225  0.00  0.00    +0.000 N 
ATOM     35  C   UNL     1      47.851   3.927  16.668  0.00  0.00    +0.000 A 
ATOM     36  O   UNL     1      47.515   4.301  15.552  0.00  0.00    +0.000 OA
ATOM     37  C   UNL     1      48.781   4.640  17.522  0.00  0.00    +0.000 A 
ATOM     38  H   UNL     1      46.666   2.273  16.650  0.00  0.00    +0.000 HD
ENDBRANCH  25  28
ENDBRANCH   1  24
TORSDOF 7
ENDMDL
MODEL 9
REMARK VINA RESULT:    -6.543      2.281      3.411
REMARK INTER + INTRA:         -10.639
REMARK INTER:                 -10.023
REMARK INTRA:                  -0.616
REMARK UNBOUND:                -1.418
REMARK  Name = 
REMARK  7 active torsions:
REMARK  status: ('A' for Active; 'I' for Inactive)
REMARK    1  A    between atoms: C_2  and  C_4
REMARK    2  A    between atoms: C_4  and  N_5
REMARK    3  A    between atoms: C_4  and  C_18
REMARK    4  A    between atoms: C_6  and  C_8
REMARK    5  A    between atoms: C_21  and  C_22
REMARK    6  A    between atoms: C_22  and  N_23
REMARK    7  A    between atoms: C_24  and  C_26
REMARK                            x       y       z     vdW  Elec       q    Type
REMARK                         _______ _______ _______ _____ _____    ______ ____
ROOT
ATOM      1  C   UNL     1      47.061   4.669  15.875  0.00  0.00    +0.000 C 
ENDROOT
BRANCH   1   2
ATOM      2  C   UNL     1      46.614   4.975  14.447  0.00  0.00    +0.000 A 
ATOM      3  C   UNL     1      47.303   5.923  13.674  0.00  0.00    +0.000 A 
ATOM      4  C   UNL     1      46.948   6.162  12.336  0.00  0.00    +0.000 A 
ATOM      5  C   UNL     1      45.885   5.470  11.740  0.00  0.00    +0.000 A 
ATOM      6  C   UNL     1      45.182   4.541  12.516  0.00  0.00    +0.000 A 
ATOM      7  C   UNL     1      45.538   4.301  13.849  0.00  0.00    +0.000 A 
BRANCH   5   8
ATOM      8  C   UNL     1      45.499   5.710  10.299  0.00  0.00    +0.000 C 
BRANCH   8   9
ATOM      9  N   UNL     1      46.105   4.744   9.402  0.00  0.00    +0.000 N 
ATOM     10  C   UNL     1      45.326   3.993   8.544  0.00  0.00    +0.000 C 
ATOM     11  O   UNL     1      44.108   4.076   8.483  0.00  0.00    +0.000 OA
ATOM     12  H   UNL     1      47.101   4.813   9.248  0.00  0.00    +0.000 HD
BRANCH  10  13
ATOM     13  C   UNL     1      46.058   3.066   7.643  0.00  0.00    +0.000 A 
ATOM     14  C   UNL     1      46.512   3.447   6.379  0.00  0.00    +0.000 A 
ATOM     15  C   UNL     1      47.191   2.522   5.586  0.00  0.00    +0.000 A 
ATOM     16  C   UNL     1      47.396   1.247   6.089  0.00  0.00    +0.000 A 
ATOM     17  N   UNL     1      46.985   0.851   7.313  0.00  0.00    +0.000 NA
ATOM     18  C   UNL     1      46.334   1.773   8.070  0.00  0.00    +0.000 A 
ENDBRANCH  10  13
ENDBRANCH   8   9
ENDBRANCH   5   8
ENDBRANCH   1   2
BRANCH   1  20
ATOM     19  N   UNL     1      47.725   2.764  17.308  0.00  0.00    +0.000 N 
ATOM     20  C   UNL     1      47.714   3.269  16.032  0.00  0.00    +0.000 C 
ATOM     21  O   UNL     1      48.281   2.645  15.136  0.00  0.00    +0.000 OA
ATOM     22  H   UNL     1      48.259   1.916  17.449  0.00  0.00    +0.000 HD
ATOM     23  H   UNL     1      47.606   3.385  18.104  0.00  0.00    +0.000 HD
ENDBRANCH   1  20
BRANCH   1  24
ATOM     24  N   UNL     1      48.010   5.677  16.347  0.00  0.00    +0.000 N 
ATOM     25  C   UNL     1      48.099   6.057  17.658  0.00  0.00    +0.000 C 
ATOM     26  O   UNL     1      47.371   5.571  18.521  0.00  0.00    +0.000 OA
ATOM     27  H   UNL     1      48.611   6.102  15.652  0.00  0.00    +0.000 HD
BRANCH  25  28
ATOM     28  C   UNL     1      49.151   7.031  17.996  0.00  0.00    +0.000 A 
ATOM     29  C   UNL     1      49.210   7.577  19.270  0.00  0.00    +0.000 A 
ATOM     30  S   UNL     1      50.478   8.702  19.480  0.00  0.00    +0.000 S 
ATOM     31  C   UNL     1      50.970   8.531  17.858  0.00  0.00    +0.000 A 
ATOM     32  N   UNL     1      51.993   9.269  17.358  0.00  0.00    +0.000 NA
ATOM     33  C   UNL     1      52.246   9.055  16.107  0.00  0.00    +0.000 A 
ATOM     34  N   UNL     1      51.575   8.157  15.324  0.00  0.00    +0.000 N 
ATOM     35  C   UNL     1      50.568   7.350  15.802  0.00  0.00    +0.000 A 
ATOM     36  O   UNL     1      50.061   6.486  15.098  0.00  0.00    +0.000 OA
ATOM     37  C   UNL     1      50.208   7.591  17.186  0.00  0.00    +0.000 A 
ATOM     38  H   UNL     1      51.850   8.002  14.362  0.00  0.00    +0.000 HD
ENDBRANCH  25  28
ENDBRANCH   1  24
TORSDOF 7
ENDMDL
