MODEL 1
REMARK VINA RESULT:    -6.991      0.000      0.000
REMARK INTER + INTRA:         -10.800
REMARK INTER:                  -9.853
REMARK INTRA:                  -0.948
REMARK UNBOUND:                -0.948
REMARK  Name = 
REMARK  9 active torsions:
REMARK  status: ('A' for Active; 'I' for Inactive)
REMARK    1  A    between atoms: C_1  and  C_2
REMARK    2  A    between atoms: C_4  and  C_5
REMARK    3  A    between atoms: C_5  and  O_7
REMARK    4  A    between atoms: C_10  and  O_11
REMARK    5  A    between atoms: O_11  and  C_12
REMARK    6  A    between atoms: C_12  and  C_13
REMARK    7  A    between atoms: C_13  and  C_14
REMARK    8  A    between atoms: C_18  and  C_19
REMARK    9  A    between atoms: C_19  and  N_20
REMARK                            x       y       z     vdW  Elec       q    Type
REMARK                         _______ _______ _______ _____ _____    ______ ____
ROOT
ATOM      1  O   UNL     1      44.225   3.654  12.625  0.00  0.00    +0.000 OA
ENDROOT
BRANCH   1   8
ATOM      2  C   UNL     1      46.856   3.444  13.588  0.00  0.00    +0.000 C 
ATOM      3  C   UNL     1      46.221   4.770  13.249  0.00  0.00    +0.000 A 
ATOM      4  C   UNL     1      46.970   5.951  13.424  0.00  0.00    +0.000 A 
ATOM      5  C   UNL     1      46.416   7.196  13.101  0.00  0.00    +0.000 A 
ATOM      6  C   UNL     1      45.136   7.255  12.555  0.00  0.00    +0.000 A 
ATOM      7  C   UNL     1      44.392   6.086  12.367  0.00  0.00    +0.000 A 
ATOM      8  C   UNL     1      44.916   4.838  12.719  0.00  0.00    +0.000 A 
BRANCH   5   9
ATOM      9  C   UNL     1      47.153   8.470  13.287  0.00  0.00    +0.000 C 
ATOM     10  O   UNL     1      47.800   8.996  12.397  0.00  0.00    +0.000 OA
BRANCH   9  11
ATOM     11  O   UNL     1      46.994   9.022  14.508  0.00  0.00    +0.000 OA
ATOM     12  H   UNL     1      47.392   8.520  15.242  0.00  0.00    +0.000 HD
ENDBRANCH   9  11
ENDBRANCH   5   9
ENDBRANCH   1   8
BRANCH   1  13
ATOM     13  C   UNL     1      43.429   3.446  11.451  0.00  0.00    +0.000 C 
BRANCH  13  14
ATOM     14  C   UNL     1      44.058   2.379  10.542  0.00  0.00    +0.000 C 
BRANCH  14  15
ATOM     15  C   UNL     1      44.982   2.846   9.432  0.00  0.00    +0.000 A 
ATOM     16  C   UNL     1      45.146   4.188   9.066  0.00  0.00    +0.000 A 
ATOM     17  C   UNL     1      45.992   4.541   8.013  0.00  0.00    +0.000 A 
ATOM     18  C   UNL     1      46.690   3.562   7.306  0.00  0.00    +0.000 A 
ATOM     19  C   UNL     1      46.560   2.214   7.656  0.00  0.00    +0.000 A 
ATOM     20  C   UNL     1      45.705   1.871   8.718  0.00  0.00    +0.000 A 
BRANCH  19  21
ATOM     21  C   UNL     1      47.305   1.147   6.893  0.00  0.00    +0.000 C 
BRANCH  21  22
ATOM     22  N   UNL     1      48.357   1.714   6.059  0.00  0.00    +0.000 NA
ATOM     23  H   UNL     1      49.178   1.114   6.119  0.00  0.00    +0.000 HD
ATOM     24  H   UNL     1      48.631   2.618   6.437  0.00  0.00    +0.000 HD
ENDBRANCH  21  22
ENDBRANCH  19  21
ENDBRANCH  14  15
ENDBRANCH  13  14
ENDBRANCH   1  13
TORSDOF 8
ENDMDL
MODEL 2
REMARK VINA RESULT:    -6.957      3.350      6.688
REMARK INTER + INTRA:         -10.751
REMARK INTER:                  -9.752
REMARK INTRA:                  -0.999
REMARK UNBOUND:                -0.948
REMARK  Name = 
REMARK  9 active torsions:
REMARK  status: ('A' for Active; 'I' for Inactive)
REMARK    1  A    between atoms: C_1  and  C_2
REMARK    2  A    between atoms: C_4  and  C_5
REMARK    3  A    between atoms: C_5  and  O_7
REMARK    4  A    between atoms: C_10  and  O_11
REMARK    5  A    between atoms: O_11  and  C_12
REMARK    6  A    between atoms: C_12  and  C_13
REMARK    7  A    between atoms: C_13  and  C_14
REMARK    8  A    between atoms: C_18  and  C_19
REMARK    9  A    between atoms: C_19  and  N_20
REMARK                            x       y       z     vdW  Elec       q    Type
REMARK                         _______ _______ _______ _____ _____    ______ ____
ROOT
ATOM      1  O   UNL     1      43.766   3.405  10.218  0.00  0.00    +0.000 OA
ENDROOT
BRANCH   1   8
ATOM      2  C   UNL     1      45.428   5.376   9.103  0.00  0.00    +0.000 C 
ATOM      3  C   UNL     1      45.548   3.917   8.741  0.00  0.00    +0.000 A 
ATOM      4  C   UNL     1      46.526   3.522   7.805  0.00  0.00    +0.000 A 
ATOM      5  C   UNL     1      46.675   2.173   7.462  0.00  0.00    +0.000 A 
ATOM      6  C   UNL     1      45.883   1.215   8.092  0.00  0.00    +0.000 A 
ATOM      7  C   UNL     1      44.919   1.598   9.029  0.00  0.00    +0.000 A 
ATOM      8  C   UNL     1      44.733   2.945   9.356  0.00  0.00    +0.000 A 
BRANCH   5   9
ATOM      9  C   UNL     1      47.673   1.708   6.468  0.00  0.00    +0.000 C 
ATOM     10  O   UNL     1      47.486   0.745   5.743  0.00  0.00    +0.000 OA
BRANCH   9  11
ATOM     11  O   UNL     1      48.777   2.481   6.396  0.00  0.00    +0.000 OA
ATOM     12  H   UNL     1      48.836   3.179   7.074  0.00  0.00    +0.000 HD
ENDBRANCH   9  11
ENDBRANCH   5   9
ENDBRANCH   1   8
BRANCH   1  13
ATOM     13  C   UNL     1      43.618   2.722  11.470  0.00  0.00    +0.000 C 
BRANCH  13  14
ATOM     14  C   UNL     1      43.539   3.720  12.635  0.00  0.00    +0.000 C 
BRANCH  14  15
ATOM     15  C   UNL     1      44.638   4.762  12.755  0.00  0.00    +0.000 A 
ATOM     16  C   UNL     1      45.893   4.509  13.319  0.00  0.00    +0.000 A 
ATOM     17  C   UNL     1      46.846   5.526  13.424  0.00  0.00    +0.000 A 
ATOM     18  C   UNL     1      46.561   6.812  12.966  0.00  0.00    +0.000 A 
ATOM     19  C   UNL     1      45.321   7.094  12.383  0.00  0.00    +0.000 A 
ATOM     20  C   UNL     1      44.372   6.062  12.284  0.00  0.00    +0.000 A 
BRANCH  19  21
ATOM     21  C   UNL     1      45.001   8.483  11.892  0.00  0.00    +0.000 C 
BRANCH  21  22
ATOM     22  N   UNL     1      43.763   8.512  11.122  0.00  0.00    +0.000 NA
ATOM     23  H   UNL     1      43.597   9.468  10.810  0.00  0.00    +0.000 HD
ATOM     24  H   UNL     1      42.987   8.268  11.732  0.00  0.00    +0.000 HD
ENDBRANCH  21  22
ENDBRANCH  19  21
ENDBRANCH  14  15
ENDBRANCH  13  14
ENDBRANCH   1  13
TORSDOF 8
ENDMDL
MODEL 3
REMARK VINA RESULT:    -6.393      1.998      3.153
REMARK INTER + INTRA:          -9.956
REMARK INTER:                  -9.394
REMARK INTRA:                  -0.563
REMARK UNBOUND:                -0.948
REMARK  Name = 
REMARK  9 active torsions:
REMARK  status: ('A' for Active; 'I' for Inactive)
REMARK    1  A    between atoms: C_1  and  C_2
REMARK    2  A    between atoms: C_4  and  C_5
REMARK    3  A    between atoms: C_5  and  O_7
REMARK    4  A    between atoms: C_10  and  O_11
REMARK    5  A    between atoms: O_11  and  C_12
REMARK    6  A    between atoms: C_12  and  C_13
REMARK    7  A    between atoms: C_13  and  C_14
REMARK    8  A    between atoms: C_18  and  C_19
REMARK    9  A    between atoms: C_19  and  N_20
REMARK                            x       y       z     vdW  Elec       q    Type
REMARK                         _______ _______ _______ _____ _____    ______ ____
ROOT
ATOM      1  O   UNL     1      44.744   5.356  10.598  0.00  0.00    +0.000 OA
ENDROOT
BRANCH   1   8
ATOM      2  C   UNL     1      45.823   7.607  11.886  0.00  0.00    +0.000 C 
ATOM      3  C   UNL     1      45.976   6.210  12.434  0.00  0.00    +0.000 A 
ATOM      4  C   UNL     1      46.690   6.021  13.634  0.00  0.00    +0.000 A 
ATOM      5  C   UNL     1      46.835   4.739  14.179  0.00  0.00    +0.000 A 
ATOM      6  C   UNL     1      46.222   3.656  13.552  0.00  0.00    +0.000 A 
ATOM      7  C   UNL     1      45.503   3.838  12.367  0.00  0.00    +0.000 A 
ATOM      8  C   UNL     1      45.380   5.107  11.790  0.00  0.00    +0.000 A 
BRANCH   5   9
ATOM      9  C   UNL     1      47.595   4.483  15.427  0.00  0.00    +0.000 C 
ATOM     10  O   UNL     1      48.377   5.288  15.902  0.00  0.00    +0.000 OA
BRANCH   9  11
ATOM     11  O   UNL     1      47.297   3.307  16.018  0.00  0.00    +0.000 OA
ATOM     12  H   UNL     1      47.722   2.526  15.620  0.00  0.00    +0.000 HD
ENDBRANCH   9  11
ENDBRANCH   5   9
ENDBRANCH   1   8
BRANCH   1  13
ATOM     13  C   UNL     1      44.355   4.225   9.807  0.00  0.00    +0.000 C 
BRANCH  13  14
ATOM     14  C   UNL     1      44.974   4.296   8.403  0.00  0.00    +0.000 C 
BRANCH  14  15
ATOM     15  C   UNL     1      45.693   3.065   7.879  0.00  0.00    +0.000 A 
ATOM     16  C   UNL     1      45.777   1.856   8.578  0.00  0.00    +0.000 A 
ATOM     17  C   UNL     1      46.482   0.773   8.046  0.00  0.00    +0.000 A 
ATOM     18  C   UNL     1      47.115   0.880   6.807  0.00  0.00    +0.000 A 
ATOM     19  C   UNL     1      47.037   2.071   6.077  0.00  0.00    +0.000 A 
ATOM     20  C   UNL     1      46.324   3.152   6.623  0.00  0.00    +0.000 A 
BRANCH  19  21
ATOM     21  C   UNL     1      47.723   2.198   4.740  0.00  0.00    +0.000 C 
BRANCH  21  22
ATOM     22  N   UNL     1      47.506   1.022   3.907  0.00  0.00    +0.000 NA
ATOM     23  H   UNL     1      47.913   1.194   2.989  0.00  0.00    +0.000 HD
ATOM     24  H   UNL     1      46.507   0.897   3.762  0.00  0.00    +0.000 HD
ENDBRANCH  21  22
ENDBRANCH  19  21
ENDBRANCH  14  15
ENDBRANCH  13  14
ENDBRANCH   1  13
TORSDOF 8
ENDMDL
MODEL 4
REMARK VINA RESULT:    -6.307      3.838      7.175
REMARK INTER + INTRA:          -9.836
REMARK INTER:                  -9.255
REMARK INTRA:                  -0.582
REMARK UNBOUND:                -0.948
REMARK  Name = 
REMARK  9 active torsions:
REMARK  status: ('A' for Active; 'I' for Inactive)
REMARK    1  A    between atoms: C_1  and  C_2
REMARK    2  A    between atoms: C_4  and  C_5
REMARK    3  A    between atoms: C_5  and  O_7
REMARK    4  A    between atoms: C_10  and  O_11
REMARK    5  A    between atoms: O_11  and  C_12
REMARK    6  A    between atoms: C_12  and  C_13
REMARK    7  A    between atoms: C_13  and  C_14
REMARK    8  A    between atoms: C_18  and  C_19
REMARK    9  A    between atoms: C_19  and  N_20
REMARK                            x       y       z     vdW  Elec       q    Type
REMARK                         _______ _______ _______ _____ _____    ______ ____
ROOT
ATOM      1  O   UNL     1      44.295   4.804  10.068  0.00  0.00    +0.000 OA
ENDROOT
BRANCH   1   8
ATOM      2  C   UNL     1      44.039   2.009  10.183  0.00  0.00    +0.000 C 
ATOM      3  C   UNL     1      45.000   2.695   9.245  0.00  0.00    +0.000 A 
ATOM      4  C   UNL     1      45.805   1.911   8.396  0.00  0.00    +0.000 A 
ATOM      5  C   UNL     1      46.693   2.518   7.500  0.00  0.00    +0.000 A 
ATOM      6  C   UNL     1      46.739   3.908   7.418  0.00  0.00    +0.000 A 
ATOM      7  C   UNL     1      45.934   4.693   8.250  0.00  0.00    +0.000 A 
ATOM      8  C   UNL     1      45.068   4.102   9.175  0.00  0.00    +0.000 A 
BRANCH   5   9
ATOM      9  C   UNL     1      47.578   1.738   6.600  0.00  0.00    +0.000 C 
ATOM     10  O   UNL     1      47.304   0.614   6.214  0.00  0.00    +0.000 OA
BRANCH   9  11
ATOM     11  O   UNL     1      48.680   2.406   6.201  0.00  0.00    +0.000 OA
ATOM     12  H   UNL     1      48.531   3.064   5.497  0.00  0.00    +0.000 HD
ENDBRANCH   9  11
ENDBRANCH   5   9
ENDBRANCH   1   8
BRANCH   1  13
ATOM     13  C   UNL     1      44.974   5.550  11.087  0.00  0.00    +0.000 C 
BRANCH  13  14
ATOM     14  C   UNL     1      45.327   4.652  12.282  0.00  0.00    +0.000 C 
BRANCH  14  15
ATOM     15  C   UNL     1      46.334   5.176  13.292  0.00  0.00    +0.000 A 
ATOM     16  C   UNL     1      47.118   6.317  13.090  0.00  0.00    +0.000 A 
ATOM     17  C   UNL     1      48.047   6.722  14.052  0.00  0.00    +0.000 A 
ATOM     18  C   UNL     1      48.208   5.995  15.232  0.00  0.00    +0.000 A 
ATOM     19  C   UNL     1      47.429   4.858  15.470  0.00  0.00    +0.000 A 
ATOM     20  C   UNL     1      46.498   4.461  14.494  0.00  0.00    +0.000 A 
BRANCH  19  21
ATOM     21  C   UNL     1      47.600   4.062  16.738  0.00  0.00    +0.000 C 
BRANCH  21  22
ATOM     22  N   UNL     1      46.811   4.613  17.833  0.00  0.00    +0.000 NA
ATOM     23  H   UNL     1      46.198   3.882  18.192  0.00  0.00    +0.000 HD
ATOM     24  H   UNL     1      46.205   5.345  17.471  0.00  0.00    +0.000 HD
ENDBRANCH  21  22
ENDBRANCH  19  21
ENDBRANCH  14  15
ENDBRANCH  13  14
ENDBRANCH   1  13
TORSDOF 8
ENDMDL
MODEL 5
REMARK VINA RESULT:    -6.085      4.147      7.407
REMARK INTER + INTRA:          -9.522
REMARK INTER:                  -8.637
REMARK INTRA:                  -0.885
REMARK UNBOUND:                -0.948
REMARK  Name = 
REMARK  9 active torsions:
REMARK  status: ('A' for Active; 'I' for Inactive)
REMARK    1  A    between atoms: C_1  and  C_2
REMARK    2  A    between atoms: C_4  and  C_5
REMARK    3  A    between atoms: C_5  and  O_7
REMARK    4  A    between atoms: C_10  and  O_11
REMARK    5  A    between atoms: O_11  and  C_12
REMARK    6  A    between atoms: C_12  and  C_13
REMARK    7  A    between atoms: C_13  and  C_14
REMARK    8  A    between atoms: C_18  and  C_19
REMARK    9  A    between atoms: C_19  and  N_20
REMARK                            x       y       z     vdW  Elec       q    Type
REMARK                         _______ _______ _______ _____ _____    ______ ____
ROOT
ATOM      1  O   UNL     1      48.477   5.953  13.390  0.00  0.00    +0.000 OA
ENDROOT
BRANCH   1   8
ATOM      2  C   UNL     1      47.055   3.609  14.006  0.00  0.00    +0.000 C 
ATOM      3  C   UNL     1      46.485   4.694  13.127  0.00  0.00    +0.000 A 
ATOM      4  C   UNL     1      45.193   4.530  12.589  0.00  0.00    +0.000 A 
ATOM      5  C   UNL     1      44.627   5.527  11.785  0.00  0.00    +0.000 A 
ATOM      6  C   UNL     1      45.332   6.708  11.562  0.00  0.00    +0.000 A 
ATOM      7  C   UNL     1      46.610   6.883  12.103  0.00  0.00    +0.000 A 
ATOM      8  C   UNL     1      47.204   5.882  12.878  0.00  0.00    +0.000 A 
BRANCH   5   9
ATOM      9  C   UNL     1      43.281   5.394  11.176  0.00  0.00    +0.000 C 
ATOM     10  O   UNL     1      42.252   5.445  11.828  0.00  0.00    +0.000 OA
BRANCH   9  11
ATOM     11  O   UNL     1      43.297   5.271   9.832  0.00  0.00    +0.000 OA
ATOM     12  H   UNL     1      42.500   5.600   9.379  0.00  0.00    +0.000 HD
ENDBRANCH   9  11
ENDBRANCH   5   9
ENDBRANCH   1   8
BRANCH   1  13
ATOM     13  C   UNL     1      48.910   7.216  13.912  0.00  0.00    +0.000 C 
BRANCH  13  14
ATOM     14  C   UNL     1      48.702   7.283  15.432  0.00  0.00    +0.000 C 
BRANCH  14  15
ATOM     15  C   UNL     1      49.312   6.182  16.282  0.00  0.00    +0.000 A 
ATOM     16  C   UNL     1      50.662   6.137  16.648  0.00  0.00    +0.000 A 
ATOM     17  C   UNL     1      51.160   5.075  17.407  0.00  0.00    +0.000 A 
ATOM     18  C   UNL     1      50.318   4.040  17.815  0.00  0.00    +0.000 A 
ATOM     19  C   UNL     1      48.960   4.063  17.478  0.00  0.00    +0.000 A 
ATOM     20  C   UNL     1      48.472   5.137  16.714  0.00  0.00    +0.000 A 
BRANCH  19  21
ATOM     21  C   UNL     1      48.043   2.946  17.908  0.00  0.00    +0.000 C 
BRANCH  21  22
ATOM     22  N   UNL     1      46.650   3.241  17.598  0.00  0.00    +0.000 NA
ATOM     23  H   UNL     1      46.622   3.915  16.834  0.00  0.00    +0.000 HD
ATOM     24  H   UNL     1      46.220   3.695  18.400  0.00  0.00    +0.000 HD
ENDBRANCH  21  22
ENDBRANCH  19  21
ENDBRANCH  14  15
ENDBRANCH  13  14
ENDBRANCH   1  13
TORSDOF 8
ENDMDL
MODEL 6
REMARK VINA RESULT:    -6.076      3.133      6.608
REMARK INTER + INTRA:          -9.510
REMARK INTER:                  -8.412
REMARK INTRA:                  -1.098
REMARK UNBOUND:                -0.948
REMARK  Name = 
REMARK  9 active torsions:
REMARK  status: ('A' for Active; 'I' for Inactive)
REMARK    1  A    between atoms: C_1  and  C_2
REMARK    2  A    between atoms: C_4  and  C_5
REMARK    3  A    between atoms: C_5  and  O_7
REMARK    4  A    between atoms: C_10  and  O_11
REMARK    5  A    between atoms: O_11  and  C_12
REMARK    6  A    between atoms: C_12  and  C_13
REMARK    7  A    between atoms: C_13  and  C_14
REMARK    8  A    between atoms: C_18  and  C_19
REMARK    9  A    between atoms: C_19  and  N_20
REMARK                            x       y       z     vdW  Elec       q    Type
REMARK                         _______ _______ _______ _____ _____    ______ ____
ROOT
ATOM      1  O   UNL     1      43.734   4.433  10.130  0.00  0.00    +0.000 OA
ENDROOT
BRANCH   1   8
ATOM      2  C   UNL     1      45.963   5.481   8.780  0.00  0.00    +0.000 C 
ATOM      3  C   UNL     1      45.631   4.011   8.771  0.00  0.00    +0.000 A 
ATOM      4  C   UNL     1      46.462   3.125   8.057  0.00  0.00    +0.000 A 
ATOM      5  C   UNL     1      46.191   1.752   8.045  0.00  0.00    +0.000 A 
ATOM      6  C   UNL     1      45.120   1.259   8.787  0.00  0.00    +0.000 A 
ATOM      7  C   UNL     1      44.297   2.130   9.507  0.00  0.00    +0.000 A 
ATOM      8  C   UNL     1      44.533   3.509   9.501  0.00  0.00    +0.000 A 
BRANCH   5   9
ATOM      9  C   UNL     1      47.023   0.780   7.292  0.00  0.00    +0.000 C 
ATOM     10  O   UNL     1      47.826   1.119   6.439  0.00  0.00    +0.000 OA
BRANCH   9  11
ATOM     11  O   UNL     1      46.852  -0.501   7.677  0.00  0.00    +0.000 OA
ATOM     12  H   UNL     1      47.172  -1.169   7.043  0.00  0.00    +0.000 HD
ENDBRANCH   9  11
ENDBRANCH   5   9
ENDBRANCH   1   8
BRANCH   1  13
ATOM     13  C   UNL     1      43.568   4.306  11.548  0.00  0.00    +0.000 C 
BRANCH  13  14
ATOM     14  C   UNL     1      44.882   4.608  12.284  0.00  0.00    +0.000 C 
BRANCH  14  15
ATOM     15  C   UNL     1      45.418   6.028  12.229  0.00  0.00    +0.000 A 
ATOM     16  C   UNL     1      44.606   7.166  12.169  0.00  0.00    +0.000 A 
ATOM     17  C   UNL     1      45.171   8.441  12.089  0.00  0.00    +0.000 A 
ATOM     18  C   UNL     1      46.557   8.602  12.068  0.00  0.00    +0.000 A 
ATOM     19  C   UNL     1      47.396   7.485  12.141  0.00  0.00    +0.000 A 
ATOM     20  C   UNL     1      46.815   6.208  12.221  0.00  0.00    +0.000 A 
BRANCH  19  21
ATOM     21  C   UNL     1      48.895   7.648  12.111  0.00  0.00    +0.000 C 
BRANCH  21  22
ATOM     22  N   UNL     1      49.565   6.619  12.897  0.00  0.00    +0.000 NA
ATOM     23  H   UNL     1      49.352   5.709  12.491  0.00  0.00    +0.000 HD
ATOM     24  H   UNL     1      49.178   6.613  13.838  0.00  0.00    +0.000 HD
ENDBRANCH  21  22
ENDBRANCH  19  21
ENDBRANCH  14  15
ENDBRANCH  13  14
ENDBRANCH   1  13
TORSDOF 8
ENDMDL
MODEL 7
REMARK VINA RESULT:    -5.907      4.768      7.717
REMARK INTER + INTRA:          -9.272
REMARK INTER:                  -8.808
REMARK INTRA:                  -0.463
REMARK UNBOUND:                -0.948
REMARK  Name = 
REMARK  9 active torsions:
REMARK  status: ('A' for Active; 'I' for Inactive)
REMARK    1  A    between atoms: C_1  and  C_2
REMARK    2  A    between atoms: C_4  and  C_5
REMARK    3  A    between atoms: C_5  and  O_7
REMARK    4  A    between atoms: C_10  and  O_11
REMARK    5  A    between atoms: O_11  and  C_12
REMARK    6  A    between atoms: C_12  and  C_13
REMARK    7  A    between atoms: C_13  and  C_14
REMARK    8  A    between atoms: C_18  and  C_19
REMARK    9  A    between atoms: C_19  and  N_20
REMARK                            x       y       z     vdW  Elec       q    Type
REMARK                         _______ _______ _______ _____ _____    ______ ____
ROOT
ATOM      1  O   UNL     1      47.765   4.557  14.722  0.00  0.00    +0.000 OA
ENDROOT
BRANCH   1   8
ATOM      2  C   UNL     1      47.480   7.070  13.500  0.00  0.00    +0.000 C 
ATOM      3  C   UNL     1      46.688   5.863  13.063  0.00  0.00    +0.000 A 
ATOM      4  C   UNL     1      45.765   5.997  12.006  0.00  0.00    +0.000 A 
ATOM      5  C   UNL     1      45.028   4.891  11.565  0.00  0.00    +0.000 A 
ATOM      6  C   UNL     1      45.250   3.644  12.145  0.00  0.00    +0.000 A 
ATOM      7  C   UNL     1      46.173   3.502  13.187  0.00  0.00    +0.000 A 
ATOM      8  C   UNL     1      46.891   4.604  13.663  0.00  0.00    +0.000 A 
BRANCH   5   9
ATOM      9  C   UNL     1      44.029   4.983  10.471  0.00  0.00    +0.000 C 
ATOM     10  O   UNL     1      42.860   5.270  10.666  0.00  0.00    +0.000 OA
BRANCH   9  11
ATOM     11  O   UNL     1      44.543   4.778   9.241  0.00  0.00    +0.000 OA
ATOM     12  H   UNL     1      44.398   5.504   8.608  0.00  0.00    +0.000 HD
ENDBRANCH   9  11
ENDBRANCH   5   9
ENDBRANCH   1   8
BRANCH   1  13
ATOM     13  C   UNL     1      47.207   4.422  16.036  0.00  0.00    +0.000 C 
BRANCH  13  14
ATOM     14  C   UNL     1      47.920   3.315  16.826  0.00  0.00    +0.000 C 
BRANCH  14  15
ATOM     15  C   UNL     1      49.370   3.541  17.217  0.00  0.00    +0.000 A 
ATOM     16  C   UNL     1      49.926   4.804  17.452  0.00  0.00    +0.000 A 
ATOM     17  C   UNL     1      51.277   4.938  17.779  0.00  0.00    +0.000 A 
ATOM     18  C   UNL     1      52.097   3.814  17.877  0.00  0.00    +0.000 A 
ATOM     19  C   UNL     1      51.569   2.536  17.662  0.00  0.00    +0.000 A 
ATOM     20  C   UNL     1      50.208   2.415  17.334  0.00  0.00    +0.000 A 
BRANCH  19  21
ATOM     21  C   UNL     1      52.448   1.315  17.758  0.00  0.00    +0.000 C 
BRANCH  21  22
ATOM     22  N   UNL     1      51.683   0.125  18.108  0.00  0.00    +0.000 NA
ATOM     23  H   UNL     1      51.919  -0.145  19.062  0.00  0.00    +0.000 HD
ATOM     24  H   UNL     1      51.973  -0.645  17.510  0.00  0.00    +0.000 HD
ENDBRANCH  21  22
ENDBRANCH  19  21
ENDBRANCH  14  15
ENDBRANCH  13  14
ENDBRANCH   1  13
TORSDOF 8
ENDMDL
MODEL 8
REMARK VINA RESULT:    -5.766      1.651      2.441
REMARK INTER + INTRA:          -9.073
REMARK INTER:                  -7.974
REMARK INTRA:                  -1.099
REMARK UNBOUND:                -0.948
REMARK  Name = 
REMARK  9 active torsions:
REMARK  status: ('A' for Active; 'I' for Inactive)
REMARK    1  A    between atoms: C_1  and  C_2
REMARK    2  A    between atoms: C_4  and  C_5
REMARK    3  A    between atoms: C_5  and  O_7
REMARK    4  A    between atoms: C_10  and  O_11
REMARK    5  A    between atoms: O_11  and  C_12
REMARK    6  A    between atoms: C_12  and  C_13
REMARK    7  A    between atoms: C_13  and  C_14
REMARK    8  A    between atoms: C_18  and  C_19
REMARK    9  A    between atoms: C_19  and  N_20
REMARK                            x       y       z     vdW  Elec       q    Type
REMARK                         _______ _______ _______ _____ _____    ______ ____
ROOT
ATOM      1  O   UNL     1      44.198   6.179  12.779  0.00  0.00    +0.000 OA
ENDROOT
BRANCH   1   8
ATOM      2  C   UNL     1      46.273   4.379  13.365  0.00  0.00    +0.000 C 
ATOM      3  C   UNL     1      46.533   5.799  12.931  0.00  0.00    +0.000 A 
ATOM      4  C   UNL     1      47.864   6.247  12.818  0.00  0.00    +0.000 A 
ATOM      5  C   UNL     1      48.140   7.555  12.400  0.00  0.00    +0.000 A 
ATOM      6  C   UNL     1      47.087   8.396  12.045  0.00  0.00    +0.000 A 
ATOM      7  C   UNL     1      45.764   7.954  12.144  0.00  0.00    +0.000 A 
ATOM      8  C   UNL     1      45.470   6.663  12.595  0.00  0.00    +0.000 A 
BRANCH   5   9
ATOM      9  C   UNL     1      49.522   8.082  12.285  0.00  0.00    +0.000 C 
ATOM     10  O   UNL     1      49.790   9.108  11.682  0.00  0.00    +0.000 OA
BRANCH   9  11
ATOM     11  O   UNL     1      50.441   7.359  12.957  0.00  0.00    +0.000 OA
ATOM     12  H   UNL     1      50.811   7.794  13.747  0.00  0.00    +0.000 HD
ENDBRANCH   9  11
ENDBRANCH   5   9
ENDBRANCH   1   8
BRANCH   1  13
ATOM     13  C   UNL     1      43.421   5.901  11.606  0.00  0.00    +0.000 C 
BRANCH  13  14
ATOM     14  C   UNL     1      43.203   4.390  11.437  0.00  0.00    +0.000 C 
BRANCH  14  15
ATOM     15  C   UNL     1      44.008   3.670  10.370  0.00  0.00    +0.000 A 
ATOM     16  C   UNL     1      43.979   2.285  10.173  0.00  0.00    +0.000 A 
ATOM     17  C   UNL     1      44.772   1.687   9.190  0.00  0.00    +0.000 A 
ATOM     18  C   UNL     1      45.606   2.463   8.385  0.00  0.00    +0.000 A 
ATOM     19  C   UNL     1      45.647   3.852   8.547  0.00  0.00    +0.000 A 
ATOM     20  C   UNL     1      44.845   4.440   9.539  0.00  0.00    +0.000 A 
BRANCH  19  21
ATOM     21  C   UNL     1      46.551   4.699   7.687  0.00  0.00    +0.000 C 
BRANCH  21  22
ATOM     22  N   UNL     1      46.916   4.016   6.451  0.00  0.00    +0.000 NA
ATOM     23  H   UNL     1      46.808   3.013   6.590  0.00  0.00    +0.000 HD
ATOM     24  H   UNL     1      47.902   4.177   6.261  0.00  0.00    +0.000 HD
ENDBRANCH  21  22
ENDBRANCH  19  21
ENDBRANCH  14  15
ENDBRANCH  13  14
ENDBRANCH   1  13
TORSDOF 8
ENDMDL
MODEL 9
REMARK VINA RESULT:    -5.585      4.510      7.979
REMARK INTER + INTRA:          -8.818
REMARK INTER:                  -7.929
REMARK INTRA:                  -0.888
REMARK UNBOUND:                -0.948
REMARK  Name = 
REMARK  9 active torsions:
REMARK  status: ('A' for Active; 'I' for Inactive)
REMARK    1  A    between atoms: C_1  and  C_2
REMARK    2  A    between atoms: C_4  and  C_5
REMARK    3  A    between atoms: C_5  and  O_7
REMARK    4  A    between atoms: C_10  and  O_11
REMARK    5  A    between atoms: O_11  and  C_12
REMARK    6  A    between atoms: C_12  and  C_13
REMARK    7  A    between atoms: C_13  and  C_14
REMARK    8  A    between atoms: C_18  and  C_19
REMARK    9  A    between atoms: C_19  and  N_20
REMARK                            x       y       z     vdW  Elec       q    Type
REMARK                         _______ _______ _______ _____ _____    ______ ____
ROOT
ATOM      1  O   UNL     1      48.763   6.122  13.184  0.00  0.00    +0.000 OA
ENDROOT
BRANCH   1   8
ATOM      2  C   UNL     1      47.160   4.515  14.840  0.00  0.00    +0.000 C 
ATOM      3  C   UNL     1      46.614   5.221  13.624  0.00  0.00    +0.000 A 
ATOM      4  C   UNL     1      45.252   5.070  13.300  0.00  0.00    +0.000 A 
ATOM      5  C   UNL     1      44.710   5.727  12.189  0.00  0.00    +0.000 A 
ATOM      6  C   UNL     1      45.517   6.575  11.434  0.00  0.00    +0.000 A 
ATOM      7  C   UNL     1      46.868   6.739  11.757  0.00  0.00    +0.000 A 
ATOM      8  C   UNL     1      47.433   6.062  12.842  0.00  0.00    +0.000 A 
BRANCH   5   9
ATOM      9  C   UNL     1      43.287   5.584  11.791  0.00  0.00    +0.000 C 
ATOM     10  O   UNL     1      42.942   5.317  10.652  0.00  0.00    +0.000 OA
BRANCH   9  11
ATOM     11  O   UNL     1      42.417   5.717  12.813  0.00  0.00    +0.000 OA
ATOM     12  H   UNL     1      41.907   4.914  13.028  0.00  0.00    +0.000 HD
ENDBRANCH   9  11
ENDBRANCH   5   9
ENDBRANCH   1   8
BRANCH   1  13
ATOM     13  C   UNL     1      49.286   7.396  13.581  0.00  0.00    +0.000 C 
BRANCH  13  14
ATOM     14  C   UNL     1      49.932   7.316  14.972  0.00  0.00    +0.000 C 
BRANCH  14  15
ATOM     15  C   UNL     1      49.117   7.790  16.163  0.00  0.00    +0.000 A 
ATOM     16  C   UNL     1      48.762   9.126  16.381  0.00  0.00    +0.000 A 
ATOM     17  C   UNL     1      48.036   9.493  17.517  0.00  0.00    +0.000 A 
ATOM     18  C   UNL     1      47.652   8.534  18.454  0.00  0.00    +0.000 A 
ATOM     19  C   UNL     1      47.980   7.188  18.258  0.00  0.00    +0.000 A 
ATOM     20  C   UNL     1      48.710   6.831  17.111  0.00  0.00    +0.000 A 
BRANCH  19  21
ATOM     21  C   UNL     1      47.576   6.144  19.268  0.00  0.00    +0.000 C 
BRANCH  21  22
ATOM     22  N   UNL     1      46.464   5.331  18.790  0.00  0.00    +0.000 NA
ATOM     23  H   UNL     1      46.783   4.369  18.692  0.00  0.00    +0.000 HD
ATOM     24  H   UNL     1      46.199   5.644  17.859  0.00  0.00    +0.000 HD
ENDBRANCH  21  22
ENDBRANCH  19  21
ENDBRANCH  14  15
ENDBRANCH  13  14
ENDBRANCH   1  13
TORSDOF 8
ENDMDL
