MODEL 1
REMARK VINA RESULT:    -7.470      0.000      0.000
REMARK INTER + INTRA:         -11.806
REMARK INTER:                 -10.964
REMARK INTRA:                  -0.842
REMARK UNBOUND:                -0.842
REMARK  Name = 
REMARK  9 active torsions:
REMARK  status: ('A' for Active; 'I' for Inactive)
REMARK    1  A    between atoms: C_1  and  S_2
REMARK    2  A    between atoms: S_2  and  C_5
REMARK    3  A    between atoms: C_8  and  N_9
REMARK    4  A    between atoms: N_9  and  C_10
REMARK    5  A    between atoms: C_10  and  C_11
REMARK    6  A    between atoms: C_11  and  C_12
REMARK    7  A    between atoms: C_16  and  O_17
REMARK    8  A    between atoms: O_17  and  C_18
REMARK    9  A    between atoms: C_24  and  C_25
REMARK                            x       y       z     vdW  Elec       q    Type
REMARK                         _______ _______ _______ _____ _____    ______ ____
ROOT
ATOM      1  N   UNL     1      47.055   7.180  12.727  0.00  0.00    +0.000 N 
ATOM      2  H   UNL     1      47.617   8.027  12.778  0.00  0.00    +0.000 HD
ENDROOT
BRANCH   1   6
ATOM      3  C   UNL     1      47.792   4.631  16.020  0.00  0.00    +0.000 A 
ATOM      4  C   UNL     1      46.893   4.245  15.018  0.00  0.00    +0.000 A 
ATOM      5  C   UNL     1      46.678   5.054  13.905  0.00  0.00    +0.000 A 
ATOM      6  C   UNL     1      47.325   6.283  13.770  0.00  0.00    +0.000 A 
ATOM      7  C   UNL     1      48.211   6.672  14.777  0.00  0.00    +0.000 A 
ATOM      8  C   UNL     1      48.489   5.839  15.879  0.00  0.00    +0.000 A 
BRANCH   8   9
ATOM      9  C   UNL     1      49.676   6.183  16.723  0.00  0.00    +0.000 C 
ATOM     10  N   UNL     1      49.489   6.933  17.859  0.00  0.00    +0.000 N 
ATOM     11  O   UNL     1      50.800   5.932  16.325  0.00  0.00    +0.000 OA
ATOM     12  H   UNL     1      48.633   7.364  18.145  0.00  0.00    +0.000 HD
ATOM     13  H   UNL     1      50.345   7.224  18.331  0.00  0.00    +0.000 HD
ENDBRANCH   8   9
BRANCH   3  15
ATOM     14  C   UNL     1      49.117   2.411  17.106  0.00  0.00    +0.000 C 
ATOM     15  S   UNL     1      47.844   3.589  17.467  0.00  0.00    +0.000 S 
ATOM     16  O   UNL     1      46.589   2.847  17.480  0.00  0.00    +0.000 OA
ATOM     17  O   UNL     1      48.188   4.387  18.626  0.00  0.00    +0.000 OA
ENDBRANCH   3  15
ENDBRANCH   1   6
BRANCH   1  18
ATOM     18  C   UNL     1      46.950   6.636  11.366  0.00  0.00    +0.000 C 
BRANCH  18  19
ATOM     19  C   UNL     1      45.484   6.437  10.966  0.00  0.00    +0.000 C 
BRANCH  19  20
ATOM     20  C   UNL     1      45.248   5.123  10.253  0.00  0.00    +0.000 A 
ATOM     21  C   UNL     1      44.536   4.092  10.876  0.00  0.00    +0.000 A 
ATOM     22  C   UNL     1      44.283   2.899  10.191  0.00  0.00    +0.000 A 
ATOM     23  C   UNL     1      44.742   2.716   8.883  0.00  0.00    +0.000 A 
ATOM     24  C   UNL     1      45.486   3.718   8.264  0.00  0.00    +0.000 A 
ATOM     25  C   UNL     1      45.731   4.916   8.951  0.00  0.00    +0.000 A 
BRANCH  24  26
ATOM     26  O   UNL     1      45.983   3.669   6.982  0.00  0.00    +0.000 OA
BRANCH  26  27
ATOM     27  C   UNL     1      46.531   2.428   6.476  0.00  0.00    +0.000 C 
ATOM     28  C   UNL     1      47.973   2.057   6.871  0.00  0.00    +0.000 C 
ATOM     29  N   UNL     1      48.343   1.885   5.460  0.00  0.00    +0.000 NA
ATOM     30  C   UNL     1      47.069   2.473   5.025  0.00  0.00    +0.000 C 
ATOM     31  H   UNL     1      48.474   0.914   5.176  0.00  0.00    +0.000 HD
ENDBRANCH  26  27
ENDBRANCH  24  26
ENDBRANCH  19  20
ENDBRANCH  18  19
ENDBRANCH   1  18
TORSDOF 8
ENDMDL
MODEL 2
REMARK VINA RESULT:    -7.279      1.404      2.349
REMARK INTER + INTRA:         -11.524
REMARK INTER:                 -10.536
REMARK INTRA:                  -0.988
REMARK UNBOUND:                -0.842
REMARK  Name = 
REMARK  9 active torsions:
REMARK  status: ('A' for Active; 'I' for Inactive)
REMARK    1  A    between atoms: C_1  and  S_2
REMARK    2  A    between atoms: S_2  and  C_5
REMARK    3  A    between atoms: C_8  and  N_9
REMARK    4  A    between atoms: N_9  and  C_10
REMARK    5  A    between atoms: C_10  and  C_11
REMARK    6  A    between atoms: C_11  and  C_12
REMARK    7  A    between atoms: C_16  and  O_17
REMARK    8  A    between atoms: O_17  and  C_18
REMARK    9  A    between atoms: C_24  and  C_25
REMARK                            x       y       z     vdW  Elec       q    Type
REMARK                         _______ _______ _______ _____ _____    ______ ____
ROOT
ATOM      1  N   UNL     1      46.614   6.076  12.537  0.00  0.00    +0.000 N 
ATOM      2  H   UNL     1      46.849   5.296  11.928  0.00  0.00    +0.000 HD
ENDROOT
BRANCH   1   6
ATOM      3  C   UNL     1      48.759   5.758  16.168  0.00  0.00    +0.000 A 
ATOM      4  C   UNL     1      48.834   6.931  15.407  0.00  0.00    +0.000 A 
ATOM      5  C   UNL     1      48.096   7.066  14.233  0.00  0.00    +0.000 A 
ATOM      6  C   UNL     1      47.286   6.030  13.767  0.00  0.00    +0.000 A 
ATOM      7  C   UNL     1      47.223   4.856  14.522  0.00  0.00    +0.000 A 
ATOM      8  C   UNL     1      47.913   4.725  15.743  0.00  0.00    +0.000 A 
BRANCH   8   9
ATOM      9  C   UNL     1      47.534   3.582  16.633  0.00  0.00    +0.000 C 
ATOM     10  N   UNL     1      48.334   2.466  16.658  0.00  0.00    +0.000 N 
ATOM     11  O   UNL     1      46.456   3.585  17.201  0.00  0.00    +0.000 OA
ATOM     12  H   UNL     1      49.117   2.290  16.062  0.00  0.00    +0.000 HD
ATOM     13  H   UNL     1      47.966   1.683  17.199  0.00  0.00    +0.000 HD
ENDBRANCH   8   9
BRANCH   3  15
ATOM     14  C   UNL     1      50.912   7.083  17.382  0.00  0.00    +0.000 C 
ATOM     15  S   UNL     1      49.883   5.651  17.549  0.00  0.00    +0.000 S 
ATOM     16  O   UNL     1      50.737   4.498  17.290  0.00  0.00    +0.000 OA
ATOM     17  O   UNL     1      49.133   5.691  18.788  0.00  0.00    +0.000 OA
ENDBRANCH   3  15
ENDBRANCH   1   6
BRANCH   1  18
ATOM     18  C   UNL     1      45.178   6.386  12.553  0.00  0.00    +0.000 C 
BRANCH  18  19
ATOM     19  C   UNL     1      44.614   6.453  11.130  0.00  0.00    +0.000 C 
BRANCH  19  20
ATOM     20  C   UNL     1      44.715   5.132  10.399  0.00  0.00    +0.000 A 
ATOM     21  C   UNL     1      44.069   3.992  10.892  0.00  0.00    +0.000 A 
ATOM     22  C   UNL     1      44.130   2.788  10.184  0.00  0.00    +0.000 A 
ATOM     23  C   UNL     1      44.842   2.701   8.983  0.00  0.00    +0.000 A 
ATOM     24  C   UNL     1      45.524   3.816   8.501  0.00  0.00    +0.000 A 
ATOM     25  C   UNL     1      45.453   5.024   9.209  0.00  0.00    +0.000 A 
BRANCH  24  26
ATOM     26  O   UNL     1      46.247   3.867   7.332  0.00  0.00    +0.000 OA
BRANCH  26  27
ATOM     27  C   UNL     1      46.579   2.636   6.644  0.00  0.00    +0.000 C 
ATOM     28  C   UNL     1      47.949   1.991   6.931  0.00  0.00    +0.000 C 
ATOM     29  N   UNL     1      48.263   1.959   5.497  0.00  0.00    +0.000 NA
ATOM     30  C   UNL     1      47.095   2.795   5.193  0.00  0.00    +0.000 C 
ATOM     31  H   UNL     1      48.231   1.028   5.081  0.00  0.00    +0.000 HD
ENDBRANCH  26  27
ENDBRANCH  24  26
ENDBRANCH  19  20
ENDBRANCH  18  19
ENDBRANCH   1  18
TORSDOF 8
ENDMDL
MODEL 3
REMARK VINA RESULT:    -6.986      3.247      4.754
REMARK INTER + INTRA:         -11.095
REMARK INTER:                  -9.529
REMARK INTRA:                  -1.567
REMARK UNBOUND:                -0.842
REMARK  Name = 
REMARK  9 active torsions:
REMARK  status: ('A' for Active; 'I' for Inactive)
REMARK    1  A    between atoms: C_1  and  S_2
REMARK    2  A    between atoms: S_2  and  C_5
REMARK    3  A    between atoms: C_8  and  N_9
REMARK    4  A    between atoms: N_9  and  C_10
REMARK    5  A    between atoms: C_10  and  C_11
REMARK    6  A    between atoms: C_11  and  C_12
REMARK    7  A    between atoms: C_16  and  O_17
REMARK    8  A    between atoms: O_17  and  C_18
REMARK    9  A    between atoms: C_24  and  C_25
REMARK                            x       y       z     vdW  Elec       q    Type
REMARK                         _______ _______ _______ _____ _____    ______ ____
ROOT
ATOM      1  N   UNL     1      49.029   8.799  14.575  0.00  0.00    +0.000 N 
ATOM      2  H   UNL     1      49.918   9.168  14.905  0.00  0.00    +0.000 HD
ENDROOT
BRANCH   1   6
ATOM      3  C   UNL     1      48.092   5.066  16.325  0.00  0.00    +0.000 A 
ATOM      4  C   UNL     1      48.651   6.087  17.104  0.00  0.00    +0.000 A 
ATOM      5  C   UNL     1      48.920   7.336  16.550  0.00  0.00    +0.000 A 
ATOM      6  C   UNL     1      48.671   7.597  15.202  0.00  0.00    +0.000 A 
ATOM      7  C   UNL     1      48.125   6.572  14.425  0.00  0.00    +0.000 A 
ATOM      8  C   UNL     1      47.788   5.323  14.982  0.00  0.00    +0.000 A 
BRANCH   8   9
ATOM      9  C   UNL     1      46.920   4.415  14.168  0.00  0.00    +0.000 C 
ATOM     10  N   UNL     1      45.556   4.566  14.234  0.00  0.00    +0.000 N 
ATOM     11  O   UNL     1      47.410   3.466  13.583  0.00  0.00    +0.000 OA
ATOM     12  H   UNL     1      45.061   5.175  14.853  0.00  0.00    +0.000 HD
ATOM     13  H   UNL     1      45.018   3.852  13.743  0.00  0.00    +0.000 HD
ENDBRANCH   8   9
BRANCH   3  15
ATOM     14  C   UNL     1      48.614   3.731  18.736  0.00  0.00    +0.000 C 
ATOM     15  S   UNL     1      47.959   3.469  17.111  0.00  0.00    +0.000 S 
ATOM     16  O   UNL     1      48.902   2.596  16.423  0.00  0.00    +0.000 OA
ATOM     17  O   UNL     1      46.566   3.073  17.170  0.00  0.00    +0.000 OA
ENDBRANCH   3  15
ENDBRANCH   1   6
BRANCH   1  18
ATOM     18  C   UNL     1      48.873   8.884  13.116  0.00  0.00    +0.000 C 
BRANCH  18  19
ATOM     19  C   UNL     1      47.879   9.985  12.733  0.00  0.00    +0.000 C 
BRANCH  19  20
ATOM     20  C   UNL     1      46.568   9.433  12.216  0.00  0.00    +0.000 A 
ATOM     21  C   UNL     1      45.567  10.293  11.749  0.00  0.00    +0.000 A 
ATOM     22  C   UNL     1      44.378   9.771  11.231  0.00  0.00    +0.000 A 
ATOM     23  C   UNL     1      44.167   8.389  11.179  0.00  0.00    +0.000 A 
ATOM     24  C   UNL     1      45.138   7.522  11.678  0.00  0.00    +0.000 A 
ATOM     25  C   UNL     1      46.333   8.049  12.188  0.00  0.00    +0.000 A 
BRANCH  24  26
ATOM     26  O   UNL     1      45.060   6.149  11.675  0.00  0.00    +0.000 OA
BRANCH  26  27
ATOM     27  C   UNL     1      43.925   5.499  11.052  0.00  0.00    +0.000 C 
ATOM     28  C   UNL     1      42.780   5.014  11.961  0.00  0.00    +0.000 C 
ATOM     29  N   UNL     1      42.868   3.662  11.393  0.00  0.00    +0.000 NA
ATOM     30  C   UNL     1      44.116   4.004  10.699  0.00  0.00    +0.000 C 
ATOM     31  H   UNL     1      42.098   3.417  10.771  0.00  0.00    +0.000 HD
ENDBRANCH  26  27
ENDBRANCH  24  26
ENDBRANCH  19  20
ENDBRANCH  18  19
ENDBRANCH   1  18
TORSDOF 8
ENDMDL
MODEL 4
REMARK VINA RESULT:    -6.788      1.343      1.777
REMARK INTER + INTRA:         -10.805
REMARK INTER:                  -9.857
REMARK INTRA:                  -0.947
REMARK UNBOUND:                -0.842
REMARK  Name = 
REMARK  9 active torsions:
REMARK  status: ('A' for Active; 'I' for Inactive)
REMARK    1  A    between atoms: C_1  and  S_2
REMARK    2  A    between atoms: S_2  and  C_5
REMARK    3  A    between atoms: C_8  and  N_9
REMARK    4  A    between atoms: N_9  and  C_10
REMARK    5  A    between atoms: C_10  and  C_11
REMARK    6  A    between atoms: C_11  and  C_12
REMARK    7  A    between atoms: C_16  and  O_17
REMARK    8  A    between atoms: O_17  and  C_18
REMARK    9  A    between atoms: C_24  and  C_25
REMARK                            x       y       z     vdW  Elec       q    Type
REMARK                         _______ _______ _______ _____ _____    ______ ____
ROOT
ATOM      1  N   UNL     1      47.190   7.165  12.655  0.00  0.00    +0.000 N 
ATOM      2  H   UNL     1      47.458   6.764  11.759  0.00  0.00    +0.000 HD
ENDROOT
BRANCH   1   6
ATOM      3  C   UNL     1      47.805   4.709  16.042  0.00  0.00    +0.000 A 
ATOM      4  C   UNL     1      46.932   4.301  15.027  0.00  0.00    +0.000 A 
ATOM      5  C   UNL     1      46.757   5.078  13.885  0.00  0.00    +0.000 A 
ATOM      6  C   UNL     1      47.420   6.296  13.732  0.00  0.00    +0.000 A 
ATOM      7  C   UNL     1      48.281   6.707  14.752  0.00  0.00    +0.000 A 
ATOM      8  C   UNL     1      48.519   5.905  15.886  0.00  0.00    +0.000 A 
BRANCH   8   9
ATOM      9  C   UNL     1      49.685   6.263  16.754  0.00  0.00    +0.000 C 
ATOM     10  N   UNL     1      49.518   7.212  17.733  0.00  0.00    +0.000 N 
ATOM     11  O   UNL     1      50.794   5.832  16.492  0.00  0.00    +0.000 OA
ATOM     12  H   UNL     1      48.702   7.772  17.876  0.00  0.00    +0.000 HD
ATOM     13  H   UNL     1      50.372   7.488  18.217  0.00  0.00    +0.000 HD
ENDBRANCH   8   9
BRANCH   3  15
ATOM     14  C   UNL     1      49.170   2.604  17.296  0.00  0.00    +0.000 C 
ATOM     15  S   UNL     1      47.805   3.710  17.521  0.00  0.00    +0.000 S 
ATOM     16  O   UNL     1      46.599   2.893  17.460  0.00  0.00    +0.000 OA
ATOM     17  O   UNL     1      48.008   4.559  18.678  0.00  0.00    +0.000 OA
ENDBRANCH   3  15
ENDBRANCH   1   6
BRANCH   1  18
ATOM     18  C   UNL     1      45.905   7.875  12.611  0.00  0.00    +0.000 C 
BRANCH  18  19
ATOM     19  C   UNL     1      45.126   7.523  11.339  0.00  0.00    +0.000 C 
BRANCH  19  20
ATOM     20  C   UNL     1      44.520   6.137  11.390  0.00  0.00    +0.000 A 
ATOM     21  C   UNL     1      43.271   5.926  11.986  0.00  0.00    +0.000 A 
ATOM     22  C   UNL     1      42.700   4.649  11.986  0.00  0.00    +0.000 A 
ATOM     23  C   UNL     1      43.368   3.567  11.403  0.00  0.00    +0.000 A 
ATOM     24  C   UNL     1      44.630   3.755  10.842  0.00  0.00    +0.000 A 
ATOM     25  C   UNL     1      45.196   5.038  10.835  0.00  0.00    +0.000 A 
BRANCH  24  26
ATOM     26  O   UNL     1      45.384   2.782  10.228  0.00  0.00    +0.000 OA
BRANCH  26  27
ATOM     27  C   UNL     1      45.215   2.536   8.810  0.00  0.00    +0.000 C 
ATOM     28  C   UNL     1      46.159   1.524   8.132  0.00  0.00    +0.000 C 
ATOM     29  N   UNL     1      46.535   2.517   7.117  0.00  0.00    +0.000 NA
ATOM     30  C   UNL     1      45.855   3.582   7.865  0.00  0.00    +0.000 C 
ATOM     31  H   UNL     1      46.143   2.340   6.192  0.00  0.00    +0.000 HD
ENDBRANCH  26  27
ENDBRANCH  24  26
ENDBRANCH  19  20
ENDBRANCH  18  19
ENDBRANCH   1  18
TORSDOF 8
ENDMDL
MODEL 5
REMARK VINA RESULT:    -6.692      4.012      8.030
REMARK INTER + INTRA:         -10.663
REMARK INTER:                  -9.727
REMARK INTRA:                  -0.936
REMARK UNBOUND:                -0.842
REMARK  Name = 
REMARK  9 active torsions:
REMARK  status: ('A' for Active; 'I' for Inactive)
REMARK    1  A    between atoms: C_1  and  S_2
REMARK    2  A    between atoms: S_2  and  C_5
REMARK    3  A    between atoms: C_8  and  N_9
REMARK    4  A    between atoms: N_9  and  C_10
REMARK    5  A    between atoms: C_10  and  C_11
REMARK    6  A    between atoms: C_11  and  C_12
REMARK    7  A    between atoms: C_16  and  O_17
REMARK    8  A    between atoms: O_17  and  C_18
REMARK    9  A    between atoms: C_24  and  C_25
REMARK                            x       y       z     vdW  Elec       q    Type
REMARK                         _______ _______ _______ _____ _____    ______ ____
ROOT
ATOM      1  N   UNL     1      48.032   8.273  13.708  0.00  0.00    +0.000 N 
ATOM      2  H   UNL     1      47.852   8.596  14.656  0.00  0.00    +0.000 HD
ENDROOT
BRANCH   1   6
ATOM      3  C   UNL     1      45.071   5.489  12.540  0.00  0.00    +0.000 A 
ATOM      4  C   UNL     1      44.962   6.833  12.160  0.00  0.00    +0.000 A 
ATOM      5  C   UNL     1      45.955   7.749  12.499  0.00  0.00    +0.000 A 
ATOM      6  C   UNL     1      47.067   7.365  13.249  0.00  0.00    +0.000 A 
ATOM      7  C   UNL     1      47.166   6.027  13.636  0.00  0.00    +0.000 A 
ATOM      8  C   UNL     1      46.204   5.072  13.251  0.00  0.00    +0.000 A 
BRANCH   8   9
ATOM      9  C   UNL     1      46.555   3.628  13.427  0.00  0.00    +0.000 C 
ATOM     10  N   UNL     1      45.841   2.682  12.732  0.00  0.00    +0.000 N 
ATOM     11  O   UNL     1      47.352   3.295  14.286  0.00  0.00    +0.000 OA
ATOM     12  H   UNL     1      45.029   2.851  12.173  0.00  0.00    +0.000 HD
ATOM     13  H   UNL     1      46.055   1.714  12.975  0.00  0.00    +0.000 HD
ENDBRANCH   8   9
BRANCH   3  15
ATOM     14  C   UNL     1      42.334   5.618  11.941  0.00  0.00    +0.000 C 
ATOM     15  S   UNL     1      43.653   4.462  12.193  0.00  0.00    +0.000 S 
ATOM     16  O   UNL     1      43.350   3.755  13.431  0.00  0.00    +0.000 OA
ATOM     17  O   UNL     1      43.900   3.685  10.995  0.00  0.00    +0.000 OA
ENDBRANCH   3  15
ENDBRANCH   1   6
BRANCH   1  18
ATOM     18  C   UNL     1      49.445   7.951  13.464  0.00  0.00    +0.000 C 
BRANCH  18  19
ATOM     19  C   UNL     1      50.350   8.633  14.495  0.00  0.00    +0.000 C 
BRANCH  19  20
ATOM     20  C   UNL     1      50.368   7.910  15.825  0.00  0.00    +0.000 A 
ATOM     21  C   UNL     1      50.670   8.597  17.006  0.00  0.00    +0.000 A 
ATOM     22  C   UNL     1      50.638   7.930  18.235  0.00  0.00    +0.000 A 
ATOM     23  C   UNL     1      50.315   6.570  18.301  0.00  0.00    +0.000 A 
ATOM     24  C   UNL     1      50.052   5.864  17.128  0.00  0.00    +0.000 A 
ATOM     25  C   UNL     1      50.076   6.539  15.899  0.00  0.00    +0.000 A 
BRANCH  24  26
ATOM     26  O   UNL     1      49.711   4.533  17.057  0.00  0.00    +0.000 OA
BRANCH  26  27
ATOM     27  C   UNL     1      48.634   4.027  17.882  0.00  0.00    +0.000 C 
ATOM     28  C   UNL     1      48.043   2.646  17.536  0.00  0.00    +0.000 C 
ATOM     29  N   UNL     1      46.688   3.210  17.484  0.00  0.00    +0.000 NA
ATOM     30  C   UNL     1      47.223   4.576  17.557  0.00  0.00    +0.000 C 
ATOM     31  H   UNL     1      46.095   2.951  18.272  0.00  0.00    +0.000 HD
ENDBRANCH  26  27
ENDBRANCH  24  26
ENDBRANCH  19  20
ENDBRANCH  18  19
ENDBRANCH   1  18
TORSDOF 8
ENDMDL
MODEL 6
REMARK VINA RESULT:    -6.639      1.924      2.778
REMARK INTER + INTRA:         -10.585
REMARK INTER:                  -9.718
REMARK INTRA:                  -0.868
REMARK UNBOUND:                -0.842
REMARK  Name = 
REMARK  9 active torsions:
REMARK  status: ('A' for Active; 'I' for Inactive)
REMARK    1  A    between atoms: C_1  and  S_2
REMARK    2  A    between atoms: S_2  and  C_5
REMARK    3  A    between atoms: C_8  and  N_9
REMARK    4  A    between atoms: N_9  and  C_10
REMARK    5  A    between atoms: C_10  and  C_11
REMARK    6  A    between atoms: C_11  and  C_12
REMARK    7  A    between atoms: C_16  and  O_17
REMARK    8  A    between atoms: O_17  and  C_18
REMARK    9  A    between atoms: C_24  and  C_25
REMARK                            x       y       z     vdW  Elec       q    Type
REMARK                         _______ _______ _______ _____ _____    ______ ____
ROOT
ATOM      1  N   UNL     1      48.633   7.585  13.672  0.00  0.00    +0.000 N 
ATOM      2  H   UNL     1      49.263   8.354  13.459  0.00  0.00    +0.000 HD
ENDROOT
BRANCH   1   6
ATOM      3  C   UNL     1      49.597   5.389  17.155  0.00  0.00    +0.000 A 
ATOM      4  C   UNL     1      50.538   6.257  16.588  0.00  0.00    +0.000 A 
ATOM      5  C   UNL     1      50.216   7.021  15.469  0.00  0.00    +0.000 A 
ATOM      6  C   UNL     1      48.963   6.922  14.863  0.00  0.00    +0.000 A 
ATOM      7  C   UNL     1      48.031   6.046  15.424  0.00  0.00    +0.000 A 
ATOM      8  C   UNL     1      48.316   5.311  16.592  0.00  0.00    +0.000 A 
BRANCH   8   9
ATOM      9  C   UNL     1      47.168   4.661  17.298  0.00  0.00    +0.000 C 
ATOM     10  N   UNL     1      46.716   5.207  18.475  0.00  0.00    +0.000 N 
ATOM     11  O   UNL     1      46.747   3.584  16.913  0.00  0.00    +0.000 OA
ATOM     12  H   UNL     1      47.142   5.962  18.974  0.00  0.00    +0.000 HD
ATOM     13  H   UNL     1      46.006   4.660  18.961  0.00  0.00    +0.000 HD
ENDBRANCH   8   9
BRANCH   3  15
ATOM     14  C   UNL     1      51.936   4.660  18.521  0.00  0.00    +0.000 C 
ATOM     15  S   UNL     1      50.193   4.346  18.476  0.00  0.00    +0.000 S 
ATOM     16  O   UNL     1      50.034   2.973  18.013  0.00  0.00    +0.000 OA
ATOM     17  O   UNL     1      49.561   4.734  19.721  0.00  0.00    +0.000 OA
ENDBRANCH   3  15
ENDBRANCH   1   6
BRANCH   1  18
ATOM     18  C   UNL     1      48.307   6.762  12.500  0.00  0.00    +0.000 C 
BRANCH  18  19
ATOM     19  C   UNL     1      46.878   7.033  12.018  0.00  0.00    +0.000 C 
BRANCH  19  20
ATOM     20  C   UNL     1      46.100   5.762  11.754  0.00  0.00    +0.000 A 
ATOM     21  C   UNL     1      45.926   4.809  12.765  0.00  0.00    +0.000 A 
ATOM     22  C   UNL     1      45.167   3.660  12.523  0.00  0.00    +0.000 A 
ATOM     23  C   UNL     1      44.579   3.442  11.273  0.00  0.00    +0.000 A 
ATOM     24  C   UNL     1      44.777   4.362  10.246  0.00  0.00    +0.000 A 
ATOM     25  C   UNL     1      45.532   5.517  10.493  0.00  0.00    +0.000 A 
BRANCH  24  26
ATOM     26  O   UNL     1      44.246   4.272   8.980  0.00  0.00    +0.000 OA
BRANCH  26  27
ATOM     27  C   UNL     1      44.760   3.280   8.059  0.00  0.00    +0.000 C 
ATOM     28  C   UNL     1      45.545   2.088   8.641  0.00  0.00    +0.000 C 
ATOM     29  N   UNL     1      46.677   2.364   7.746  0.00  0.00    +0.000 NA
ATOM     30  C   UNL     1      46.084   3.646   7.344  0.00  0.00    +0.000 C 
ATOM     31  H   UNL     1      46.782   1.695   6.984  0.00  0.00    +0.000 HD
ENDBRANCH  26  27
ENDBRANCH  24  26
ENDBRANCH  19  20
ENDBRANCH  18  19
ENDBRANCH   1  18
TORSDOF 8
ENDMDL
MODEL 7
REMARK VINA RESULT:    -6.512      3.935      7.773
REMARK INTER + INTRA:         -10.399
REMARK INTER:                  -8.962
REMARK INTRA:                  -1.436
REMARK UNBOUND:                -0.842
REMARK  Name = 
REMARK  9 active torsions:
REMARK  status: ('A' for Active; 'I' for Inactive)
REMARK    1  A    between atoms: C_1  and  S_2
REMARK    2  A    between atoms: S_2  and  C_5
REMARK    3  A    between atoms: C_8  and  N_9
REMARK    4  A    between atoms: N_9  and  C_10
REMARK    5  A    between atoms: C_10  and  C_11
REMARK    6  A    between atoms: C_11  and  C_12
REMARK    7  A    between atoms: C_16  and  O_17
REMARK    8  A    between atoms: O_17  and  C_18
REMARK    9  A    between atoms: C_24  and  C_25
REMARK                            x       y       z     vdW  Elec       q    Type
REMARK                         _______ _______ _______ _____ _____    ______ ____
ROOT
ATOM      1  N   UNL     1      47.418   9.080  13.314  0.00  0.00    +0.000 N 
ATOM      2  H   UNL     1      46.771   9.718  13.769  0.00  0.00    +0.000 HD
ENDROOT
BRANCH   1   6
ATOM      3  C   UNL     1      45.498   5.426  12.392  0.00  0.00    +0.000 A 
ATOM      4  C   UNL     1      45.302   6.549  11.578  0.00  0.00    +0.000 A 
ATOM      5  C   UNL     1      45.965   7.744  11.844  0.00  0.00    +0.000 A 
ATOM      6  C   UNL     1      46.818   7.868  12.942  0.00  0.00    +0.000 A 
ATOM      7  C   UNL     1      47.002   6.750  13.759  0.00  0.00    +0.000 A 
ATOM      8  C   UNL     1      46.388   5.515  13.471  0.00  0.00    +0.000 A 
BRANCH   8   9
ATOM      9  C   UNL     1      46.892   4.307  14.196  0.00  0.00    +0.000 C 
ATOM     10  N   UNL     1      46.650   4.192  15.544  0.00  0.00    +0.000 N 
ATOM     11  O   UNL     1      47.633   3.522  13.631  0.00  0.00    +0.000 OA
ATOM     12  H   UNL     1      46.240   4.891  16.129  0.00  0.00    +0.000 HD
ATOM     13  H   UNL     1      47.110   3.403  16.000  0.00  0.00    +0.000 HD
ENDBRANCH   8   9
BRANCH   3  15
ATOM     14  C   UNL     1      43.165   4.676  11.028  0.00  0.00    +0.000 C 
ATOM     15  S   UNL     1      44.459   4.018  12.043  0.00  0.00    +0.000 S 
ATOM     16  O   UNL     1      43.840   3.645  13.309  0.00  0.00    +0.000 OA
ATOM     17  O   UNL     1      45.225   3.018  11.327  0.00  0.00    +0.000 OA
ENDBRANCH   3  15
ENDBRANCH   1   6
BRANCH   1  18
ATOM     18  C   UNL     1      48.731   9.020  13.969  0.00  0.00    +0.000 C 
BRANCH  18  19
ATOM     19  C   UNL     1      48.665   9.597  15.387  0.00  0.00    +0.000 C 
BRANCH  19  20
ATOM     20  C   UNL     1      48.656   8.524  16.454  0.00  0.00    +0.000 A 
ATOM     21  C   UNL     1      48.192   8.806  17.744  0.00  0.00    +0.000 A 
ATOM     22  C   UNL     1      48.145   7.795  18.710  0.00  0.00    +0.000 A 
ATOM     23  C   UNL     1      48.564   6.496  18.405  0.00  0.00    +0.000 A 
ATOM     24  C   UNL     1      49.066   6.211  17.136  0.00  0.00    +0.000 A 
ATOM     25  C   UNL     1      49.104   7.225  16.168  0.00  0.00    +0.000 A 
BRANCH  24  26
ATOM     26  O   UNL     1      49.498   4.978  16.707  0.00  0.00    +0.000 OA
BRANCH  26  27
ATOM     27  C   UNL     1      49.749   3.931  17.676  0.00  0.00    +0.000 C 
ATOM     28  C   UNL     1      51.214   3.568  17.987  0.00  0.00    +0.000 C 
ATOM     29  N   UNL     1      50.952   2.152  17.695  0.00  0.00    +0.000 NA
ATOM     30  C   UNL     1      49.630   2.481  17.148  0.00  0.00    +0.000 C 
ATOM     31  H   UNL     1      50.926   1.552  18.519  0.00  0.00    +0.000 HD
ENDBRANCH  26  27
ENDBRANCH  24  26
ENDBRANCH  19  20
ENDBRANCH  18  19
ENDBRANCH   1  18
TORSDOF 8
ENDMDL
MODEL 8
REMARK VINA RESULT:    -6.489      3.091      4.418
REMARK INTER + INTRA:         -10.365
REMARK INTER:                  -8.962
REMARK INTRA:                  -1.404
REMARK UNBOUND:                -0.842
REMARK  Name = 
REMARK  9 active torsions:
REMARK  status: ('A' for Active; 'I' for Inactive)
REMARK    1  A    between atoms: C_1  and  S_2
REMARK    2  A    between atoms: S_2  and  C_5
REMARK    3  A    between atoms: C_8  and  N_9
REMARK    4  A    between atoms: N_9  and  C_10
REMARK    5  A    between atoms: C_10  and  C_11
REMARK    6  A    between atoms: C_11  and  C_12
REMARK    7  A    between atoms: C_16  and  O_17
REMARK    8  A    between atoms: O_17  and  C_18
REMARK    9  A    between atoms: C_24  and  C_25
REMARK                            x       y       z     vdW  Elec       q    Type
REMARK                         _______ _______ _______ _____ _____    ______ ____
ROOT
ATOM      1  N   UNL     1      49.432   8.205  14.152  0.00  0.00    +0.000 N 
ATOM      2  H   UNL     1      49.689   9.155  14.408  0.00  0.00    +0.000 HD
ENDROOT
BRANCH   1   6
ATOM      3  C   UNL     1      49.880   5.287  17.179  0.00  0.00    +0.000 A 
ATOM      4  C   UNL     1      50.932   6.162  16.885  0.00  0.00    +0.000 A 
ATOM      5  C   UNL     1      50.781   7.158  15.923  0.00  0.00    +0.000 A 
ATOM      6  C   UNL     1      49.592   7.293  15.205  0.00  0.00    +0.000 A 
ATOM      7  C   UNL     1      48.548   6.410  15.492  0.00  0.00    +0.000 A 
ATOM      8  C   UNL     1      48.661   5.437  16.504  0.00  0.00    +0.000 A 
BRANCH   8   9
ATOM      9  C   UNL     1      47.403   4.765  16.960  0.00  0.00    +0.000 C 
ATOM     10  N   UNL     1      46.861   5.123  18.171  0.00  0.00    +0.000 N 
ATOM     11  O   UNL     1      46.961   3.814  16.340  0.00  0.00    +0.000 OA
ATOM     12  H   UNL     1      47.275   5.737  18.843  0.00  0.00    +0.000 HD
ATOM     13  H   UNL     1      46.068   4.557  18.474  0.00  0.00    +0.000 HD
ENDBRANCH   8   9
BRANCH   3  15
ATOM     14  C   UNL     1      52.005   4.112  18.581  0.00  0.00    +0.000 C 
ATOM     15  S   UNL     1      50.263   3.954  18.303  0.00  0.00    +0.000 S 
ATOM     16  O   UNL     1      50.076   2.720  17.550  0.00  0.00    +0.000 OA
ATOM     17  O   UNL     1      49.521   4.132  19.535  0.00  0.00    +0.000 OA
ENDBRANCH   3  15
ENDBRANCH   1   6
BRANCH   1  18
ATOM     18  C   UNL     1      49.923   7.810  12.825  0.00  0.00    +0.000 C 
BRANCH  18  19
ATOM     19  C   UNL     1      48.947   8.242  11.726  0.00  0.00    +0.000 C 
BRANCH  19  20
ATOM     20  C   UNL     1      47.520   7.833  12.019  0.00  0.00    +0.000 A 
ATOM     21  C   UNL     1      46.548   8.797  12.312  0.00  0.00    +0.000 A 
ATOM     22  C   UNL     1      45.222   8.412  12.536  0.00  0.00    +0.000 A 
ATOM     23  C   UNL     1      44.851   7.065  12.479  0.00  0.00    +0.000 A 
ATOM     24  C   UNL     1      45.815   6.091  12.229  0.00  0.00    +0.000 A 
ATOM     25  C   UNL     1      47.142   6.481  11.996  0.00  0.00    +0.000 A 
BRANCH  24  26
ATOM     26  O   UNL     1      45.580   4.739  12.135  0.00  0.00    +0.000 OA
BRANCH  26  27
ATOM     27  C   UNL     1      44.317   4.269  11.606  0.00  0.00    +0.000 C 
ATOM     28  C   UNL     1      43.582   3.150  12.370  0.00  0.00    +0.000 C 
ATOM     29  N   UNL     1      43.500   2.335  11.150  0.00  0.00    +0.000 NA
ATOM     30  C   UNL     1      44.412   3.247  10.446  0.00  0.00    +0.000 C 
ATOM     31  H   UNL     1      42.567   2.281  10.744  0.00  0.00    +0.000 HD
ENDBRANCH  26  27
ENDBRANCH  24  26
ENDBRANCH  19  20
ENDBRANCH  18  19
ENDBRANCH   1  18
TORSDOF 8
ENDMDL
MODEL 9
REMARK VINA RESULT:    -6.234      3.223      4.626
REMARK INTER + INTRA:          -9.991
REMARK INTER:                  -8.491
REMARK INTRA:                  -1.499
REMARK UNBOUND:                -0.842
REMARK  Name = 
REMARK  9 active torsions:
REMARK  status: ('A' for Active; 'I' for Inactive)
REMARK    1  A    between atoms: C_1  and  S_2
REMARK    2  A    between atoms: S_2  and  C_5
REMARK    3  A    between atoms: C_8  and  N_9
REMARK    4  A    between atoms: N_9  and  C_10
REMARK    5  A    between atoms: C_10  and  C_11
REMARK    6  A    between atoms: C_11  and  C_12
REMARK    7  A    between atoms: C_16  and  O_17
REMARK    8  A    between atoms: O_17  and  C_18
REMARK    9  A    between atoms: C_24  and  C_25
REMARK                            x       y       z     vdW  Elec       q    Type
REMARK                         _______ _______ _______ _____ _____    ______ ____
ROOT
ATOM      1  N   UNL     1      49.853   8.819  14.046  0.00  0.00    +0.000 N 
ATOM      2  H   UNL     1      50.659   9.420  14.197  0.00  0.00    +0.000 HD
ENDROOT
BRANCH   1   6
ATOM      3  C   UNL     1      48.507   7.083  17.660  0.00  0.00    +0.000 A 
ATOM      4  C   UNL     1      48.639   8.473  17.554  0.00  0.00    +0.000 A 
ATOM      5  C   UNL     1      49.036   9.060  16.355  0.00  0.00    +0.000 A 
ATOM      6  C   UNL     1      49.342   8.282  15.237  0.00  0.00    +0.000 A 
ATOM      7  C   UNL     1      49.222   6.895  15.351  0.00  0.00    +0.000 A 
ATOM      8  C   UNL     1      48.762   6.287  16.535  0.00  0.00    +0.000 A 
BRANCH   8   9
ATOM      9  C   UNL     1      48.356   4.848  16.462  0.00  0.00    +0.000 C 
ATOM     10  N   UNL     1      47.024   4.540  16.332  0.00  0.00    +0.000 N 
ATOM     11  O   UNL     1      49.177   3.972  16.669  0.00  0.00    +0.000 OA
ATOM     12  H   UNL     1      46.264   5.189  16.373  0.00  0.00    +0.000 HD
ATOM     13  H   UNL     1      46.802   3.547  16.395  0.00  0.00    +0.000 HD
ENDBRANCH   8   9
BRANCH   3  15
ATOM     14  C   UNL     1      48.120   7.902  20.315  0.00  0.00    +0.000 C 
ATOM     15  S   UNL     1      48.160   6.454  19.294  0.00  0.00    +0.000 S 
ATOM     16  O   UNL     1      49.340   5.699  19.698  0.00  0.00    +0.000 OA
ATOM     17  O   UNL     1      46.876   5.783  19.292  0.00  0.00    +0.000 OA
ENDBRANCH   3  15
ENDBRANCH   1   6
BRANCH   1  18
ATOM     18  C   UNL     1      50.011   7.914  12.900  0.00  0.00    +0.000 C 
BRANCH  18  19
ATOM     19  C   UNL     1      49.048   8.285  11.769  0.00  0.00    +0.000 C 
BRANCH  19  20
ATOM     20  C   UNL     1      47.627   7.841  12.042  0.00  0.00    +0.000 A 
ATOM     21  C   UNL     1      46.680   8.746  12.535  0.00  0.00    +0.000 A 
ATOM     22  C   UNL     1      45.358   8.336  12.740  0.00  0.00    +0.000 A 
ATOM     23  C   UNL     1      44.967   7.022  12.467  0.00  0.00    +0.000 A 
ATOM     24  C   UNL     1      45.909   6.100  12.014  0.00  0.00    +0.000 A 
ATOM     25  C   UNL     1      47.231   6.515  11.801  0.00  0.00    +0.000 A 
BRANCH  24  26
ATOM     26  O   UNL     1      45.652   4.786  11.698  0.00  0.00    +0.000 OA
BRANCH  26  27
ATOM     27  C   UNL     1      44.288   4.362  11.460  0.00  0.00    +0.000 C 
ATOM     28  C   UNL     1      43.630   3.424  12.491  0.00  0.00    +0.000 C 
ATOM     29  N   UNL     1      43.284   2.464  11.435  0.00  0.00    +0.000 NA
ATOM     30  C   UNL     1      44.112   3.190  10.464  0.00  0.00    +0.000 C 
ATOM     31  H   UNL     1      42.291   2.438  11.201  0.00  0.00    +0.000 HD
ENDBRANCH  26  27
ENDBRANCH  24  26
ENDBRANCH  19  20
ENDBRANCH  18  19
ENDBRANCH   1  18
TORSDOF 8
ENDMDL
