MODEL 1
REMARK VINA RESULT:    -7.328      0.000      0.000
REMARK INTER + INTRA:         -10.390
REMARK INTER:                  -9.470
REMARK INTRA:                  -0.920
REMARK UNBOUND:                -0.920
REMARK  Name = 
REMARK  5 active torsions:
REMARK  status: ('A' for Active; 'I' for Inactive)
REMARK    1  A    between atoms: C_2  and  C_4
REMARK    2  A    between atoms: C_8  and  C_9
REMARK    3  A    between atoms: C_9  and  C_10
REMARK    4  A    between atoms: C_10  and  C_11
REMARK    5  A    between atoms: C_15  and  N_16
REMARK                            x       y       z     vdW  Elec       q    Type
REMARK                         _______ _______ _______ _____ _____    ______ ____
ROOT
ATOM      1  C   UNL     1      43.690   3.664  11.529  0.00  0.00    +0.000 C 
ENDROOT
BRANCH   1   2
ATOM      2  C   UNL     1      44.861   4.133  12.366  0.00  0.00    +0.000 A 
ATOM      3  C   UNL     1      45.804   3.242  12.894  0.00  0.00    +0.000 A 
ATOM      4  C   UNL     1      46.912   3.717  13.581  0.00  0.00    +0.000 A 
ATOM      5  C   UNL     1      47.116   5.087  13.711  0.00  0.00    +0.000 A 
ATOM      6  C   UNL     1      46.222   6.022  13.171  0.00  0.00    +0.000 A 
ATOM      7  C   UNL     1      45.080   5.517  12.531  0.00  0.00    +0.000 A 
BRANCH   6   8
ATOM      8  N   UNL     1      46.486   7.371  13.228  0.00  0.00    +0.000 N 
ATOM      9  C   UNL     1      45.455   8.374  12.941  0.00  0.00    +0.000 C 
ATOM     10  C   UNL     1      45.928   9.277  11.797  0.00  0.00    +0.000 C 
ATOM     11  O   UNL     1      47.189   9.893  12.115  0.00  0.00    +0.000 OA
ATOM     12  C   UNL     1      48.196   8.888  12.340  0.00  0.00    +0.000 C 
ATOM     13  C   UNL     1      47.820   7.926  13.487  0.00  0.00    +0.000 C 
ENDBRANCH   6   8
ENDBRANCH   1   2
BRANCH   1  14
ATOM     14  C   UNL     1      43.994   2.506  10.567  0.00  0.00    +0.000 C 
BRANCH  14  19
ATOM     15  C   UNL     1      46.535   2.345   7.730  0.00  0.00    +0.000 A 
ATOM     16  C   UNL     1      46.609   3.691   7.350  0.00  0.00    +0.000 A 
ATOM     17  C   UNL     1      45.853   4.650   8.024  0.00  0.00    +0.000 A 
ATOM     18  C   UNL     1      45.015   4.270   9.072  0.00  0.00    +0.000 A 
ATOM     19  C   UNL     1      44.926   2.926   9.460  0.00  0.00    +0.000 A 
ATOM     20  C   UNL     1      45.689   1.968   8.781  0.00  0.00    +0.000 A 
BRANCH  15  22
ATOM     21  N   UNL     1      48.396   1.667   6.312  0.00  0.00    +0.000 N 
ATOM     22  C   UNL     1      47.300   1.282   7.032  0.00  0.00    +0.000 C 
ATOM     23  O   UNL     1      46.990   0.101   7.119  0.00  0.00    +0.000 OA
ATOM     24  H   UNL     1      48.964   0.921   5.935  0.00  0.00    +0.000 HD
ATOM     25  H   UNL     1      48.828   2.572   6.431  0.00  0.00    +0.000 HD
ENDBRANCH  15  22
ENDBRANCH  14  19
ENDBRANCH   1  14
TORSDOF 5
ENDMDL
MODEL 2
REMARK VINA RESULT:    -6.958      1.364      2.099
REMARK INTER + INTRA:          -9.911
REMARK INTER:                  -8.970
REMARK INTRA:                  -0.941
REMARK UNBOUND:                -0.920
REMARK  Name = 
REMARK  5 active torsions:
REMARK  status: ('A' for Active; 'I' for Inactive)
REMARK    1  A    between atoms: C_2  and  C_4
REMARK    2  A    between atoms: C_8  and  C_9
REMARK    3  A    between atoms: C_9  and  C_10
REMARK    4  A    between atoms: C_10  and  C_11
REMARK    5  A    between atoms: C_15  and  N_16
REMARK                            x       y       z     vdW  Elec       q    Type
REMARK                         _______ _______ _______ _____ _____    ______ ____
ROOT
ATOM      1  C   UNL     1      44.073   4.529  10.203  0.00  0.00    +0.000 C 
ENDROOT
BRANCH   1   2
ATOM      2  C   UNL     1      44.974   4.811  11.386  0.00  0.00    +0.000 A 
ATOM      3  C   UNL     1      45.273   3.834  12.344  0.00  0.00    +0.000 A 
ATOM      4  C   UNL     1      46.172   4.104  13.366  0.00  0.00    +0.000 A 
ATOM      5  C   UNL     1      46.817   5.336  13.420  0.00  0.00    +0.000 A 
ATOM      6  C   UNL     1      46.580   6.336  12.466  0.00  0.00    +0.000 A 
ATOM      7  C   UNL     1      45.624   6.060  11.476  0.00  0.00    +0.000 A 
BRANCH   6   8
ATOM      8  N   UNL     1      47.293   7.512  12.480  0.00  0.00    +0.000 N 
ATOM      9  C   UNL     1      48.502   7.693  11.670  0.00  0.00    +0.000 C 
ATOM     10  C   UNL     1      49.677   8.056  12.585  0.00  0.00    +0.000 C 
ATOM     11  O   UNL     1      49.382   9.230  13.362  0.00  0.00    +0.000 OA
ATOM     12  C   UNL     1      48.222   9.007  14.187  0.00  0.00    +0.000 C 
ATOM     13  C   UNL     1      46.972   8.643  13.358  0.00  0.00    +0.000 C 
ENDBRANCH   6   8
ENDBRANCH   1   2
BRANCH   1  14
ATOM     14  C   UNL     1      44.749   4.624   8.827  0.00  0.00    +0.000 C 
BRANCH  14  19
ATOM     15  C   UNL     1      46.911   2.048   7.033  0.00  0.00    +0.000 A 
ATOM     16  C   UNL     1      46.495   0.861   7.650  0.00  0.00    +0.000 A 
ATOM     17  C   UNL     1      45.502   0.894   8.628  0.00  0.00    +0.000 A 
ATOM     18  C   UNL     1      44.928   2.109   9.003  0.00  0.00    +0.000 A 
ATOM     19  C   UNL     1      45.340   3.305   8.399  0.00  0.00    +0.000 A 
ATOM     20  C   UNL     1      46.335   3.266   7.415  0.00  0.00    +0.000 A 
BRANCH  15  22
ATOM     21  N   UNL     1      49.066   2.866   6.245  0.00  0.00    +0.000 N 
ATOM     22  C   UNL     1      47.980   2.073   6.003  0.00  0.00    +0.000 C 
ATOM     23  O   UNL     1      47.916   1.389   4.990  0.00  0.00    +0.000 OA
ATOM     24  H   UNL     1      49.829   2.787   5.587  0.00  0.00    +0.000 HD
ATOM     25  H   UNL     1      49.275   3.228   7.165  0.00  0.00    +0.000 HD
ENDBRANCH  15  22
ENDBRANCH  14  19
ENDBRANCH   1  14
TORSDOF 5
ENDMDL
MODEL 3
REMARK VINA RESULT:    -6.836      2.993      7.230
REMARK INTER + INTRA:          -9.753
REMARK INTER:                  -8.872
REMARK INTRA:                  -0.881
REMARK UNBOUND:                -0.920
REMARK  Name = 
REMARK  5 active torsions:
REMARK  status: ('A' for Active; 'I' for Inactive)
REMARK    1  A    between atoms: C_2  and  C_4
REMARK    2  A    between atoms: C_8  and  C_9
REMARK    3  A    between atoms: C_9  and  C_10
REMARK    4  A    between atoms: C_10  and  C_11
REMARK    5  A    between atoms: C_15  and  N_16
REMARK                            x       y       z     vdW  Elec       q    Type
REMARK                         _______ _______ _______ _____ _____    ______ ____
ROOT
ATOM      1  C   UNL     1      46.106   6.820  12.693  0.00  0.00    +0.000 C 
ENDROOT
BRANCH   1   2
ATOM      2  C   UNL     1      45.299   5.595  12.321  0.00  0.00    +0.000 A 
ATOM      3  C   UNL     1      44.268   5.107  13.135  0.00  0.00    +0.000 A 
ATOM      4  C   UNL     1      43.493   4.034  12.719  0.00  0.00    +0.000 A 
ATOM      5  C   UNL     1      43.706   3.464  11.467  0.00  0.00    +0.000 A 
ATOM      6  C   UNL     1      44.700   3.938  10.599  0.00  0.00    +0.000 A 
ATOM      7  C   UNL     1      45.509   4.985  11.067  0.00  0.00    +0.000 A 
BRANCH   6   8
ATOM      8  N   UNL     1      44.837   3.424   9.331  0.00  0.00    +0.000 N 
ATOM      9  C   UNL     1      44.699   1.988   9.059  0.00  0.00    +0.000 C 
ATOM     10  C   UNL     1      45.982   1.470   8.401  0.00  0.00    +0.000 C 
ATOM     11  O   UNL     1      46.281   2.207   7.202  0.00  0.00    +0.000 OA
ATOM     12  C   UNL     1      46.464   3.604   7.506  0.00  0.00    +0.000 C 
ATOM     13  C   UNL     1      45.217   4.230   8.166  0.00  0.00    +0.000 C 
ENDBRANCH   6   8
ENDBRANCH   1   2
BRANCH   1  14
ATOM     14  C   UNL     1      47.605   6.573  12.919  0.00  0.00    +0.000 C 
BRANCH  14  19
ATOM     15  C   UNL     1      47.905   4.765  16.261  0.00  0.00    +0.000 A 
ATOM     16  C   UNL     1      48.557   5.730  17.039  0.00  0.00    +0.000 A 
ATOM     17  C   UNL     1      48.879   6.970  16.488  0.00  0.00    +0.000 A 
ATOM     18  C   UNL     1      48.562   7.249  15.158  0.00  0.00    +0.000 A 
ATOM     19  C   UNL     1      47.916   6.290  14.366  0.00  0.00    +0.000 A 
ATOM     20  C   UNL     1      47.592   5.048  14.926  0.00  0.00    +0.000 A 
BRANCH  15  22
ATOM     21  N   UNL     1      48.517   2.450  16.706  0.00  0.00    +0.000 N 
ATOM     22  C   UNL     1      47.560   3.422  16.791  0.00  0.00    +0.000 C 
ATOM     23  O   UNL     1      46.478   3.192  17.315  0.00  0.00    +0.000 OA
ATOM     24  H   UNL     1      48.305   1.576  17.167  0.00  0.00    +0.000 HD
ATOM     25  H   UNL     1      49.489   2.663  16.530  0.00  0.00    +0.000 HD
ENDBRANCH  15  22
ENDBRANCH  14  19
ENDBRANCH   1  14
TORSDOF 5
ENDMDL
MODEL 4
REMARK VINA RESULT:    -6.833      2.716      3.975
REMARK INTER + INTRA:          -9.750
REMARK INTER:                  -8.911
REMARK INTRA:                  -0.839
REMARK UNBOUND:                -0.920
REMARK  Name = 
REMARK  5 active torsions:
REMARK  status: ('A' for Active; 'I' for Inactive)
REMARK    1  A    between atoms: C_2  and  C_4
REMARK    2  A    between atoms: C_8  and  C_9
REMARK    3  A    between atoms: C_9  and  C_10
REMARK    4  A    between atoms: C_10  and  C_11
REMARK    5  A    between atoms: C_15  and  N_16
REMARK                            x       y       z     vdW  Elec       q    Type
REMARK                         _______ _______ _______ _____ _____    ______ ____
ROOT
ATOM      1  C   UNL     1      44.999   5.449  11.782  0.00  0.00    +0.000 C 
ENDROOT
BRANCH   1   2
ATOM      2  C   UNL     1      46.285   5.833  12.483  0.00  0.00    +0.000 A 
ATOM      3  C   UNL     1      47.157   6.797  11.963  0.00  0.00    +0.000 A 
ATOM      4  C   UNL     1      48.282   7.185  12.677  0.00  0.00    +0.000 A 
ATOM      5  C   UNL     1      48.526   6.650  13.938  0.00  0.00    +0.000 A 
ATOM      6  C   UNL     1      47.665   5.708  14.520  0.00  0.00    +0.000 A 
ATOM      7  C   UNL     1      46.566   5.289  13.753  0.00  0.00    +0.000 A 
BRANCH   6   8
ATOM      8  N   UNL     1      47.870   5.258  15.803  0.00  0.00    +0.000 N 
ATOM      9  C   UNL     1      48.824   5.910  16.708  0.00  0.00    +0.000 C 
ATOM     10  C   UNL     1      49.862   4.886  17.178  0.00  0.00    +0.000 C 
ATOM     11  O   UNL     1      49.226   3.758  17.805  0.00  0.00    +0.000 OA
ATOM     12  C   UNL     1      48.336   3.104  16.879  0.00  0.00    +0.000 C 
ATOM     13  C   UNL     1      47.239   4.052  16.350  0.00  0.00    +0.000 C 
ENDBRANCH   6   8
ENDBRANCH   1   2
BRANCH   1  14
ATOM     14  C   UNL     1      45.010   5.614  10.256  0.00  0.00    +0.000 C 
BRANCH  14  19
ATOM     15  C   UNL     1      46.249   2.929   7.850  0.00  0.00    +0.000 A 
ATOM     16  C   UNL     1      45.513   1.816   8.276  0.00  0.00    +0.000 A 
ATOM     17  C   UNL     1      44.603   1.941   9.326  0.00  0.00    +0.000 A 
ATOM     18  C   UNL     1      44.431   3.172   9.960  0.00  0.00    +0.000 A 
ATOM     19  C   UNL     1      45.166   4.292   9.549  0.00  0.00    +0.000 A 
ATOM     20  C   UNL     1      46.076   4.162   8.493  0.00  0.00    +0.000 A 
BRANCH  15  22
ATOM     21  N   UNL     1      47.050   3.649   5.666  0.00  0.00    +0.000 N 
ATOM     22  C   UNL     1      47.247   2.846   6.754  0.00  0.00    +0.000 C 
ATOM     23  O   UNL     1      48.228   2.118   6.827  0.00  0.00    +0.000 OA
ATOM     24  H   UNL     1      47.794   3.659   4.981  0.00  0.00    +0.000 HD
ATOM     25  H   UNL     1      46.419   4.437   5.684  0.00  0.00    +0.000 HD
ENDBRANCH  15  22
ENDBRANCH  14  19
ENDBRANCH   1  14
TORSDOF 5
ENDMDL
MODEL 5
REMARK VINA RESULT:    -6.568      3.389      7.486
REMARK INTER + INTRA:          -9.408
REMARK INTER:                  -8.392
REMARK INTRA:                  -1.016
REMARK UNBOUND:                -0.920
REMARK  Name = 
REMARK  5 active torsions:
REMARK  status: ('A' for Active; 'I' for Inactive)
REMARK    1  A    between atoms: C_2  and  C_4
REMARK    2  A    between atoms: C_8  and  C_9
REMARK    3  A    between atoms: C_9  and  C_10
REMARK    4  A    between atoms: C_10  and  C_11
REMARK    5  A    between atoms: C_15  and  N_16
REMARK                            x       y       z     vdW  Elec       q    Type
REMARK                         _______ _______ _______ _____ _____    ______ ____
ROOT
ATOM      1  C   UNL     1      48.631   6.815  13.286  0.00  0.00    +0.000 C 
ENDROOT
BRANCH   1   2
ATOM      2  C   UNL     1      47.230   7.127  12.805  0.00  0.00    +0.000 A 
ATOM      3  C   UNL     1      46.708   8.426  12.823  0.00  0.00    +0.000 A 
ATOM      4  C   UNL     1      45.452   8.686  12.293  0.00  0.00    +0.000 A 
ATOM      5  C   UNL     1      44.722   7.663  11.697  0.00  0.00    +0.000 A 
ATOM      6  C   UNL     1      45.213   6.352  11.621  0.00  0.00    +0.000 A 
ATOM      7  C   UNL     1      46.460   6.102  12.216  0.00  0.00    +0.000 A 
BRANCH   6   8
ATOM      8  N   UNL     1      44.519   5.373  10.949  0.00  0.00    +0.000 N 
ATOM      9  C   UNL     1      43.192   4.926  11.388  0.00  0.00    +0.000 C 
ATOM     10  C   UNL     1      43.225   3.417  11.652  0.00  0.00    +0.000 C 
ATOM     11  O   UNL     1      43.665   2.699  10.486  0.00  0.00    +0.000 OA
ATOM     12  C   UNL     1      44.991   3.118  10.108  0.00  0.00    +0.000 C 
ATOM     13  C   UNL     1      45.065   4.630   9.808  0.00  0.00    +0.000 C 
ENDBRANCH   6   8
ENDBRANCH   1   2
BRANCH   1  14
ATOM     14  C   UNL     1      49.070   7.565  14.553  0.00  0.00    +0.000 C 
BRANCH  14  19
ATOM     15  C   UNL     1      48.133   4.711  16.901  0.00  0.00    +0.000 A 
ATOM     16  C   UNL     1      48.150   5.359  18.142  0.00  0.00    +0.000 A 
ATOM     17  C   UNL     1      48.443   6.721  18.215  0.00  0.00    +0.000 A 
ATOM     18  C   UNL     1      48.730   7.438  17.054  0.00  0.00    +0.000 A 
ATOM     19  C   UNL     1      48.724   6.802  15.806  0.00  0.00    +0.000 A 
ATOM     20  C   UNL     1      48.427   5.435  15.738  0.00  0.00    +0.000 A 
BRANCH  15  22
ATOM     21  N   UNL     1      46.964   2.711  17.652  0.00  0.00    +0.000 N 
ATOM     22  C   UNL     1      47.851   3.260  16.768  0.00  0.00    +0.000 C 
ATOM     23  O   UNL     1      48.359   2.581  15.886  0.00  0.00    +0.000 OA
ATOM     24  H   UNL     1      46.703   1.750  17.479  0.00  0.00    +0.000 HD
ATOM     25  H   UNL     1      46.338   3.275  18.208  0.00  0.00    +0.000 HD
ENDBRANCH  15  22
ENDBRANCH  14  19
ENDBRANCH   1  14
TORSDOF 5
ENDMDL
MODEL 6
REMARK VINA RESULT:    -6.552      3.191      5.101
REMARK INTER + INTRA:          -9.387
REMARK INTER:                  -8.492
REMARK INTRA:                  -0.895
REMARK UNBOUND:                -0.920
REMARK  Name = 
REMARK  5 active torsions:
REMARK  status: ('A' for Active; 'I' for Inactive)
REMARK    1  A    between atoms: C_2  and  C_4
REMARK    2  A    between atoms: C_8  and  C_9
REMARK    3  A    between atoms: C_9  and  C_10
REMARK    4  A    between atoms: C_10  and  C_11
REMARK    5  A    between atoms: C_15  and  N_16
REMARK                            x       y       z     vdW  Elec       q    Type
REMARK                         _______ _______ _______ _____ _____    ______ ____
ROOT
ATOM      1  C   UNL     1      46.989   6.893  11.771  0.00  0.00    +0.000 C 
ENDROOT
BRANCH   1   2
ATOM      2  C   UNL     1      47.961   6.858  12.932  0.00  0.00    +0.000 A 
ATOM      3  C   UNL     1      49.085   7.691  12.986  0.00  0.00    +0.000 A 
ATOM      4  C   UNL     1      49.904   7.693  14.107  0.00  0.00    +0.000 A 
ATOM      5  C   UNL     1      49.586   6.899  15.204  0.00  0.00    +0.000 A 
ATOM      6  C   UNL     1      48.452   6.074  15.215  0.00  0.00    +0.000 A 
ATOM      7  C   UNL     1      47.673   6.046  14.048  0.00  0.00    +0.000 A 
BRANCH   6   8
ATOM      8  N   UNL     1      48.102   5.366  16.341  0.00  0.00    +0.000 N 
ATOM      9  C   UNL     1      48.566   5.757  17.676  0.00  0.00    +0.000 C 
ATOM     10  C   UNL     1      49.328   4.591  18.313  0.00  0.00    +0.000 C 
ATOM     11  O   UNL     1      48.510   3.408  18.365  0.00  0.00    +0.000 OA
ATOM     12  C   UNL     1      48.114   3.014  17.036  0.00  0.00    +0.000 C 
ATOM     13  C   UNL     1      47.324   4.122  16.306  0.00  0.00    +0.000 C 
ENDBRANCH   6   8
ENDBRANCH   1   2
BRANCH   1  14
ATOM     14  C   UNL     1      45.504   6.918  12.160  0.00  0.00    +0.000 C 
BRANCH  14  19
ATOM     15  C   UNL     1      44.475   3.654  10.480  0.00  0.00    +0.000 A 
ATOM     16  C   UNL     1      43.648   3.089  11.459  0.00  0.00    +0.000 A 
ATOM     17  C   UNL     1      43.409   3.773  12.651  0.00  0.00    +0.000 A 
ATOM     18  C   UNL     1      44.000   5.017  12.875  0.00  0.00    +0.000 A 
ATOM     19  C   UNL     1      44.834   5.592  11.907  0.00  0.00    +0.000 A 
ATOM     20  C   UNL     1      45.069   4.902  10.711  0.00  0.00    +0.000 A 
BRANCH  15  22
ATOM     21  N   UNL     1      44.306   3.524   8.054  0.00  0.00    +0.000 N 
ATOM     22  C   UNL     1      44.781   2.960   9.205  0.00  0.00    +0.000 C 
ATOM     23  O   UNL     1      45.460   1.942   9.170  0.00  0.00    +0.000 OA
ATOM     24  H   UNL     1      44.615   3.098   7.190  0.00  0.00    +0.000 HD
ATOM     25  H   UNL     1      43.980   4.479   8.016  0.00  0.00    +0.000 HD
ENDBRANCH  15  22
ENDBRANCH  14  19
ENDBRANCH   1  14
TORSDOF 5
ENDMDL
MODEL 7
REMARK VINA RESULT:    -6.367      3.108      7.200
REMARK INTER + INTRA:          -9.148
REMARK INTER:                  -8.168
REMARK INTRA:                  -0.980
REMARK UNBOUND:                -0.920
REMARK  Name = 
REMARK  5 active torsions:
REMARK  status: ('A' for Active; 'I' for Inactive)
REMARK    1  A    between atoms: C_2  and  C_4
REMARK    2  A    between atoms: C_8  and  C_9
REMARK    3  A    between atoms: C_9  and  C_10
REMARK    4  A    between atoms: C_10  and  C_11
REMARK    5  A    between atoms: C_15  and  N_16
REMARK                            x       y       z     vdW  Elec       q    Type
REMARK                         _______ _______ _______ _____ _____    ______ ____
ROOT
ATOM      1  C   UNL     1      48.676   8.217  11.688  0.00  0.00    +0.000 C 
ENDROOT
BRANCH   1   2
ATOM      2  C   UNL     1      47.994   7.095  12.441  0.00  0.00    +0.000 A 
ATOM      3  C   UNL     1      48.418   6.685  13.711  0.00  0.00    +0.000 A 
ATOM      4  C   UNL     1      47.715   5.712  14.408  0.00  0.00    +0.000 A 
ATOM      5  C   UNL     1      46.553   5.170  13.865  0.00  0.00    +0.000 A 
ATOM      6  C   UNL     1      46.065   5.572  12.614  0.00  0.00    +0.000 A 
ATOM      7  C   UNL     1      46.827   6.513  11.904  0.00  0.00    +0.000 A 
BRANCH   6   8
ATOM      8  N   UNL     1      44.869   5.093  12.133  0.00  0.00    +0.000 N 
ATOM      9  C   UNL     1      43.938   4.342  12.984  0.00  0.00    +0.000 C 
ATOM     10  C   UNL     1      43.671   2.970  12.357  0.00  0.00    +0.000 C 
ATOM     11  O   UNL     1      43.168   3.104  11.016  0.00  0.00    +0.000 OA
ATOM     12  C   UNL     1      44.123   3.798  10.189  0.00  0.00    +0.000 C 
ATOM     13  C   UNL     1      44.456   5.205  10.730  0.00  0.00    +0.000 C 
ENDBRANCH   6   8
ENDBRANCH   1   2
BRANCH   1  14
ATOM     14  C   UNL     1      48.519   9.613  12.308  0.00  0.00    +0.000 C 
BRANCH  14  19
ATOM     15  C   UNL     1      45.092  10.819  11.153  0.00  0.00    +0.000 A 
ATOM     16  C   UNL     1      45.437  11.948  10.400  0.00  0.00    +0.000 A 
ATOM     17  C   UNL     1      46.777  12.305  10.250  0.00  0.00    +0.000 A 
ATOM     18  C   UNL     1      47.776  11.544  10.857  0.00  0.00    +0.000 A 
ATOM     19  C   UNL     1      47.445  10.416  11.619  0.00  0.00    +0.000 A 
ATOM     20  C   UNL     1      46.098  10.060  11.764  0.00  0.00    +0.000 A 
BRANCH  15  22
ATOM     21  N   UNL     1      43.332   9.146  10.974  0.00  0.00    +0.000 N 
ATOM     22  C   UNL     1      43.682  10.408  11.364  0.00  0.00    +0.000 C 
ATOM     23  O   UNL     1      42.865  11.149  11.895  0.00  0.00    +0.000 OA
ATOM     24  H   UNL     1      42.399   8.846  11.223  0.00  0.00    +0.000 HD
ATOM     25  H   UNL     1      44.018   8.430  10.783  0.00  0.00    +0.000 HD
ENDBRANCH  15  22
ENDBRANCH  14  19
ENDBRANCH   1  14
TORSDOF 5
ENDMDL
MODEL 8
REMARK VINA RESULT:    -6.293      2.398      7.171
REMARK INTER + INTRA:          -9.052
REMARK INTER:                  -8.270
REMARK INTRA:                  -0.782
REMARK UNBOUND:                -0.920
REMARK  Name = 
REMARK  5 active torsions:
REMARK  status: ('A' for Active; 'I' for Inactive)
REMARK    1  A    between atoms: C_2  and  C_4
REMARK    2  A    between atoms: C_8  and  C_9
REMARK    3  A    between atoms: C_9  and  C_10
REMARK    4  A    between atoms: C_10  and  C_11
REMARK    5  A    between atoms: C_15  and  N_16
REMARK                            x       y       z     vdW  Elec       q    Type
REMARK                         _______ _______ _______ _____ _____    ______ ____
ROOT
ATOM      1  C   UNL     1      45.696   6.322  12.725  0.00  0.00    +0.000 C 
ENDROOT
BRANCH   1   2
ATOM      2  C   UNL     1      45.078   5.022  12.255  0.00  0.00    +0.000 A 
ATOM      3  C   UNL     1      44.131   4.328  13.020  0.00  0.00    +0.000 A 
ATOM      4  C   UNL     1      43.523   3.186  12.518  0.00  0.00    +0.000 A 
ATOM      5  C   UNL     1      43.817   2.749  11.230  0.00  0.00    +0.000 A 
ATOM      6  C   UNL     1      44.731   3.427  10.410  0.00  0.00    +0.000 A 
ATOM      7  C   UNL     1      45.376   4.545  10.962  0.00  0.00    +0.000 A 
BRANCH   6   8
ATOM      8  N   UNL     1      44.942   3.035   9.109  0.00  0.00    +0.000 N 
ATOM      9  C   UNL     1      45.103   1.623   8.743  0.00  0.00    +0.000 C 
ATOM     10  C   UNL     1      46.450   1.430   8.039  0.00  0.00    +0.000 C 
ATOM     11  O   UNL     1      46.558   2.288   6.889  0.00  0.00    +0.000 OA
ATOM     12  C   UNL     1      46.450   3.670   7.283  0.00  0.00    +0.000 C 
ATOM     13  C   UNL     1      45.115   3.975   7.996  0.00  0.00    +0.000 C 
ENDBRANCH   6   8
ENDBRANCH   1   2
BRANCH   1  14
ATOM     14  C   UNL     1      46.694   6.963  11.750  0.00  0.00    +0.000 C 
BRANCH  14  19
ATOM     15  C   UNL     1      49.427   7.277  14.389  0.00  0.00    +0.000 A 
ATOM     16  C   UNL     1      50.398   8.008  13.694  0.00  0.00    +0.000 A 
ATOM     17  C   UNL     1      50.159   8.416  12.381  0.00  0.00    +0.000 A 
ATOM     18  C   UNL     1      48.957   8.088  11.755  0.00  0.00    +0.000 A 
ATOM     19  C   UNL     1      47.979   7.351  12.436  0.00  0.00    +0.000 A 
ATOM     20  C   UNL     1      48.223   6.947  13.754  0.00  0.00    +0.000 A 
BRANCH  15  22
ATOM     21  N   UNL     1      50.335   7.616  16.623  0.00  0.00    +0.000 N 
ATOM     22  C   UNL     1      49.639   6.798  15.778  0.00  0.00    +0.000 C 
ATOM     23  O   UNL     1      49.185   5.732  16.170  0.00  0.00    +0.000 OA
ATOM     24  H   UNL     1      50.375   7.324  17.590  0.00  0.00    +0.000 HD
ATOM     25  H   UNL     1      50.490   8.594  16.422  0.00  0.00    +0.000 HD
ENDBRANCH  15  22
ENDBRANCH  14  19
ENDBRANCH   1  14
TORSDOF 5
ENDMDL
MODEL 9
REMARK VINA RESULT:    -6.290      3.845      8.101
REMARK INTER + INTRA:          -9.049
REMARK INTER:                  -8.241
REMARK INTRA:                  -0.807
REMARK UNBOUND:                -0.920
REMARK  Name = 
REMARK  5 active torsions:
REMARK  status: ('A' for Active; 'I' for Inactive)
REMARK    1  A    between atoms: C_2  and  C_4
REMARK    2  A    between atoms: C_8  and  C_9
REMARK    3  A    between atoms: C_9  and  C_10
REMARK    4  A    between atoms: C_10  and  C_11
REMARK    5  A    between atoms: C_15  and  N_16
REMARK                            x       y       z     vdW  Elec       q    Type
REMARK                         _______ _______ _______ _____ _____    ______ ____
ROOT
ATOM      1  C   UNL     1      48.413   6.506  13.728  0.00  0.00    +0.000 C 
ENDROOT
BRANCH   1   2
ATOM      2  C   UNL     1      47.096   6.884  13.085  0.00  0.00    +0.000 A 
ATOM      3  C   UNL     1      46.663   8.213  13.001  0.00  0.00    +0.000 A 
ATOM      4  C   UNL     1      45.491   8.529  12.328  0.00  0.00    +0.000 A 
ATOM      5  C   UNL     1      44.761   7.530  11.692  0.00  0.00    +0.000 A 
ATOM      6  C   UNL     1      45.170   6.189  11.715  0.00  0.00    +0.000 A 
ATOM      7  C   UNL     1      46.326   5.886  12.452  0.00  0.00    +0.000 A 
BRANCH   6   8
ATOM      8  N   UNL     1      44.488   5.228  11.006  0.00  0.00    +0.000 N 
ATOM      9  C   UNL     1      43.192   4.708  11.456  0.00  0.00    +0.000 C 
ATOM     10  C   UNL     1      43.284   3.188  11.627  0.00  0.00    +0.000 C 
ATOM     11  O   UNL     1      43.709   2.558  10.406  0.00  0.00    +0.000 OA
ATOM     12  C   UNL     1      45.007   3.046  10.015  0.00  0.00    +0.000 C 
ATOM     13  C   UNL     1      45.021   4.575   9.805  0.00  0.00    +0.000 C 
ENDBRANCH   6   8
ENDBRANCH   1   2
BRANCH   1  14
ATOM     14  C   UNL     1      48.541   6.858  15.217  0.00  0.00    +0.000 C 
BRANCH  14  19
ATOM     15  C   UNL     1      48.681   4.532  18.234  0.00  0.00    +0.000 A 
ATOM     16  C   UNL     1      47.945   3.435  17.770  0.00  0.00    +0.000 A 
ATOM     17  C   UNL     1      47.423   3.440  16.476  0.00  0.00    +0.000 A 
ATOM     18  C   UNL     1      47.624   4.542  15.646  0.00  0.00    +0.000 A 
ATOM     19  C   UNL     1      48.353   5.650  16.099  0.00  0.00    +0.000 A 
ATOM     20  C   UNL     1      48.877   5.638  17.397  0.00  0.00    +0.000 A 
BRANCH  15  22
ATOM     21  N   UNL     1      48.537   3.955  20.596  0.00  0.00    +0.000 N 
ATOM     22  C   UNL     1      49.238   4.588  19.608  0.00  0.00    +0.000 C 
ATOM     23  O   UNL     1      50.300   5.146  19.853  0.00  0.00    +0.000 OA
ATOM     24  H   UNL     1      48.985   3.912  21.501  0.00  0.00    +0.000 HD
ATOM     25  H   UNL     1      47.817   3.275  20.396  0.00  0.00    +0.000 HD
ENDBRANCH  15  22
ENDBRANCH  14  19
ENDBRANCH   1  14
TORSDOF 5
ENDMDL
