MODEL 1
REMARK VINA RESULT:    -8.397      0.000      0.000
REMARK INTER + INTRA:         -14.058
REMARK INTER:                 -13.061
REMARK INTRA:                  -0.997
REMARK UNBOUND:                -0.997
REMARK  Name = 
REMARK  10 active torsions:
REMARK  status: ('A' for Active; 'I' for Inactive)
REMARK    1  A    between atoms: C_2  and  C_23
REMARK    2  A    between atoms: N_3  and  C_4
REMARK    3  A    between atoms: C_4  and  C_5
REMARK    4  A    between atoms: C_8  and  C_9
REMARK    5  A    between atoms: C_9  and  N_10
REMARK    6  A    between atoms: N_10  and  C_11
REMARK    7  A    between atoms: N_10  and  C_14
REMARK    8  A    between atoms: C_11  and  C_12
REMARK    9  A    between atoms: C_12  and  O_13
REMARK   10  A    between atoms: C_14  and  C_15
REMARK                            x       y       z     vdW  Elec       q    Type
REMARK                         _______ _______ _______ _____ _____    ______ ____
ROOT
ATOM      1  C   UNL     1      48.041   6.471  13.898  0.00  0.00    +0.000 A 
ATOM      2  C   UNL     1      47.089   5.456  14.063  0.00  0.00    +0.000 A 
ATOM      3  C   UNL     1      46.167   5.177  13.053  0.00  0.00    +0.000 A 
ATOM      4  C   UNL     1      46.141   5.949  11.885  0.00  0.00    +0.000 A 
ATOM      5  C   UNL     1      47.163   6.882  11.668  0.00  0.00    +0.000 A 
ATOM      6  C   UNL     1      48.114   7.130  12.664  0.00  0.00    +0.000 A 
ENDROOT
BRANCH   1   7
ATOM      7  C   UNL     1      48.926   6.885  15.049  0.00  0.00    +0.000 C 
BRANCH   7  10
ATOM      8  O   UNL     1      50.679   5.409  16.619  0.00  0.00    +0.000 OA
ATOM      9  C   UNL     1      49.522   5.539  17.004  0.00  0.00    +0.000 C 
ATOM     10  N   UNL     1      48.574   6.242  16.285  0.00  0.00    +0.000 N 
ATOM     11  H   UNL     1      47.683   6.449  16.702  0.00  0.00    +0.000 HD
BRANCH   9  12
ATOM     12  C   UNL     1      49.044   4.950  18.257  0.00  0.00    +0.000 A 
ATOM     13  C   UNL     1      48.914   3.597  18.556  0.00  0.00    +0.000 A 
ATOM     14  N   UNL     1      48.463   3.475  19.845  0.00  0.00    +0.000 N 
ATOM     15  C   UNL     1      48.283   4.712  20.392  0.00  0.00    +0.000 A 
ATOM     16  N   UNL     1      47.845   4.925  21.647  0.00  0.00    +0.000 NA
ATOM     17  C   UNL     1      47.745   6.239  21.952  0.00  0.00    +0.000 A 
ATOM     18  C   UNL     1      48.053   7.292  21.101  0.00  0.00    +0.000 A 
ATOM     19  C   UNL     1      48.511   7.010  19.813  0.00  0.00    +0.000 A 
ATOM     20  C   UNL     1      48.631   5.659  19.436  0.00  0.00    +0.000 A 
ATOM     21  H   UNL     1      48.284   2.617  20.344  0.00  0.00    +0.000 HD
ENDBRANCH   9  12
ENDBRANCH   7  10
ENDBRANCH   1   7
BRANCH   4  22
ATOM     22  C   UNL     1      44.976   5.817  10.922  0.00  0.00    +0.000 C 
BRANCH  22  23
ATOM     23  N   UNL     1      44.556   4.399  10.704  0.00  0.00    +0.000 NA
BRANCH  23  24
ATOM     24  C   UNL     1      43.326   4.079  11.478  0.00  0.00    +0.000 C 
BRANCH  24  25
ATOM     25  C   UNL     1      42.495   5.293  11.952  0.00  0.00    +0.000 C 
BRANCH  25  26
ATOM     26  O   UNL     1      42.548   5.416  13.373  0.00  0.00    +0.000 OA
ATOM     27  H   UNL     1      42.186   4.596  13.750  0.00  0.00    +0.000 HD
ENDBRANCH  25  26
ENDBRANCH  24  25
ENDBRANCH  23  24
BRANCH  23  28
ATOM     28  C   UNL     1      44.332   4.165   9.268  0.00  0.00    +0.000 C 
BRANCH  28  29
ATOM     29  C   UNL     1      45.379   3.315   8.578  0.00  0.00    +0.000 A 
ATOM     30  C   UNL     1      45.466   1.935   8.817  0.00  0.00    +0.000 A 
ATOM     31  C   UNL     1      46.334   1.142   8.064  0.00  0.00    +0.000 A 
ATOM     32  C   UNL     1      47.136   1.722   7.082  0.00  0.00    +0.000 A 
ATOM     33  C   UNL     1      47.098   3.099   6.875  0.00  0.00    +0.000 A 
ATOM     34  C   UNL     1      46.223   3.891   7.618  0.00  0.00    +0.000 A 
ENDBRANCH  28  29
ENDBRANCH  23  28
ENDBRANCH  22  23
ENDBRANCH   4  22
TORSDOF 10
ENDMDL
MODEL 2
REMARK VINA RESULT:    -8.047      1.893      2.762
REMARK INTER + INTRA:         -13.513
REMARK INTER:                 -12.382
REMARK INTRA:                  -1.131
REMARK UNBOUND:                -0.997
REMARK  Name = 
REMARK  10 active torsions:
REMARK  status: ('A' for Active; 'I' for Inactive)
REMARK    1  A    between atoms: C_2  and  C_23
REMARK    2  A    between atoms: N_3  and  C_4
REMARK    3  A    between atoms: C_4  and  C_5
REMARK    4  A    between atoms: C_8  and  C_9
REMARK    5  A    between atoms: C_9  and  N_10
REMARK    6  A    between atoms: N_10  and  C_11
REMARK    7  A    between atoms: N_10  and  C_14
REMARK    8  A    between atoms: C_11  and  C_12
REMARK    9  A    between atoms: C_12  and  O_13
REMARK   10  A    between atoms: C_14  and  C_15
REMARK                            x       y       z     vdW  Elec       q    Type
REMARK                         _______ _______ _______ _____ _____    ______ ____
ROOT
ATOM      1  C   UNL     1      46.908   8.075  12.907  0.00  0.00    +0.000 A 
ATOM      2  C   UNL     1      47.444   7.130  12.021  0.00  0.00    +0.000 A 
ATOM      3  C   UNL     1      46.606   6.337  11.236  0.00  0.00    +0.000 A 
ATOM      4  C   UNL     1      45.215   6.431  11.367  0.00  0.00    +0.000 A 
ATOM      5  C   UNL     1      44.678   7.452  12.161  0.00  0.00    +0.000 A 
ATOM      6  C   UNL     1      45.522   8.277  12.914  0.00  0.00    +0.000 A 
ENDROOT
BRANCH   1   7
ATOM      7  C   UNL     1      47.802   8.812  13.873  0.00  0.00    +0.000 C 
BRANCH   7  10
ATOM      8  O   UNL     1      49.935   7.094  14.342  0.00  0.00    +0.000 OA
ATOM      9  C   UNL     1      49.119   7.267  15.240  0.00  0.00    +0.000 C 
ATOM     10  N   UNL     1      48.018   8.091  15.098  0.00  0.00    +0.000 N 
ATOM     11  H   UNL     1      47.458   8.320  15.899  0.00  0.00    +0.000 HD
BRANCH   9  12
ATOM     12  C   UNL     1      49.238   6.607  16.543  0.00  0.00    +0.000 A 
ATOM     13  C   UNL     1      49.899   7.084  17.671  0.00  0.00    +0.000 A 
ATOM     14  N   UNL     1      49.743   6.176  18.686  0.00  0.00    +0.000 N 
ATOM     15  C   UNL     1      49.008   5.112  18.248  0.00  0.00    +0.000 A 
ATOM     16  N   UNL     1      48.686   4.053  19.013  0.00  0.00    +0.000 NA
ATOM     17  C   UNL     1      47.956   3.129  18.347  0.00  0.00    +0.000 A 
ATOM     18  C   UNL     1      47.553   3.218  17.022  0.00  0.00    +0.000 A 
ATOM     19  C   UNL     1      47.910   4.345  16.280  0.00  0.00    +0.000 A 
ATOM     20  C   UNL     1      48.675   5.340  16.919  0.00  0.00    +0.000 A 
ATOM     21  H   UNL     1      50.102   6.252  19.626  0.00  0.00    +0.000 HD
ENDBRANCH   9  12
ENDBRANCH   7  10
ENDBRANCH   1   7
BRANCH   4  22
ATOM     22  C   UNL     1      44.326   5.388  10.717  0.00  0.00    +0.000 C 
BRANCH  22  23
ATOM     23  N   UNL     1      45.049   4.119  10.401  0.00  0.00    +0.000 NA
BRANCH  23  24
ATOM     24  C   UNL     1      44.943   3.148  11.523  0.00  0.00    +0.000 C 
BRANCH  24  25
ATOM     25  C   UNL     1      43.558   3.054  12.202  0.00  0.00    +0.000 C 
BRANCH  25  26
ATOM     26  O   UNL     1      42.818   1.946  11.687  0.00  0.00    +0.000 OA
ATOM     27  H   UNL     1      42.207   2.292  11.014  0.00  0.00    +0.000 HD
ENDBRANCH  25  26
ENDBRANCH  24  25
ENDBRANCH  23  24
BRANCH  23  28
ATOM     28  C   UNL     1      44.505   3.533   9.165  0.00  0.00    +0.000 C 
BRANCH  28  29
ATOM     29  C   UNL     1      45.522   2.871   8.258  0.00  0.00    +0.000 A 
ATOM     30  C   UNL     1      46.257   3.618   7.325  0.00  0.00    +0.000 A 
ATOM     31  C   UNL     1      47.294   3.022   6.604  0.00  0.00    +0.000 A 
ATOM     32  C   UNL     1      47.593   1.674   6.796  0.00  0.00    +0.000 A 
ATOM     33  C   UNL     1      46.835   0.910   7.681  0.00  0.00    +0.000 A 
ATOM     34  C   UNL     1      45.806   1.506   8.409  0.00  0.00    +0.000 A 
ENDBRANCH  28  29
ENDBRANCH  23  28
ENDBRANCH  22  23
ENDBRANCH   4  22
TORSDOF 10
ENDMDL
MODEL 3
REMARK VINA RESULT:    -7.736      2.060      2.820
REMARK INTER + INTRA:         -13.029
REMARK INTER:                 -12.078
REMARK INTRA:                  -0.951
REMARK UNBOUND:                -0.997
REMARK  Name = 
REMARK  10 active torsions:
REMARK  status: ('A' for Active; 'I' for Inactive)
REMARK    1  A    between atoms: C_2  and  C_23
REMARK    2  A    between atoms: N_3  and  C_4
REMARK    3  A    between atoms: C_4  and  C_5
REMARK    4  A    between atoms: C_8  and  C_9
REMARK    5  A    between atoms: C_9  and  N_10
REMARK    6  A    between atoms: N_10  and  C_11
REMARK    7  A    between atoms: N_10  and  C_14
REMARK    8  A    between atoms: C_11  and  C_12
REMARK    9  A    between atoms: C_12  and  O_13
REMARK   10  A    between atoms: C_14  and  C_15
REMARK                            x       y       z     vdW  Elec       q    Type
REMARK                         _______ _______ _______ _____ _____    ______ ____
ROOT
ATOM      1  C   UNL     1      47.850   6.608  14.039  0.00  0.00    +0.000 A 
ATOM      2  C   UNL     1      47.149   5.397  13.955  0.00  0.00    +0.000 A 
ATOM      3  C   UNL     1      46.293   5.145  12.883  0.00  0.00    +0.000 A 
ATOM      4  C   UNL     1      46.073   6.124  11.906  0.00  0.00    +0.000 A 
ATOM      5  C   UNL     1      46.858   7.284  11.923  0.00  0.00    +0.000 A 
ATOM      6  C   UNL     1      47.750   7.516  12.976  0.00  0.00    +0.000 A 
ENDROOT
BRANCH   1   7
ATOM      7  C   UNL     1      48.643   6.951  15.276  0.00  0.00    +0.000 C 
BRANCH   7  10
ATOM      8  O   UNL     1      48.349   5.799  17.787  0.00  0.00    +0.000 OA
ATOM      9  C   UNL     1      49.192   5.333  17.028  0.00  0.00    +0.000 C 
ATOM     10  N   UNL     1      49.421   5.846  15.766  0.00  0.00    +0.000 N 
ATOM     11  H   UNL     1      50.012   5.348  15.124  0.00  0.00    +0.000 HD
BRANCH   9  12
ATOM     12  C   UNL     1      50.035   4.194  17.400  0.00  0.00    +0.000 A 
ATOM     13  C   UNL     1      49.621   2.892  17.670  0.00  0.00    +0.000 A 
ATOM     14  N   UNL     1      50.726   2.130  17.946  0.00  0.00    +0.000 N 
ATOM     15  C   UNL     1      51.851   2.901  17.877  0.00  0.00    +0.000 A 
ATOM     16  N   UNL     1      53.095   2.440  18.099  0.00  0.00    +0.000 NA
ATOM     17  C   UNL     1      54.040   3.401  17.974  0.00  0.00    +0.000 A 
ATOM     18  C   UNL     1      53.804   4.729  17.649  0.00  0.00    +0.000 A 
ATOM     19  C   UNL     1      52.492   5.148  17.421  0.00  0.00    +0.000 A 
ATOM     20  C   UNL     1      51.464   4.193  17.542  0.00  0.00    +0.000 A 
ATOM     21  H   UNL     1      50.742   1.146  18.169  0.00  0.00    +0.000 HD
ENDBRANCH   9  12
ENDBRANCH   7  10
ENDBRANCH   1   7
BRANCH   4  22
ATOM     22  C   UNL     1      44.947   5.947  10.905  0.00  0.00    +0.000 C 
BRANCH  22  23
ATOM     23  N   UNL     1      44.559   4.518  10.708  0.00  0.00    +0.000 NA
BRANCH  23  24
ATOM     24  C   UNL     1      43.342   4.179  11.495  0.00  0.00    +0.000 C 
BRANCH  24  25
ATOM     25  C   UNL     1      42.497   5.381  11.974  0.00  0.00    +0.000 C 
BRANCH  25  26
ATOM     26  O   UNL     1      42.534   5.487  13.398  0.00  0.00    +0.000 OA
ATOM     27  H   UNL     1      41.672   5.188  13.734  0.00  0.00    +0.000 HD
ENDBRANCH  25  26
ENDBRANCH  24  25
ENDBRANCH  23  24
BRANCH  23  28
ATOM     28  C   UNL     1      44.331   4.260   9.277  0.00  0.00    +0.000 C 
BRANCH  28  29
ATOM     29  C   UNL     1      45.359   3.371   8.606  0.00  0.00    +0.000 A 
ATOM     30  C   UNL     1      45.409   1.994   8.870  0.00  0.00    +0.000 A 
ATOM     31  C   UNL     1      46.259   1.166   8.135  0.00  0.00    +0.000 A 
ATOM     32  C   UNL     1      47.079   1.708   7.145  0.00  0.00    +0.000 A 
ATOM     33  C   UNL     1      47.076   3.081   6.912  0.00  0.00    +0.000 A 
ATOM     34  C   UNL     1      46.219   3.908   7.638  0.00  0.00    +0.000 A 
ENDBRANCH  28  29
ENDBRANCH  23  28
ENDBRANCH  22  23
ENDBRANCH   4  22
TORSDOF 10
ENDMDL
MODEL 4
REMARK VINA RESULT:    -7.418      1.941      2.672
REMARK INTER + INTRA:         -12.535
REMARK INTER:                 -11.599
REMARK INTRA:                  -0.936
REMARK UNBOUND:                -0.997
REMARK  Name = 
REMARK  10 active torsions:
REMARK  status: ('A' for Active; 'I' for Inactive)
REMARK    1  A    between atoms: C_2  and  C_23
REMARK    2  A    between atoms: N_3  and  C_4
REMARK    3  A    between atoms: C_4  and  C_5
REMARK    4  A    between atoms: C_8  and  C_9
REMARK    5  A    between atoms: C_9  and  N_10
REMARK    6  A    between atoms: N_10  and  C_11
REMARK    7  A    between atoms: N_10  and  C_14
REMARK    8  A    between atoms: C_11  and  C_12
REMARK    9  A    between atoms: C_12  and  O_13
REMARK   10  A    between atoms: C_14  and  C_15
REMARK                            x       y       z     vdW  Elec       q    Type
REMARK                         _______ _______ _______ _____ _____    ______ ____
ROOT
ATOM      1  C   UNL     1      47.203   4.473  14.756  0.00  0.00    +0.000 A 
ATOM      2  C   UNL     1      46.712   3.496  13.879  0.00  0.00    +0.000 A 
ATOM      3  C   UNL     1      46.221   3.853  12.622  0.00  0.00    +0.000 A 
ATOM      4  C   UNL     1      46.156   5.199  12.243  0.00  0.00    +0.000 A 
ATOM      5  C   UNL     1      46.754   6.162  13.065  0.00  0.00    +0.000 A 
ATOM      6  C   UNL     1      47.286   5.797  14.307  0.00  0.00    +0.000 A 
ENDROOT
BRANCH   1   7
ATOM      7  C   UNL     1      47.577   4.112  16.172  0.00  0.00    +0.000 C 
BRANCH   7  10
ATOM      8  O   UNL     1      49.234   4.717  18.319  0.00  0.00    +0.000 OA
ATOM      9  C   UNL     1      48.243   5.416  18.133  0.00  0.00    +0.000 C 
ATOM     10  N   UNL     1      47.353   5.185  17.102  0.00  0.00    +0.000 N 
ATOM     11  H   UNL     1      46.640   5.863  16.896  0.00  0.00    +0.000 HD
BRANCH   9  12
ATOM     12  C   UNL     1      47.915   6.553  18.997  0.00  0.00    +0.000 A 
ATOM     13  C   UNL     1      47.571   6.513  20.346  0.00  0.00    +0.000 A 
ATOM     14  N   UNL     1      47.372   7.797  20.783  0.00  0.00    +0.000 N 
ATOM     15  C   UNL     1      47.565   8.674  19.755  0.00  0.00    +0.000 A 
ATOM     16  N   UNL     1      47.441  10.008  19.869  0.00  0.00    +0.000 NA
ATOM     17  C   UNL     1      47.679  10.658  18.707  0.00  0.00    +0.000 A 
ATOM     18  C   UNL     1      48.020  10.060  17.501  0.00  0.00    +0.000 A 
ATOM     19  C   UNL     1      48.142   8.671  17.446  0.00  0.00    +0.000 A 
ATOM     20  C   UNL     1      47.902   7.940  18.624  0.00  0.00    +0.000 A 
ATOM     21  H   UNL     1      47.124   8.086  21.718  0.00  0.00    +0.000 HD
ENDBRANCH   9  12
ENDBRANCH   7  10
ENDBRANCH   1   7
BRANCH   4  22
ATOM     22  C   UNL     1      45.380   5.593  11.000  0.00  0.00    +0.000 C 
BRANCH  22  23
ATOM     23  N   UNL     1      44.641   4.450  10.386  0.00  0.00    +0.000 NA
BRANCH  23  24
ATOM     24  C   UNL     1      43.216   4.439  10.817  0.00  0.00    +0.000 C 
BRANCH  24  25
ATOM     25  C   UNL     1      42.881   5.307  12.051  0.00  0.00    +0.000 C 
BRANCH  25  26
ATOM     26  O   UNL     1      41.921   6.310  11.716  0.00  0.00    +0.000 OA
ATOM     27  H   UNL     1      41.337   5.936  11.034  0.00  0.00    +0.000 HD
ENDBRANCH  25  26
ENDBRANCH  24  25
ENDBRANCH  23  24
BRANCH  23  28
ATOM     28  C   UNL     1      44.730   4.533   8.919  0.00  0.00    +0.000 C 
BRANCH  28  29
ATOM     29  C   UNL     1      45.550   3.444   8.257  0.00  0.00    +0.000 A 
ATOM     30  C   UNL     1      46.532   3.753   7.304  0.00  0.00    +0.000 A 
ATOM     31  C   UNL     1      47.379   2.757   6.815  0.00  0.00    +0.000 A 
ATOM     32  C   UNL     1      47.240   1.442   7.258  0.00  0.00    +0.000 A 
ATOM     33  C   UNL     1      46.232   1.114   8.163  0.00  0.00    +0.000 A 
ATOM     34  C   UNL     1      45.392   2.110   8.660  0.00  0.00    +0.000 A 
ENDBRANCH  28  29
ENDBRANCH  23  28
ENDBRANCH  22  23
ENDBRANCH   4  22
TORSDOF 10
ENDMDL
MODEL 5
REMARK VINA RESULT:    -7.143      3.325      4.724
REMARK INTER + INTRA:         -12.107
REMARK INTER:                 -10.499
REMARK INTRA:                  -1.608
REMARK UNBOUND:                -0.997
REMARK  Name = 
REMARK  10 active torsions:
REMARK  status: ('A' for Active; 'I' for Inactive)
REMARK    1  A    between atoms: C_2  and  C_23
REMARK    2  A    between atoms: N_3  and  C_4
REMARK    3  A    between atoms: C_4  and  C_5
REMARK    4  A    between atoms: C_8  and  C_9
REMARK    5  A    between atoms: C_9  and  N_10
REMARK    6  A    between atoms: N_10  and  C_11
REMARK    7  A    between atoms: N_10  and  C_14
REMARK    8  A    between atoms: C_11  and  C_12
REMARK    9  A    between atoms: C_12  and  O_13
REMARK   10  A    between atoms: C_14  and  C_15
REMARK                            x       y       z     vdW  Elec       q    Type
REMARK                         _______ _______ _______ _____ _____    ______ ____
ROOT
ATOM      1  C   UNL     1      47.603   4.427  15.705  0.00  0.00    +0.000 A 
ATOM      2  C   UNL     1      46.967   3.972  14.542  0.00  0.00    +0.000 A 
ATOM      3  C   UNL     1      46.856   4.800  13.424  0.00  0.00    +0.000 A 
ATOM      4  C   UNL     1      47.324   6.118  13.469  0.00  0.00    +0.000 A 
ATOM      5  C   UNL     1      48.062   6.536  14.584  0.00  0.00    +0.000 A 
ATOM      6  C   UNL     1      48.212   5.688  15.688  0.00  0.00    +0.000 A 
ENDROOT
BRANCH   1   7
ATOM      7  C   UNL     1      47.578   3.598  16.966  0.00  0.00    +0.000 C 
BRANCH   7  10
ATOM      8  O   UNL     1      49.305   1.695  15.909  0.00  0.00    +0.000 OA
ATOM      9  C   UNL     1      49.683   2.353  16.872  0.00  0.00    +0.000 C 
ATOM     10  N   UNL     1      48.891   3.312  17.475  0.00  0.00    +0.000 N 
ATOM     11  H   UNL     1      49.288   3.928  18.163  0.00  0.00    +0.000 HD
BRANCH   9  12
ATOM     12  C   UNL     1      51.007   2.172  17.472  0.00  0.00    +0.000 A 
ATOM     13  C   UNL     1      51.614   0.970  17.825  0.00  0.00    +0.000 A 
ATOM     14  N   UNL     1      52.862   1.241  18.323  0.00  0.00    +0.000 N 
ATOM     15  C   UNL     1      53.083   2.587  18.316  0.00  0.00    +0.000 A 
ATOM     16  N   UNL     1      54.218   3.168  18.747  0.00  0.00    +0.000 NA
ATOM     17  C   UNL     1      54.191   4.516  18.642  0.00  0.00    +0.000 A 
ATOM     18  C   UNL     1      53.134   5.267  18.146  0.00  0.00    +0.000 A 
ATOM     19  C   UNL     1      51.984   4.609  17.706  0.00  0.00    +0.000 A 
ATOM     20  C   UNL     1      51.952   3.204  17.796  0.00  0.00    +0.000 A 
ATOM     21  H   UNL     1      53.541   0.570  18.651  0.00  0.00    +0.000 HD
ENDBRANCH   9  12
ENDBRANCH   7  10
ENDBRANCH   1   7
BRANCH   4  22
ATOM     22  C   UNL     1      46.959   7.085  12.358  0.00  0.00    +0.000 C 
BRANCH  22  23
ATOM     23  N   UNL     1      45.594   7.671  12.518  0.00  0.00    +0.000 NA
BRANCH  23  24
ATOM     24  C   UNL     1      45.653   9.157  12.580  0.00  0.00    +0.000 C 
BRANCH  24  25
ATOM     25  C   UNL     1      46.994   9.794  12.152  0.00  0.00    +0.000 C 
BRANCH  25  26
ATOM     26  O   UNL     1      47.612  10.456  13.257  0.00  0.00    +0.000 OA
ATOM     27  H   UNL     1      47.397  11.401  13.187  0.00  0.00    +0.000 HD
ENDBRANCH  25  26
ENDBRANCH  24  25
ENDBRANCH  23  24
BRANCH  23  28
ATOM     28  C   UNL     1      44.735   7.239  11.403  0.00  0.00    +0.000 C 
BRANCH  28  29
ATOM     29  C   UNL     1      44.226   5.815  11.491  0.00  0.00    +0.000 A 
ATOM     30  C   UNL     1      44.522   4.875  10.492  0.00  0.00    +0.000 A 
ATOM     31  C   UNL     1      44.174   3.534  10.660  0.00  0.00    +0.000 A 
ATOM     32  C   UNL     1      43.511   3.123  11.817  0.00  0.00    +0.000 A 
ATOM     33  C   UNL     1      43.164   4.057  12.790  0.00  0.00    +0.000 A 
ATOM     34  C   UNL     1      43.521   5.396  12.629  0.00  0.00    +0.000 A 
ENDBRANCH  28  29
ENDBRANCH  23  28
ENDBRANCH  22  23
ENDBRANCH   4  22
TORSDOF 10
ENDMDL
MODEL 6
REMARK VINA RESULT:    -7.087      4.748     11.615
REMARK INTER + INTRA:         -12.020
REMARK INTER:                 -10.879
REMARK INTRA:                  -1.142
REMARK UNBOUND:                -0.997
REMARK  Name = 
REMARK  10 active torsions:
REMARK  status: ('A' for Active; 'I' for Inactive)
REMARK    1  A    between atoms: C_2  and  C_23
REMARK    2  A    between atoms: N_3  and  C_4
REMARK    3  A    between atoms: C_4  and  C_5
REMARK    4  A    between atoms: C_8  and  C_9
REMARK    5  A    between atoms: C_9  and  N_10
REMARK    6  A    between atoms: N_10  and  C_11
REMARK    7  A    between atoms: N_10  and  C_14
REMARK    8  A    between atoms: C_11  and  C_12
REMARK    9  A    between atoms: C_12  and  O_13
REMARK   10  A    between atoms: C_14  and  C_15
REMARK                            x       y       z     vdW  Elec       q    Type
REMARK                         _______ _______ _______ _____ _____    ______ ____
ROOT
ATOM      1  C   UNL     1      46.281   3.275   7.693  0.00  0.00    +0.000 A 
ATOM      2  C   UNL     1      45.831   2.099   8.309  0.00  0.00    +0.000 A 
ATOM      3  C   UNL     1      45.103   2.155   9.498  0.00  0.00    +0.000 A 
ATOM      4  C   UNL     1      44.864   3.383  10.125  0.00  0.00    +0.000 A 
ATOM      5  C   UNL     1      45.208   4.563   9.454  0.00  0.00    +0.000 A 
ATOM      6  C   UNL     1      45.899   4.507   8.239  0.00  0.00    +0.000 A 
ENDROOT
BRANCH   1   7
ATOM      7  C   UNL     1      47.207   3.210   6.504  0.00  0.00    +0.000 C 
BRANCH   7  10
ATOM      8  O   UNL     1      48.303   0.824   5.595  0.00  0.00    +0.000 OA
ATOM      9  C   UNL     1      47.287   1.242   5.051  0.00  0.00    +0.000 C 
ATOM     10  N   UNL     1      46.677   2.425   5.423  0.00  0.00    +0.000 N 
ATOM     11  H   UNL     1      45.771   2.657   5.055  0.00  0.00    +0.000 HD
BRANCH   9  12
ATOM     12  C   UNL     1      46.637   0.525   3.951  0.00  0.00    +0.000 A 
ATOM     13  C   UNL     1      46.012   1.080   2.837  0.00  0.00    +0.000 A 
ATOM     14  N   UNL     1      45.563   0.062   2.036  0.00  0.00    +0.000 N 
ATOM     15  C   UNL     1      45.866  -1.142   2.601  0.00  0.00    +0.000 A 
ATOM     16  N   UNL     1      45.554  -2.332   2.055  0.00  0.00    +0.000 NA
ATOM     17  C   UNL     1      45.959  -3.378   2.811  0.00  0.00    +0.000 A 
ATOM     18  C   UNL     1      46.629  -3.289   4.022  0.00  0.00    +0.000 A 
ATOM     19  C   UNL     1      46.933  -2.027   4.537  0.00  0.00    +0.000 A 
ATOM     20  C   UNL     1      46.533  -0.899   3.796  0.00  0.00    +0.000 A 
ATOM     21  H   UNL     1      45.080   0.155   1.154  0.00  0.00    +0.000 HD
ENDBRANCH   9  12
ENDBRANCH   7  10
ENDBRANCH   1   7
BRANCH   4  22
ATOM     22  C   UNL     1      44.314   3.411  11.539  0.00  0.00    +0.000 C 
BRANCH  22  23
ATOM     23  N   UNL     1      44.302   4.782  12.134  0.00  0.00    +0.000 NA
BRANCH  23  24
ATOM     24  C   UNL     1      42.973   5.097  12.727  0.00  0.00    +0.000 C 
BRANCH  24  25
ATOM     25  C   UNL     1      42.063   6.017  11.884  0.00  0.00    +0.000 C 
BRANCH  25  26
ATOM     26  O   UNL     1      42.816   7.093  11.321  0.00  0.00    +0.000 OA
ATOM     27  H   UNL     1      42.973   7.739  12.030  0.00  0.00    +0.000 HD
ENDBRANCH  25  26
ENDBRANCH  24  25
ENDBRANCH  23  24
BRANCH  23  28
ATOM     28  C   UNL     1      45.356   4.887  13.156  0.00  0.00    +0.000 C 
BRANCH  28  29
ATOM     29  C   UNL     1      46.286   6.074  13.008  0.00  0.00    +0.000 A 
ATOM     30  C   UNL     1      45.789   7.353  12.716  0.00  0.00    +0.000 A 
ATOM     31  C   UNL     1      46.639   8.460  12.731  0.00  0.00    +0.000 A 
ATOM     32  C   UNL     1      47.994   8.297  13.017  0.00  0.00    +0.000 A 
ATOM     33  C   UNL     1      48.508   7.024  13.254  0.00  0.00    +0.000 A 
ATOM     34  C   UNL     1      47.658   5.919  13.251  0.00  0.00    +0.000 A 
ENDBRANCH  28  29
ENDBRANCH  23  28
ENDBRANCH  22  23
ENDBRANCH   4  22
TORSDOF 10
ENDMDL
MODEL 7
REMARK VINA RESULT:    -6.796      2.635      9.364
REMARK INTER + INTRA:         -11.567
REMARK INTER:                  -9.895
REMARK INTRA:                  -1.672
REMARK UNBOUND:                -0.997
REMARK  Name = 
REMARK  10 active torsions:
REMARK  status: ('A' for Active; 'I' for Inactive)
REMARK    1  A    between atoms: C_2  and  C_23
REMARK    2  A    between atoms: N_3  and  C_4
REMARK    3  A    between atoms: C_4  and  C_5
REMARK    4  A    between atoms: C_8  and  C_9
REMARK    5  A    between atoms: C_9  and  N_10
REMARK    6  A    between atoms: N_10  and  C_11
REMARK    7  A    between atoms: N_10  and  C_14
REMARK    8  A    between atoms: C_11  and  C_12
REMARK    9  A    between atoms: C_12  and  O_13
REMARK   10  A    between atoms: C_14  and  C_15
REMARK                            x       y       z     vdW  Elec       q    Type
REMARK                         _______ _______ _______ _____ _____    ______ ____
ROOT
ATOM      1  C   UNL     1      47.085   7.850  12.975  0.00  0.00    +0.000 A 
ATOM      2  C   UNL     1      47.232   8.758  14.032  0.00  0.00    +0.000 A 
ATOM      3  C   UNL     1      48.456   8.891  14.689  0.00  0.00    +0.000 A 
ATOM      4  C   UNL     1      49.539   8.075  14.340  0.00  0.00    +0.000 A 
ATOM      5  C   UNL     1      49.431   7.255  13.211  0.00  0.00    +0.000 A 
ATOM      6  C   UNL     1      48.215   7.155  12.525  0.00  0.00    +0.000 A 
ENDROOT
BRANCH   1   7
ATOM      7  C   UNL     1      45.726   7.585  12.376  0.00  0.00    +0.000 C 
BRANCH   7  10
ATOM      8  O   UNL     1      43.369   6.514  11.366  0.00  0.00    +0.000 OA
ATOM      9  C   UNL     1      44.368   5.802  11.393  0.00  0.00    +0.000 C 
ATOM     10  N   UNL     1      45.581   6.240  11.889  0.00  0.00    +0.000 N 
ATOM     11  H   UNL     1      46.405   5.681  11.759  0.00  0.00    +0.000 HD
BRANCH   9  12
ATOM     12  C   UNL     1      44.356   4.420  10.906  0.00  0.00    +0.000 A 
ATOM     13  C   UNL     1      43.721   3.328  11.491  0.00  0.00    +0.000 A 
ATOM     14  N   UNL     1      43.932   2.227  10.701  0.00  0.00    +0.000 N 
ATOM     15  C   UNL     1      44.698   2.567   9.624  0.00  0.00    +0.000 A 
ATOM     16  N   UNL     1      45.078   1.702   8.666  0.00  0.00    +0.000 NA
ATOM     17  C   UNL     1      45.837   2.282   7.708  0.00  0.00    +0.000 A 
ATOM     18  C   UNL     1      46.207   3.619   7.668  0.00  0.00    +0.000 A 
ATOM     19  C   UNL     1      45.775   4.471   8.686  0.00  0.00    +0.000 A 
ATOM     20  C   UNL     1      44.986   3.923   9.715  0.00  0.00    +0.000 A 
ATOM     21  H   UNL     1      43.585   1.292  10.862  0.00  0.00    +0.000 HD
ENDBRANCH   9  12
ENDBRANCH   7  10
ENDBRANCH   1   7
BRANCH   4  22
ATOM     22  C   UNL     1      50.768   8.037  15.229  0.00  0.00    +0.000 C 
BRANCH  22  23
ATOM     23  N   UNL     1      50.975   6.709  15.882  0.00  0.00    +0.000 NA
BRANCH  23  24
ATOM     24  C   UNL     1      52.399   6.519  16.271  0.00  0.00    +0.000 C 
BRANCH  24  25
ATOM     25  C   UNL     1      52.784   7.022  17.681  0.00  0.00    +0.000 C 
BRANCH  25  26
ATOM     26  O   UNL     1      54.155   6.738  17.960  0.00  0.00    +0.000 OA
ATOM     27  H   UNL     1      54.601   6.590  17.109  0.00  0.00    +0.000 HD
ENDBRANCH  25  26
ENDBRANCH  24  25
ENDBRANCH  23  24
BRANCH  23  28
ATOM     28  C   UNL     1      50.104   6.597  17.063  0.00  0.00    +0.000 C 
BRANCH  28  29
ATOM     29  C   UNL     1      49.185   5.392  17.078  0.00  0.00    +0.000 A 
ATOM     30  C   UNL     1      48.120   5.282  16.171  0.00  0.00    +0.000 A 
ATOM     31  C   UNL     1      47.377   4.102  16.098  0.00  0.00    +0.000 A 
ATOM     32  C   UNL     1      47.677   3.032  16.941  0.00  0.00    +0.000 A 
ATOM     33  C   UNL     1      48.697   3.152  17.882  0.00  0.00    +0.000 A 
ATOM     34  C   UNL     1      49.448   4.326  17.950  0.00  0.00    +0.000 A 
ENDBRANCH  28  29
ENDBRANCH  23  28
ENDBRANCH  22  23
ENDBRANCH   4  22
TORSDOF 10
ENDMDL
MODEL 8
REMARK VINA RESULT:    -6.682      3.320      9.386
REMARK INTER + INTRA:         -11.390
REMARK INTER:                  -8.826
REMARK INTRA:                  -2.563
REMARK UNBOUND:                -0.997
REMARK  Name = 
REMARK  10 active torsions:
REMARK  status: ('A' for Active; 'I' for Inactive)
REMARK    1  A    between atoms: C_2  and  C_23
REMARK    2  A    between atoms: N_3  and  C_4
REMARK    3  A    between atoms: C_4  and  C_5
REMARK    4  A    between atoms: C_8  and  C_9
REMARK    5  A    between atoms: C_9  and  N_10
REMARK    6  A    between atoms: N_10  and  C_11
REMARK    7  A    between atoms: N_10  and  C_14
REMARK    8  A    between atoms: C_11  and  C_12
REMARK    9  A    between atoms: C_12  and  O_13
REMARK   10  A    between atoms: C_14  and  C_15
REMARK                            x       y       z     vdW  Elec       q    Type
REMARK                         _______ _______ _______ _____ _____    ______ ____
ROOT
ATOM      1  C   UNL     1      47.718   4.334  18.075  0.00  0.00    +0.000 A 
ATOM      2  C   UNL     1      48.863   3.954  18.788  0.00  0.00    +0.000 A 
ATOM      3  C   UNL     1      49.289   4.692  19.893  0.00  0.00    +0.000 A 
ATOM      4  C   UNL     1      48.613   5.859  20.269  0.00  0.00    +0.000 A 
ATOM      5  C   UNL     1      47.405   6.174  19.635  0.00  0.00    +0.000 A 
ATOM      6  C   UNL     1      46.955   5.407  18.554  0.00  0.00    +0.000 A 
ENDROOT
BRANCH   1   7
ATOM      7  C   UNL     1      47.352   3.640  16.787  0.00  0.00    +0.000 C 
BRANCH   7  10
ATOM      8  O   UNL     1      47.321   3.098  14.062  0.00  0.00    +0.000 OA
ATOM      9  C   UNL     1      46.889   4.180  14.445  0.00  0.00    +0.000 C 
ATOM     10  N   UNL     1      46.875   4.546  15.778  0.00  0.00    +0.000 N 
ATOM     11  H   UNL     1      46.382   5.373  16.064  0.00  0.00    +0.000 HD
BRANCH   9  12
ATOM     12  C   UNL     1      46.356   5.182  13.519  0.00  0.00    +0.000 A 
ATOM     13  C   UNL     1      47.017   6.300  13.017  0.00  0.00    +0.000 A 
ATOM     14  N   UNL     1      46.174   6.957  12.158  0.00  0.00    +0.000 N 
ATOM     15  C   UNL     1      44.976   6.306  12.095  0.00  0.00    +0.000 A 
ATOM     16  N   UNL     1      43.938   6.708  11.338  0.00  0.00    +0.000 NA
ATOM     17  C   UNL     1      42.861   5.898  11.452  0.00  0.00    +0.000 A 
ATOM     18  C   UNL     1      42.785   4.762  12.245  0.00  0.00    +0.000 A 
ATOM     19  C   UNL     1      43.896   4.389  13.003  0.00  0.00    +0.000 A 
ATOM     20  C   UNL     1      45.046   5.197  12.929  0.00  0.00    +0.000 A 
ATOM     21  H   UNL     1      46.377   7.795  11.634  0.00  0.00    +0.000 HD
ENDBRANCH   9  12
ENDBRANCH   7  10
ENDBRANCH   1   7
BRANCH   4  22
ATOM     22  C   UNL     1      49.235   6.792  21.291  0.00  0.00    +0.000 C 
BRANCH  22  23
ATOM     23  N   UNL     1      49.540   8.145  20.736  0.00  0.00    +0.000 NA
BRANCH  23  24
ATOM     24  C   UNL     1      49.855   9.112  21.824  0.00  0.00    +0.000 C 
BRANCH  24  25
ATOM     25  C   UNL     1      49.850  10.603  21.419  0.00  0.00    +0.000 C 
BRANCH  25  26
ATOM     26  O   UNL     1      48.632  10.941  20.755  0.00  0.00    +0.000 OA
ATOM     27  H   UNL     1      48.626  10.474  19.902  0.00  0.00    +0.000 HD
ENDBRANCH  25  26
ENDBRANCH  24  25
ENDBRANCH  23  24
BRANCH  23  28
ATOM     28  C   UNL     1      50.668   8.052  19.794  0.00  0.00    +0.000 C 
BRANCH  28  29
ATOM     29  C   UNL     1      50.284   7.838  18.344  0.00  0.00    +0.000 A 
ATOM     30  C   UNL     1      50.930   6.872  17.558  0.00  0.00    +0.000 A 
ATOM     31  C   UNL     1      50.466   6.584  16.273  0.00  0.00    +0.000 A 
ATOM     32  C   UNL     1      49.368   7.270  15.756  0.00  0.00    +0.000 A 
ATOM     33  C   UNL     1      48.754   8.270  16.507  0.00  0.00    +0.000 A 
ATOM     34  C   UNL     1      49.209   8.552  17.795  0.00  0.00    +0.000 A 
ENDBRANCH  28  29
ENDBRANCH  23  28
ENDBRANCH  22  23
ENDBRANCH   4  22
TORSDOF 10
ENDMDL
MODEL 9
REMARK VINA RESULT:    -6.483      4.134      9.494
REMARK INTER + INTRA:         -11.080
REMARK INTER:                  -8.687
REMARK INTRA:                  -2.393
REMARK UNBOUND:                -0.997
REMARK  Name = 
REMARK  10 active torsions:
REMARK  status: ('A' for Active; 'I' for Inactive)
REMARK    1  A    between atoms: C_2  and  C_23
REMARK    2  A    between atoms: N_3  and  C_4
REMARK    3  A    between atoms: C_4  and  C_5
REMARK    4  A    between atoms: C_8  and  C_9
REMARK    5  A    between atoms: C_9  and  N_10
REMARK    6  A    between atoms: N_10  and  C_11
REMARK    7  A    between atoms: N_10  and  C_14
REMARK    8  A    between atoms: C_11  and  C_12
REMARK    9  A    between atoms: C_12  and  O_13
REMARK   10  A    between atoms: C_14  and  C_15
REMARK                            x       y       z     vdW  Elec       q    Type
REMARK                         _______ _______ _______ _____ _____    ______ ____
ROOT
ATOM      1  C   UNL     1      47.592   8.436  12.388  0.00  0.00    +0.000 A 
ATOM      2  C   UNL     1      48.035   9.719  12.037  0.00  0.00    +0.000 A 
ATOM      3  C   UNL     1      49.338   9.919  11.580  0.00  0.00    +0.000 A 
ATOM      4  C   UNL     1      50.242   8.851  11.526  0.00  0.00    +0.000 A 
ATOM      5  C   UNL     1      49.771   7.554  11.763  0.00  0.00    +0.000 A 
ATOM      6  C   UNL     1      48.450   7.349  12.177  0.00  0.00    +0.000 A 
ENDROOT
BRANCH   1   7
ATOM      7  C   UNL     1      46.244   8.243  13.037  0.00  0.00    +0.000 C 
BRANCH   7  10
ATOM      8  O   UNL     1      44.195   7.779  11.219  0.00  0.00    +0.000 OA
ATOM      9  C   UNL     1      44.660   6.822  11.829  0.00  0.00    +0.000 C 
ATOM     10  N   UNL     1      45.670   6.954  12.763  0.00  0.00    +0.000 N 
ATOM     11  H   UNL     1      46.121   6.135  13.130  0.00  0.00    +0.000 HD
BRANCH   9  12
ATOM     12  C   UNL     1      44.175   5.454  11.624  0.00  0.00    +0.000 A 
ATOM     13  C   UNL     1      43.307   4.738  12.444  0.00  0.00    +0.000 A 
ATOM     14  N   UNL     1      43.085   3.510  11.875  0.00  0.00    +0.000 N 
ATOM     15  C   UNL     1      43.794   3.400  10.714  0.00  0.00    +0.000 A 
ATOM     16  N   UNL     1      43.786   2.309   9.926  0.00  0.00    +0.000 NA
ATOM     17  C   UNL     1      44.573   2.445   8.835  0.00  0.00    +0.000 A 
ATOM     18  C   UNL     1      45.325   3.567   8.515  0.00  0.00    +0.000 A 
ATOM     19  C   UNL     1      45.288   4.672   9.367  0.00  0.00    +0.000 A 
ATOM     20  C   UNL     1      44.488   4.588  10.522  0.00  0.00    +0.000 A 
ATOM     21  H   UNL     1      42.492   2.776  12.234  0.00  0.00    +0.000 HD
ENDBRANCH   9  12
ENDBRANCH   7  10
ENDBRANCH   1   7
BRANCH   4  22
ATOM     22  C   UNL     1      51.716   9.125  11.291  0.00  0.00    +0.000 C 
BRANCH  22  23
ATOM     23  N   UNL     1      52.599   8.475  12.306  0.00  0.00    +0.000 NA
BRANCH  23  24
ATOM     24  C   UNL     1      53.898   8.066  11.703  0.00  0.00    +0.000 C 
BRANCH  24  25
ATOM     25  C   UNL     1      53.809   7.366  10.328  0.00  0.00    +0.000 C 
BRANCH  25  26
ATOM     26  O   UNL     1      53.435   5.996  10.484  0.00  0.00    +0.000 OA
ATOM     27  H   UNL     1      53.966   5.477   9.856  0.00  0.00    +0.000 HD
ENDBRANCH  25  26
ENDBRANCH  24  25
ENDBRANCH  23  24
BRANCH  23  28
ATOM     28  C   UNL     1      52.826   9.398  13.430  0.00  0.00    +0.000 C 
BRANCH  28  29
ATOM     29  C   UNL     1      51.653   9.571  14.373  0.00  0.00    +0.000 A 
ATOM     30  C   UNL     1      51.068  10.830  14.580  0.00  0.00    +0.000 A 
ATOM     31  C   UNL     1      49.898  10.948  15.332  0.00  0.00    +0.000 A 
ATOM     32  C   UNL     1      49.314   9.816  15.900  0.00  0.00    +0.000 A 
ATOM     33  C   UNL     1      49.917   8.570  15.746  0.00  0.00    +0.000 A 
ATOM     34  C   UNL     1      51.079   8.448  14.985  0.00  0.00    +0.000 A 
ENDBRANCH  28  29
ENDBRANCH  23  28
ENDBRANCH  22  23
ENDBRANCH   4  22
TORSDOF 10
ENDMDL
