MODEL 1
REMARK VINA RESULT:    -9.113      0.000      0.000
REMARK INTER + INTRA:         -11.161
REMARK INTER:                 -11.245
REMARK INTRA:                   0.083
REMARK UNBOUND:                 0.083
REMARK  Name = 
REMARK  4 active torsions:
REMARK  status: ('A' for Active; 'I' for Inactive)
REMARK    1  A    between atoms: C_2  and  C_5
REMARK    2  A    between atoms: N_9  and  C_10
REMARK    3  A    between atoms: C_10  and  C_11
REMARK    4  A    between atoms: C_15  and  C_16
REMARK                            x       y       z     vdW  Elec       q    Type
REMARK                         _______ _______ _______ _____ _____    ______ ____
ROOT
ATOM      1  C   UNL     1      43.954   4.772  11.602  0.00  0.00    +0.000 C 
ATOM      2  C   UNL     1      42.678   5.267  12.263  0.00  0.00    +0.000 C 
ATOM      3  C   UNL     1      43.202   5.999  11.076  0.00  0.00    +0.000 C 
ENDROOT
BRANCH   1   8
ATOM      4  C   UNL     1      46.344   2.763   7.568  0.00  0.00    +0.000 A 
ATOM      5  C   UNL     1      45.797   1.789   8.362  0.00  0.00    +0.000 A 
ATOM      6  N   UNL     1      45.023   2.052   9.433  0.00  0.00    +0.000 NA
ATOM      7  C   UNL     1      44.782   3.341   9.728  0.00  0.00    +0.000 A 
ATOM      8  N   UNL     1      43.911   3.548  10.798  0.00  0.00    +0.000 N 
ATOM      9  N   UNL     1      45.315   4.362   9.042  0.00  0.00    +0.000 NA
ATOM     10  C   UNL     1      46.075   4.048   7.971  0.00  0.00    +0.000 A 
ATOM     11  H   UNL     1      43.810   2.655  11.264  0.00  0.00    +0.000 HD
BRANCH   4  13
ATOM     12  F   UNL     1      46.988   1.177   5.914  0.00  0.00    +0.000 F 
ATOM     13  C   UNL     1      47.144   2.457   6.356  0.00  0.00    +0.000 C 
ATOM     14  F   UNL     1      48.482   2.622   6.546  0.00  0.00    +0.000 F 
ATOM     15  F   UNL     1      46.818   3.254   5.302  0.00  0.00    +0.000 F 
ENDBRANCH   4  13
ENDBRANCH   1   8
BRANCH   1  16
ATOM     16  C   UNL     1      45.321   5.125  12.180  0.00  0.00    +0.000 A 
ATOM     17  C   UNL     1      46.000   6.283  11.764  0.00  0.00    +0.000 A 
ATOM     18  C   UNL     1      47.113   6.757  12.457  0.00  0.00    +0.000 A 
ATOM     19  C   UNL     1      47.563   6.080  13.589  0.00  0.00    +0.000 A 
ATOM     20  C   UNL     1      46.953   4.888  14.010  0.00  0.00    +0.000 A 
ATOM     21  C   UNL     1      45.867   4.405  13.256  0.00  0.00    +0.000 A 
BRANCH  20  22
ATOM     22  C   UNL     1      47.341   4.236  15.273  0.00  0.00    +0.000 A 
ATOM     23  C   UNL     1      47.372   4.908  16.495  0.00  0.00    +0.000 A 
ATOM     24  C   UNL     1      47.893   4.259  17.613  0.00  0.00    +0.000 A 
ATOM     25  C   UNL     1      48.367   2.960  17.488  0.00  0.00    +0.000 A 
ATOM     26  C   UNL     1      48.283   2.354  16.249  0.00  0.00    +0.000 A 
ATOM     27  N   UNL     1      47.777   2.956  15.151  0.00  0.00    +0.000 NA
ENDBRANCH  20  22
ENDBRANCH   1  16
TORSDOF 4
ENDMDL
MODEL 2
REMARK VINA RESULT:    -8.383      1.902      3.761
REMARK INTER + INTRA:         -10.260
REMARK INTER:                 -10.292
REMARK INTRA:                   0.033
REMARK UNBOUND:                 0.083
REMARK  Name = 
REMARK  4 active torsions:
REMARK  status: ('A' for Active; 'I' for Inactive)
REMARK    1  A    between atoms: C_2  and  C_5
REMARK    2  A    between atoms: N_9  and  C_10
REMARK    3  A    between atoms: C_10  and  C_11
REMARK    4  A    between atoms: C_15  and  C_16
REMARK                            x       y       z     vdW  Elec       q    Type
REMARK                         _______ _______ _______ _____ _____    ______ ____
ROOT
ATOM      1  C   UNL     1      43.766   4.865  11.632  0.00  0.00    +0.000 C 
ATOM      2  C   UNL     1      42.427   5.413  12.099  0.00  0.00    +0.000 C 
ATOM      3  C   UNL     1      43.131   6.098  10.980  0.00  0.00    +0.000 C 
ENDROOT
BRANCH   1   8
ATOM      4  C   UNL     1      46.298   2.889   7.670  0.00  0.00    +0.000 A 
ATOM      5  C   UNL     1      45.796   1.908   8.484  0.00  0.00    +0.000 A 
ATOM      6  N   UNL     1      44.999   2.154   9.542  0.00  0.00    +0.000 NA
ATOM      7  C   UNL     1      44.687   3.436   9.802  0.00  0.00    +0.000 A 
ATOM      8  N   UNL     1      43.796   3.621  10.859  0.00  0.00    +0.000 N 
ATOM      9  N   UNL     1      45.171   4.467   9.095  0.00  0.00    +0.000 NA
ATOM     10  C   UNL     1      45.956   4.168   8.039  0.00  0.00    +0.000 A 
ATOM     11  H   UNL     1      43.738   2.736  11.347  0.00  0.00    +0.000 HD
BRANCH   4  13
ATOM     12  F   UNL     1      48.464   2.702   6.701  0.00  0.00    +0.000 F 
ATOM     13  C   UNL     1      47.124   2.597   6.472  0.00  0.00    +0.000 C 
ATOM     14  F   UNL     1      46.861   3.431   5.429  0.00  0.00    +0.000 F 
ATOM     15  F   UNL     1      46.928   1.336   5.999  0.00  0.00    +0.000 F 
ENDBRANCH   4  13
ENDBRANCH   1   8
BRANCH   1  16
ATOM     16  C   UNL     1      45.051   5.197  12.385  0.00  0.00    +0.000 A 
ATOM     17  C   UNL     1      45.654   4.250  13.231  0.00  0.00    +0.000 A 
ATOM     18  C   UNL     1      46.947   4.433  13.717  0.00  0.00    +0.000 A 
ATOM     19  C   UNL     1      47.666   5.572  13.357  0.00  0.00    +0.000 A 
ATOM     20  C   UNL     1      47.087   6.573  12.562  0.00  0.00    +0.000 A 
ATOM     21  C   UNL     1      45.760   6.384  12.133  0.00  0.00    +0.000 A 
BRANCH  20  22
ATOM     22  C   UNL     1      47.879   7.715  12.074  0.00  0.00    +0.000 A 
ATOM     23  C   UNL     1      49.227   7.612  11.731  0.00  0.00    +0.000 A 
ATOM     24  C   UNL     1      49.940   8.770  11.422  0.00  0.00    +0.000 A 
ATOM     25  C   UNL     1      49.293   9.998  11.462  0.00  0.00    +0.000 A 
ATOM     26  C   UNL     1      47.951  10.017  11.790  0.00  0.00    +0.000 A 
ATOM     27  N   UNL     1      47.235   8.911  12.086  0.00  0.00    +0.000 NA
ENDBRANCH  20  22
ENDBRANCH   1  16
TORSDOF 4
ENDMDL
MODEL 3
REMARK VINA RESULT:    -7.827      4.365      7.911
REMARK INTER + INTRA:          -9.574
REMARK INTER:                  -9.178
REMARK INTRA:                  -0.396
REMARK UNBOUND:                 0.083
REMARK  Name = 
REMARK  4 active torsions:
REMARK  status: ('A' for Active; 'I' for Inactive)
REMARK    1  A    between atoms: C_2  and  C_5
REMARK    2  A    between atoms: N_9  and  C_10
REMARK    3  A    between atoms: C_10  and  C_11
REMARK    4  A    between atoms: C_15  and  C_16
REMARK                            x       y       z     vdW  Elec       q    Type
REMARK                         _______ _______ _______ _____ _____    ______ ____
ROOT
ATOM      1  C   UNL     1      48.276   7.593  12.989  0.00  0.00    +0.000 C 
ATOM      2  C   UNL     1      49.498   7.260  12.149  0.00  0.00    +0.000 C 
ATOM      3  C   UNL     1      49.019   8.670  12.191  0.00  0.00    +0.000 C 
ENDROOT
BRANCH   1   8
ATOM      4  C   UNL     1      48.278   4.292  16.877  0.00  0.00    +0.000 A 
ATOM      5  C   UNL     1      48.949   5.442  17.197  0.00  0.00    +0.000 A 
ATOM      6  N   UNL     1      49.009   6.518  16.388  0.00  0.00    +0.000 NA
ATOM      7  C   UNL     1      48.370   6.446  15.207  0.00  0.00    +0.000 A 
ATOM      8  N   UNL     1      48.400   7.617  14.449  0.00  0.00    +0.000 N 
ATOM      9  N   UNL     1      47.731   5.345  14.784  0.00  0.00    +0.000 NA
ATOM     10  C   UNL     1      47.691   4.298  15.635  0.00  0.00    +0.000 A 
ATOM     11  H   UNL     1      49.094   8.219  14.875  0.00  0.00    +0.000 HD
BRANCH   4  13
ATOM     12  F   UNL     1      46.956   2.521  17.761  0.00  0.00    +0.000 F 
ATOM     13  C   UNL     1      48.170   3.138  17.805  0.00  0.00    +0.000 C 
ATOM     14  F   UNL     1      48.363   3.484  19.107  0.00  0.00    +0.000 F 
ATOM     15  F   UNL     1      49.087   2.168  17.538  0.00  0.00    +0.000 F 
ENDBRANCH   4  13
ENDBRANCH   1   8
BRANCH   1  16
ATOM     16  C   UNL     1      46.869   7.337  12.459  0.00  0.00    +0.000 A 
ATOM     17  C   UNL     1      45.881   8.334  12.528  0.00  0.00    +0.000 A 
ATOM     18  C   UNL     1      44.684   8.216  11.825  0.00  0.00    +0.000 A 
ATOM     19  C   UNL     1      44.456   7.094  11.030  0.00  0.00    +0.000 A 
ATOM     20  C   UNL     1      45.387   6.045  10.974  0.00  0.00    +0.000 A 
ATOM     21  C   UNL     1      46.561   6.169  11.739  0.00  0.00    +0.000 A 
BRANCH  20  22
ATOM     22  C   UNL     1      45.212   4.918  10.042  0.00  0.00    +0.000 A 
ATOM     23  C   UNL     1      44.572   3.731  10.397  0.00  0.00    +0.000 A 
ATOM     24  C   UNL     1      44.582   2.660   9.505  0.00  0.00    +0.000 A 
ATOM     25  C   UNL     1      45.227   2.798   8.283  0.00  0.00    +0.000 A 
ATOM     26  C   UNL     1      45.820   4.012   7.994  0.00  0.00    +0.000 A 
ATOM     27  N   UNL     1      45.820   5.067   8.836  0.00  0.00    +0.000 NA
ENDBRANCH  20  22
ENDBRANCH   1  16
TORSDOF 4
ENDMDL
MODEL 4
REMARK VINA RESULT:    -7.299      3.780      5.286
REMARK INTER + INTRA:          -8.922
REMARK INTER:                  -8.428
REMARK INTRA:                  -0.494
REMARK UNBOUND:                 0.083
REMARK  Name = 
REMARK  4 active torsions:
REMARK  status: ('A' for Active; 'I' for Inactive)
REMARK    1  A    between atoms: C_2  and  C_5
REMARK    2  A    between atoms: N_9  and  C_10
REMARK    3  A    between atoms: C_10  and  C_11
REMARK    4  A    between atoms: C_15  and  C_16
REMARK                            x       y       z     vdW  Elec       q    Type
REMARK                         _______ _______ _______ _____ _____    ______ ____
ROOT
ATOM      1  C   UNL     1      48.429   8.477  12.463  0.00  0.00    +0.000 C 
ATOM      2  C   UNL     1      48.035   9.832  11.898  0.00  0.00    +0.000 C 
ATOM      3  C   UNL     1      49.450   9.386  11.770  0.00  0.00    +0.000 C 
ENDROOT
BRANCH   1   8
ATOM      4  C   UNL     1      44.247   5.597  11.984  0.00  0.00    +0.000 A 
ATOM      5  C   UNL     1      45.077   5.460  10.902  0.00  0.00    +0.000 A 
ATOM      6  N   UNL     1      46.296   6.028  10.822  0.00  0.00    +0.000 NA
ATOM      7  C   UNL     1      46.708   6.767  11.867  0.00  0.00    +0.000 A 
ATOM      8  N   UNL     1      48.008   7.262  11.761  0.00  0.00    +0.000 N 
ATOM      9  N   UNL     1      45.947   7.000  12.947  0.00  0.00    +0.000 NA
ATOM     10  C   UNL     1      44.739   6.401  12.983  0.00  0.00    +0.000 A 
ATOM     11  H   UNL     1      48.291   7.126  10.799  0.00  0.00    +0.000 HD
BRANCH   4  13
ATOM     12  F   UNL     1      42.603   4.558  13.355  0.00  0.00    +0.000 F 
ATOM     13  C   UNL     1      42.933   4.914  12.082  0.00  0.00    +0.000 C 
ATOM     14  F   UNL     1      42.873   3.768  11.350  0.00  0.00    +0.000 F 
ATOM     15  F   UNL     1      41.908   5.692  11.639  0.00  0.00    +0.000 F 
ENDBRANCH   4  13
ENDBRANCH   1   8
BRANCH   1  16
ATOM     16  C   UNL     1      48.713   8.304  13.952  0.00  0.00    +0.000 A 
ATOM     17  C   UNL     1      48.564   9.382  14.842  0.00  0.00    +0.000 A 
ATOM     18  C   UNL     1      48.565   9.186  16.222  0.00  0.00    +0.000 A 
ATOM     19  C   UNL     1      48.708   7.899  16.738  0.00  0.00    +0.000 A 
ATOM     20  C   UNL     1      48.918   6.799  15.892  0.00  0.00    +0.000 A 
ATOM     21  C   UNL     1      48.968   7.038  14.505  0.00  0.00    +0.000 A 
BRANCH  20  22
ATOM     22  C   UNL     1      48.944   5.424  16.419  0.00  0.00    +0.000 A 
ATOM     23  C   UNL     1      47.822   4.595  16.435  0.00  0.00    +0.000 A 
ATOM     24  C   UNL     1      47.895   3.366  17.087  0.00  0.00    +0.000 A 
ATOM     25  C   UNL     1      49.082   2.991  17.703  0.00  0.00    +0.000 A 
ATOM     26  C   UNL     1      50.157   3.856  17.626  0.00  0.00    +0.000 A 
ATOM     27  N   UNL     1      50.116   5.049  16.995  0.00  0.00    +0.000 NA
ENDBRANCH  20  22
ENDBRANCH   1  16
TORSDOF 4
ENDMDL
MODEL 5
REMARK VINA RESULT:    -7.240      4.092      6.934
REMARK INTER + INTRA:          -8.850
REMARK INTER:                  -8.314
REMARK INTRA:                  -0.536
REMARK UNBOUND:                 0.083
REMARK  Name = 
REMARK  4 active torsions:
REMARK  status: ('A' for Active; 'I' for Inactive)
REMARK    1  A    between atoms: C_2  and  C_5
REMARK    2  A    between atoms: N_9  and  C_10
REMARK    3  A    between atoms: C_10  and  C_11
REMARK    4  A    between atoms: C_15  and  C_16
REMARK                            x       y       z     vdW  Elec       q    Type
REMARK                         _______ _______ _______ _____ _____    ______ ____
ROOT
ATOM      1  C   UNL     1      47.441   8.037  13.375  0.00  0.00    +0.000 C 
ATOM      2  C   UNL     1      48.849   7.469  13.304  0.00  0.00    +0.000 C 
ATOM      3  C   UNL     1      48.454   8.260  14.503  0.00  0.00    +0.000 C 
ENDROOT
BRANCH   1   8
ATOM      4  C   UNL     1      45.046   4.170  11.067  0.00  0.00    +0.000 A 
ATOM      5  C   UNL     1      44.885   4.119  12.427  0.00  0.00    +0.000 A 
ATOM      6  N   UNL     1      45.327   5.077  13.264  0.00  0.00    +0.000 NA
ATOM      7  C   UNL     1      45.957   6.135  12.724  0.00  0.00    +0.000 A 
ATOM      8  N   UNL     1      46.319   7.131  13.632  0.00  0.00    +0.000 N 
ATOM      9  N   UNL     1      46.207   6.249  11.412  0.00  0.00    +0.000 NA
ATOM     10  C   UNL     1      45.735   5.269  10.614  0.00  0.00    +0.000 A 
ATOM     11  H   UNL     1      46.210   6.733  14.557  0.00  0.00    +0.000 HD
BRANCH   4  13
ATOM     12  F   UNL     1      45.439   2.251   9.716  0.00  0.00    +0.000 F 
ATOM     13  C   UNL     1      44.500   3.137  10.152  0.00  0.00    +0.000 C 
ATOM     14  F   UNL     1      43.939   3.663   9.030  0.00  0.00    +0.000 F 
ATOM     15  F   UNL     1      43.527   2.385  10.737  0.00  0.00    +0.000 F 
ENDBRANCH   4  13
ENDBRANCH   1   8
BRANCH   1  16
ATOM     16  C   UNL     1      47.082   9.328  12.645  0.00  0.00    +0.000 A 
ATOM     17  C   UNL     1      48.084  10.142  12.090  0.00  0.00    +0.000 A 
ATOM     18  C   UNL     1      47.771  11.174  11.207  0.00  0.00    +0.000 A 
ATOM     19  C   UNL     1      46.441  11.405  10.857  0.00  0.00    +0.000 A 
ATOM     20  C   UNL     1      45.401  10.657  11.429  0.00  0.00    +0.000 A 
ATOM     21  C   UNL     1      45.746   9.659  12.360  0.00  0.00    +0.000 A 
BRANCH  20  22
ATOM     22  C   UNL     1      44.009  10.809  10.972  0.00  0.00    +0.000 A 
ATOM     23  C   UNL     1      43.640  10.748   9.628  0.00  0.00    +0.000 A 
ATOM     24  C   UNL     1      42.328  11.051   9.269  0.00  0.00    +0.000 A 
ATOM     25  C   UNL     1      41.417  11.405  10.255  0.00  0.00    +0.000 A 
ATOM     26  C   UNL     1      41.852  11.423  11.567  0.00  0.00    +0.000 A 
ATOM     27  N   UNL     1      43.114  11.127  11.943  0.00  0.00    +0.000 NA
ENDBRANCH  20  22
ENDBRANCH   1  16
TORSDOF 4
ENDMDL
MODEL 6
REMARK VINA RESULT:    -6.845      5.049      7.363
REMARK INTER + INTRA:          -8.362
REMARK INTER:                  -7.688
REMARK INTRA:                  -0.674
REMARK UNBOUND:                 0.083
REMARK  Name = 
REMARK  4 active torsions:
REMARK  status: ('A' for Active; 'I' for Inactive)
REMARK    1  A    between atoms: C_2  and  C_5
REMARK    2  A    between atoms: N_9  and  C_10
REMARK    3  A    between atoms: C_10  and  C_11
REMARK    4  A    between atoms: C_15  and  C_16
REMARK                            x       y       z     vdW  Elec       q    Type
REMARK                         _______ _______ _______ _____ _____    ______ ____
ROOT
ATOM      1  C   UNL     1      45.655   4.777  12.735  0.00  0.00    +0.000 C 
ATOM      2  C   UNL     1      44.228   4.401  13.099  0.00  0.00    +0.000 C 
ATOM      3  C   UNL     1      44.682   4.215  11.693  0.00  0.00    +0.000 C 
ENDROOT
BRANCH   1   8
ATOM      4  C   UNL     1      48.230   3.775  17.022  0.00  0.00    +0.000 A 
ATOM      5  C   UNL     1      48.283   2.721  16.148  0.00  0.00    +0.000 A 
ATOM      6  N   UNL     1      47.775   2.763  14.901  0.00  0.00    +0.000 NA
ATOM      7  C   UNL     1      47.188   3.906  14.505  0.00  0.00    +0.000 A 
ATOM      8  N   UNL     1      46.754   3.916  13.179  0.00  0.00    +0.000 N 
ATOM      9  N   UNL     1      47.043   4.972  15.306  0.00  0.00    +0.000 NA
ATOM     10  C   UNL     1      47.577   4.884  16.542  0.00  0.00    +0.000 A 
ATOM     11  H   UNL     1      46.790   2.958  12.856  0.00  0.00    +0.000 HD
BRANCH   4  13
ATOM     12  F   UNL     1      48.290   2.800  19.193  0.00  0.00    +0.000 F 
ATOM     13  C   UNL     1      48.848   3.734  18.371  0.00  0.00    +0.000 C 
ATOM     14  F   UNL     1      48.750   4.917  19.036  0.00  0.00    +0.000 F 
ATOM     15  F   UNL     1      50.176   3.440  18.327  0.00  0.00    +0.000 F 
ENDBRANCH   4  13
ENDBRANCH   1   8
BRANCH   1  16
ATOM     16  C   UNL     1      46.034   6.229  12.460  0.00  0.00    +0.000 A 
ATOM     17  C   UNL     1      45.106   7.265  12.661  0.00  0.00    +0.000 A 
ATOM     18  C   UNL     1      45.502   8.601  12.667  0.00  0.00    +0.000 A 
ATOM     19  C   UNL     1      46.845   8.925  12.478  0.00  0.00    +0.000 A 
ATOM     20  C   UNL     1      47.800   7.930  12.216  0.00  0.00    +0.000 A 
ATOM     21  C   UNL     1      47.357   6.595  12.161  0.00  0.00    +0.000 A 
BRANCH  20  22
ATOM     22  C   UNL     1      49.236   8.250  12.141  0.00  0.00    +0.000 A 
ATOM     23  C   UNL     1      50.077   7.739  11.153  0.00  0.00    +0.000 A 
ATOM     24  C   UNL     1      51.448   7.970  11.241  0.00  0.00    +0.000 A 
ATOM     25  C   UNL     1      51.947   8.706  12.309  0.00  0.00    +0.000 A 
ATOM     26  C   UNL     1      51.048   9.197  13.237  0.00  0.00    +0.000 A 
ATOM     27  N   UNL     1      49.715   8.994  13.171  0.00  0.00    +0.000 NA
ENDBRANCH  20  22
ENDBRANCH   1  16
TORSDOF 4
ENDMDL
MODEL 7
REMARK VINA RESULT:    -6.817      3.976      6.673
REMARK INTER + INTRA:          -8.327
REMARK INTER:                  -7.728
REMARK INTRA:                  -0.599
REMARK UNBOUND:                 0.083
REMARK  Name = 
REMARK  4 active torsions:
REMARK  status: ('A' for Active; 'I' for Inactive)
REMARK    1  A    between atoms: C_2  and  C_5
REMARK    2  A    between atoms: N_9  and  C_10
REMARK    3  A    between atoms: C_10  and  C_11
REMARK    4  A    between atoms: C_15  and  C_16
REMARK                            x       y       z     vdW  Elec       q    Type
REMARK                         _______ _______ _______ _____ _____    ______ ____
ROOT
ATOM      1  C   UNL     1      48.266   3.692  17.030  0.00  0.00    +0.000 C 
ATOM      2  C   UNL     1      48.994   2.392  16.729  0.00  0.00    +0.000 C 
ATOM      3  C   UNL     1      48.275   2.528  18.026  0.00  0.00    +0.000 C 
ENDROOT
BRANCH   1   8
ATOM      4  C   UNL     1      46.734   5.848  12.668  0.00  0.00    +0.000 A 
ATOM      5  C   UNL     1      45.804   4.961  13.142  0.00  0.00    +0.000 A 
ATOM      6  N   UNL     1      45.912   4.334  14.330  0.00  0.00    +0.000 NA
ATOM      7  C   UNL     1      46.995   4.601  15.080  0.00  0.00    +0.000 A 
ATOM      8  N   UNL     1      47.012   3.984  16.331  0.00  0.00    +0.000 N 
ATOM      9  N   UNL     1      47.983   5.414  14.678  0.00  0.00    +0.000 NA
ATOM     10  C   UNL     1      47.823   6.026  13.486  0.00  0.00    +0.000 A 
ATOM     11  H   UNL     1      46.281   3.283  16.317  0.00  0.00    +0.000 HD
BRANCH   4  13
ATOM     12  F   UNL     1      47.742   7.063  10.887  0.00  0.00    +0.000 F 
ATOM     13  C   UNL     1      46.571   6.577  11.386  0.00  0.00    +0.000 C 
ATOM     14  F   UNL     1      45.739   7.650  11.488  0.00  0.00    +0.000 F 
ATOM     15  F   UNL     1      46.048   5.794  10.404  0.00  0.00    +0.000 F 
ENDBRANCH   4  13
ENDBRANCH   1   8
BRANCH   1  16
ATOM     16  C   UNL     1      49.024   4.912  17.546  0.00  0.00    +0.000 A 
ATOM     17  C   UNL     1      50.394   5.071  17.281  0.00  0.00    +0.000 A 
ATOM     18  C   UNL     1      51.040   6.284  17.514  0.00  0.00    +0.000 A 
ATOM     19  C   UNL     1      50.319   7.367  18.012  0.00  0.00    +0.000 A 
ATOM     20  C   UNL     1      48.961   7.241  18.347  0.00  0.00    +0.000 A 
ATOM     21  C   UNL     1      48.352   5.987  18.152  0.00  0.00    +0.000 A 
BRANCH  20  22
ATOM     22  C   UNL     1      48.162   8.410  18.753  0.00  0.00    +0.000 A 
ATOM     23  C   UNL     1      48.030   9.551  17.962  0.00  0.00    +0.000 A 
ATOM     24  C   UNL     1      47.382  10.668  18.485  0.00  0.00    +0.000 A 
ATOM     25  C   UNL     1      46.881  10.621  19.780  0.00  0.00    +0.000 A 
ATOM     26  C   UNL     1      47.033   9.448  20.494  0.00  0.00    +0.000 A 
ATOM     27  N   UNL     1      47.650   8.349  20.010  0.00  0.00    +0.000 NA
ENDBRANCH  20  22
ENDBRANCH   1  16
TORSDOF 4
ENDMDL
MODEL 8
REMARK VINA RESULT:    -6.641      4.925      7.609
REMARK INTER + INTRA:          -8.110
REMARK INTER:                  -7.403
REMARK INTRA:                  -0.707
REMARK UNBOUND:                 0.083
REMARK  Name = 
REMARK  4 active torsions:
REMARK  status: ('A' for Active; 'I' for Inactive)
REMARK    1  A    between atoms: C_2  and  C_5
REMARK    2  A    between atoms: N_9  and  C_10
REMARK    3  A    between atoms: C_10  and  C_11
REMARK    4  A    between atoms: C_15  and  C_16
REMARK                            x       y       z     vdW  Elec       q    Type
REMARK                         _______ _______ _______ _____ _____    ______ ____
ROOT
ATOM      1  C   UNL     1      48.540   7.363  13.617  0.00  0.00    +0.000 C 
ATOM      2  C   UNL     1      48.771   8.159  14.891  0.00  0.00    +0.000 C 
ATOM      3  C   UNL     1      48.650   6.678  14.983  0.00  0.00    +0.000 C 
ENDROOT
BRANCH   1   8
ATOM      4  C   UNL     1      51.363  10.222  10.475  0.00  0.00    +0.000 A 
ATOM      5  C   UNL     1      52.030   9.087  10.855  0.00  0.00    +0.000 A 
ATOM      6  N   UNL     1      51.473   8.110  11.597  0.00  0.00    +0.000 NA
ATOM      7  C   UNL     1      50.194   8.270  11.978  0.00  0.00    +0.000 A 
ATOM      8  N   UNL     1      49.649   7.191  12.675  0.00  0.00    +0.000 N 
ATOM      9  N   UNL     1      49.476   9.368  11.699  0.00  0.00    +0.000 NA
ATOM     10  C   UNL     1      50.076  10.313  10.945  0.00  0.00    +0.000 A 
ATOM     11  H   UNL     1      50.423   6.590  12.929  0.00  0.00    +0.000 HD
BRANCH   4  13
ATOM     12  F   UNL     1      52.595  12.252  10.304  0.00  0.00    +0.000 F 
ATOM     13  C   UNL     1      51.972  11.261   9.606  0.00  0.00    +0.000 C 
ATOM     14  F   UNL     1      51.063  11.885   8.809  0.00  0.00    +0.000 F 
ATOM     15  F   UNL     1      52.914  10.751   8.768  0.00  0.00    +0.000 F 
ENDBRANCH   4  13
ENDBRANCH   1   8
BRANCH   1  16
ATOM     16  C   UNL     1      47.145   7.244  13.011  0.00  0.00    +0.000 A 
ATOM     17  C   UNL     1      46.257   8.333  13.032  0.00  0.00    +0.000 A 
ATOM     18  C   UNL     1      45.093   8.332  12.266  0.00  0.00    +0.000 A 
ATOM     19  C   UNL     1      44.799   7.237  11.456  0.00  0.00    +0.000 A 
ATOM     20  C   UNL     1      45.624   6.101  11.446  0.00  0.00    +0.000 A 
ATOM     21  C   UNL     1      46.763   6.112  12.273  0.00  0.00    +0.000 A 
BRANCH  20  22
ATOM     22  C   UNL     1      45.390   4.995  10.501  0.00  0.00    +0.000 A 
ATOM     23  C   UNL     1      45.713   5.073   9.147  0.00  0.00    +0.000 A 
ATOM     24  C   UNL     1      45.322   4.041   8.295  0.00  0.00    +0.000 A 
ATOM     25  C   UNL     1      44.622   2.959   8.813  0.00  0.00    +0.000 A 
ATOM     26  C   UNL     1      44.358   2.944  10.170  0.00  0.00    +0.000 A 
ATOM     27  N   UNL     1      44.731   3.926  11.018  0.00  0.00    +0.000 NA
ENDBRANCH  20  22
ENDBRANCH   1  16
TORSDOF 4
ENDMDL
MODEL 9
REMARK VINA RESULT:    -6.584      3.873      5.620
REMARK INTER + INTRA:          -8.040
REMARK INTER:                  -7.836
REMARK INTRA:                  -0.204
REMARK UNBOUND:                 0.083
REMARK  Name = 
REMARK  4 active torsions:
REMARK  status: ('A' for Active; 'I' for Inactive)
REMARK    1  A    between atoms: C_2  and  C_5
REMARK    2  A    between atoms: N_9  and  C_10
REMARK    3  A    between atoms: C_10  and  C_11
REMARK    4  A    between atoms: C_15  and  C_16
REMARK                            x       y       z     vdW  Elec       q    Type
REMARK                         _______ _______ _______ _____ _____    ______ ____
ROOT
ATOM      1  C   UNL     1      48.359   7.092  14.434  0.00  0.00    +0.000 C 
ATOM      2  C   UNL     1      48.398   7.915  13.156  0.00  0.00    +0.000 C 
ATOM      3  C   UNL     1      49.644   7.238  13.612  0.00  0.00    +0.000 C 
ENDROOT
BRANCH   1   8
ATOM      4  C   UNL     1      44.429   4.844  12.085  0.00  0.00    +0.000 A 
ATOM      5  C   UNL     1      45.343   3.923  12.523  0.00  0.00    +0.000 A 
ATOM      6  N   UNL     1      46.422   4.241  13.266  0.00  0.00    +0.000 NA
ATOM      7  C   UNL     1      46.598   5.535  13.587  0.00  0.00    +0.000 A 
ATOM      8  N   UNL     1      47.685   5.791  14.423  0.00  0.00    +0.000 N 
ATOM      9  N   UNL     1      45.786   6.514  13.162  0.00  0.00    +0.000 NA
ATOM     10  C   UNL     1      44.714   6.143  12.430  0.00  0.00    +0.000 A 
ATOM     11  H   UNL     1      48.244   4.946  14.437  0.00  0.00    +0.000 HD
BRANCH   4  13
ATOM     12  F   UNL     1      42.883   3.154  11.440  0.00  0.00    +0.000 F 
ATOM     13  C   UNL     1      43.213   4.470  11.320  0.00  0.00    +0.000 C 
ATOM     14  F   UNL     1      43.335   4.700   9.984  0.00  0.00    +0.000 F 
ATOM     15  F   UNL     1      42.113   5.165  11.718  0.00  0.00    +0.000 F 
ENDBRANCH   4  13
ENDBRANCH   1   8
BRANCH   1  16
ATOM     16  C   UNL     1      48.456   7.764  15.800  0.00  0.00    +0.000 A 
ATOM     17  C   UNL     1      48.267   9.150  15.933  0.00  0.00    +0.000 A 
ATOM     18  C   UNL     1      48.095   9.740  17.185  0.00  0.00    +0.000 A 
ATOM     19  C   UNL     1      48.101   8.945  18.330  0.00  0.00    +0.000 A 
ATOM     20  C   UNL     1      48.344   7.565  18.253  0.00  0.00    +0.000 A 
ATOM     21  C   UNL     1      48.570   7.009  16.980  0.00  0.00    +0.000 A 
BRANCH  20  22
ATOM     22  C   UNL     1      48.228   6.701  19.440  0.00  0.00    +0.000 A 
ATOM     23  C   UNL     1      47.546   7.086  20.595  0.00  0.00    +0.000 A 
ATOM     24  C   UNL     1      47.611   6.273  21.725  0.00  0.00    +0.000 A 
ATOM     25  C   UNL     1      48.351   5.098  21.677  0.00  0.00    +0.000 A 
ATOM     26  C   UNL     1      48.981   4.775  20.490  0.00  0.00    +0.000 A 
ATOM     27  N   UNL     1      48.929   5.540  19.380  0.00  0.00    +0.000 NA
ENDBRANCH  20  22
ENDBRANCH   1  16
TORSDOF 4
ENDMDL
