MODEL 1
REMARK VINA RESULT:    -8.658      0.000      0.000
REMARK INTER + INTRA:         -12.459
REMARK INTER:                 -11.695
REMARK INTRA:                  -0.764
REMARK UNBOUND:                -0.764
REMARK  Name = 
REMARK  6 active torsions:
REMARK  status: ('A' for Active; 'I' for Inactive)
REMARK    1  A    between atoms: C_2  and  C_25
REMARK    2  A    between atoms: N_3  and  C_4
REMARK    3  A    between atoms: C_4  and  C_5
REMARK    4  A    between atoms: C_8  and  C_9
REMARK    5  A    between atoms: C_9  and  N_10
REMARK    6  A    between atoms: C_11  and  C_13
REMARK                            x       y       z     vdW  Elec       q    Type
REMARK                         _______ _______ _______ _____ _____    ______ ____
ROOT
ATOM      1  C   UNL     1      45.136   4.181  11.764  0.00  0.00    +0.000 A 
ATOM      2  C   UNL     1      45.242   5.577  11.796  0.00  0.00    +0.000 A 
ATOM      3  C   UNL     1      46.084   6.209  12.719  0.00  0.00    +0.000 A 
ATOM      4  C   UNL     1      46.852   5.457  13.617  0.00  0.00    +0.000 A 
ATOM      5  C   UNL     1      46.737   4.060  13.593  0.00  0.00    +0.000 A 
ATOM      6  C   UNL     1      45.895   3.429  12.670  0.00  0.00    +0.000 A 
ENDROOT
BRANCH   1   7
ATOM      7  C   UNL     1      44.223   3.502  10.779  0.00  0.00    +0.000 C 
BRANCH   7  10
ATOM      8  O   UNL     1      45.118   4.689   8.417  0.00  0.00    +0.000 OA
ATOM      9  C   UNL     1      45.351   3.500   8.604  0.00  0.00    +0.000 C 
ATOM     10  N   UNL     1      44.940   2.819   9.731  0.00  0.00    +0.000 N 
ATOM     11  H   UNL     1      45.201   1.842   9.820  0.00  0.00    +0.000 HD
BRANCH   9  12
ATOM     12  C   UNL     1      46.127   2.698   7.604  0.00  0.00    +0.000 A 
ATOM     13  C   UNL     1      46.448   3.272   6.376  0.00  0.00    +0.000 A 
ATOM     14  C   UNL     1      47.171   2.516   5.461  0.00  0.00    +0.000 A 
ATOM     15  C   UNL     1      47.543   1.219   5.797  0.00  0.00    +0.000 A 
ATOM     16  C   UNL     1      47.179   0.727   7.043  0.00  0.00    +0.000 A 
ATOM     17  N   UNL     1      46.481   1.433   7.964  0.00  0.00    +0.000 NA
ENDBRANCH   9  12
ENDBRANCH   7  10
ENDBRANCH   1   7
BRANCH   4  18
ATOM     18  C   UNL     1      47.789   6.130  14.589  0.00  0.00    +0.000 C 
BRANCH  18  19
ATOM     19  N   UNL     1      47.750   5.532  15.899  0.00  0.00    +0.000 N 
ATOM     20  C   UNL     1      48.881   5.445  16.674  0.00  0.00    +0.000 C 
ATOM     21  O   UNL     1      49.976   5.827  16.268  0.00  0.00    +0.000 OA
ATOM     22  H   UNL     1      46.852   5.210  16.251  0.00  0.00    +0.000 HD
BRANCH  20  23
ATOM     23  C   UNL     1      48.718   4.873  18.015  0.00  0.00    +0.000 A 
ATOM     24  C   UNL     1      48.604   3.504  18.251  0.00  0.00    +0.000 A 
ATOM     25  N   UNL     1      48.469   3.283  19.599  0.00  0.00    +0.000 N 
ATOM     26  C   UNL     1      48.484   4.481  20.245  0.00  0.00    +0.000 A 
ATOM     27  N   UNL     1      48.353   4.606  21.588  0.00  0.00    +0.000 NA
ATOM     28  C   UNL     1      48.382   5.840  21.985  0.00  0.00    +0.000 A 
ATOM     29  N   UNL     1      48.538   6.935  21.160  0.00  0.00    +0.000 N 
ATOM     30  C   UNL     1      48.690   6.836  19.793  0.00  0.00    +0.000 A 
ATOM     31  O   UNL     1      48.845   7.821  19.079  0.00  0.00    +0.000 OA
ATOM     32  C   UNL     1      48.642   5.478  19.306  0.00  0.00    +0.000 A 
ATOM     33  H   UNL     1      48.369   2.386  20.053  0.00  0.00    +0.000 HD
ATOM     34  H   UNL     1      48.554   7.869  21.539  0.00  0.00    +0.000 HD
ENDBRANCH  20  23
ENDBRANCH  18  19
ENDBRANCH   4  18
TORSDOF 6
ENDMDL
MODEL 2
REMARK VINA RESULT:    -8.160      2.017      2.630
REMARK INTER + INTRA:         -11.786
REMARK INTER:                 -10.770
REMARK INTRA:                  -1.015
REMARK UNBOUND:                -0.764
REMARK  Name = 
REMARK  6 active torsions:
REMARK  status: ('A' for Active; 'I' for Inactive)
REMARK    1  A    between atoms: C_2  and  C_25
REMARK    2  A    between atoms: N_3  and  C_4
REMARK    3  A    between atoms: C_4  and  C_5
REMARK    4  A    between atoms: C_8  and  C_9
REMARK    5  A    between atoms: C_9  and  N_10
REMARK    6  A    between atoms: C_11  and  C_13
REMARK                            x       y       z     vdW  Elec       q    Type
REMARK                         _______ _______ _______ _____ _____    ______ ____
ROOT
ATOM      1  C   UNL     1      45.017   6.076  11.200  0.00  0.00    +0.000 A 
ATOM      2  C   UNL     1      44.643   7.399  11.467  0.00  0.00    +0.000 A 
ATOM      3  C   UNL     1      45.395   8.191  12.344  0.00  0.00    +0.000 A 
ATOM      4  C   UNL     1      46.549   7.683  12.955  0.00  0.00    +0.000 A 
ATOM      5  C   UNL     1      46.916   6.355  12.696  0.00  0.00    +0.000 A 
ATOM      6  C   UNL     1      46.164   5.564  11.820  0.00  0.00    +0.000 A 
ENDROOT
BRANCH   1   7
ATOM      7  C   UNL     1      44.202   5.221  10.268  0.00  0.00    +0.000 C 
BRANCH   7  10
ATOM      8  O   UNL     1      44.270   2.455   9.900  0.00  0.00    +0.000 OA
ATOM      9  C   UNL     1      44.963   3.163   9.176  0.00  0.00    +0.000 C 
ATOM     10  N   UNL     1      45.010   4.537   9.288  0.00  0.00    +0.000 N 
ATOM     11  H   UNL     1      45.588   5.049   8.629  0.00  0.00    +0.000 HD
BRANCH   9  12
ATOM     12  C   UNL     1      45.811   2.566   8.094  0.00  0.00    +0.000 A 
ATOM     13  C   UNL     1      46.089   3.320   6.957  0.00  0.00    +0.000 A 
ATOM     14  C   UNL     1      46.881   2.753   5.965  0.00  0.00    +0.000 A 
ATOM     15  C   UNL     1      47.361   1.459   6.138  0.00  0.00    +0.000 A 
ATOM     16  C   UNL     1      47.031   0.780   7.303  0.00  0.00    +0.000 A 
ATOM     17  N   UNL     1      46.270   1.300   8.295  0.00  0.00    +0.000 NA
ENDBRANCH   9  12
ENDBRANCH   7  10
ENDBRANCH   1   7
BRANCH   4  18
ATOM     18  C   UNL     1      47.384   8.543  13.870  0.00  0.00    +0.000 C 
BRANCH  18  19
ATOM     19  N   UNL     1      47.814   7.838  15.051  0.00  0.00    +0.000 N 
ATOM     20  C   UNL     1      49.117   7.427  15.196  0.00  0.00    +0.000 C 
ATOM     21  O   UNL     1      49.954   7.597  14.312  0.00  0.00    +0.000 OA
ATOM     22  H   UNL     1      47.135   7.688  15.792  0.00  0.00    +0.000 HD
BRANCH  20  23
ATOM     23  C   UNL     1      49.463   6.771  16.463  0.00  0.00    +0.000 A 
ATOM     24  C   UNL     1      50.434   7.262  17.334  0.00  0.00    +0.000 A 
ATOM     25  N   UNL     1      50.524   6.437  18.428  0.00  0.00    +0.000 N 
ATOM     26  C   UNL     1      49.638   5.414  18.282  0.00  0.00    +0.000 A 
ATOM     27  N   UNL     1      49.494   4.417  19.187  0.00  0.00    +0.000 NA
ATOM     28  C   UNL     1      48.602   3.543  18.837  0.00  0.00    +0.000 A 
ATOM     29  N   UNL     1      47.852   3.595  17.681  0.00  0.00    +0.000 N 
ATOM     30  C   UNL     1      47.966   4.607  16.750  0.00  0.00    +0.000 A 
ATOM     31  O   UNL     1      47.277   4.644  15.736  0.00  0.00    +0.000 OA
ATOM     32  C   UNL     1      48.964   5.591  17.091  0.00  0.00    +0.000 A 
ATOM     33  H   UNL     1      51.144   6.552  19.217  0.00  0.00    +0.000 HD
ATOM     34  H   UNL     1      47.172   2.880  17.474  0.00  0.00    +0.000 HD
ENDBRANCH  20  23
ENDBRANCH  18  19
ENDBRANCH   4  18
TORSDOF 6
ENDMDL
MODEL 3
REMARK VINA RESULT:    -7.872      4.766      7.054
REMARK INTER + INTRA:         -11.396
REMARK INTER:                 -10.435
REMARK INTRA:                  -0.961
REMARK UNBOUND:                -0.764
REMARK  Name = 
REMARK  6 active torsions:
REMARK  status: ('A' for Active; 'I' for Inactive)
REMARK    1  A    between atoms: C_2  and  C_25
REMARK    2  A    between atoms: N_3  and  C_4
REMARK    3  A    between atoms: C_4  and  C_5
REMARK    4  A    between atoms: C_8  and  C_9
REMARK    5  A    between atoms: C_9  and  N_10
REMARK    6  A    between atoms: C_11  and  C_13
REMARK                            x       y       z     vdW  Elec       q    Type
REMARK                         _______ _______ _______ _____ _____    ______ ____
ROOT
ATOM      1  C   UNL     1      45.031   9.092  11.854  0.00  0.00    +0.000 A 
ATOM      2  C   UNL     1      46.075   8.969  12.780  0.00  0.00    +0.000 A 
ATOM      3  C   UNL     1      46.510   7.708  13.203  0.00  0.00    +0.000 A 
ATOM      4  C   UNL     1      45.925   6.542  12.692  0.00  0.00    +0.000 A 
ATOM      5  C   UNL     1      44.873   6.665  11.774  0.00  0.00    +0.000 A 
ATOM      6  C   UNL     1      44.438   7.927  11.353  0.00  0.00    +0.000 A 
ENDROOT
BRANCH   1   7
ATOM      7  C   UNL     1      44.555  10.448  11.409  0.00  0.00    +0.000 C 
BRANCH   7  10
ATOM      8  O   UNL     1      42.122  10.370  10.042  0.00  0.00    +0.000 OA
ATOM      9  C   UNL     1      42.127  10.720  11.218  0.00  0.00    +0.000 C 
ATOM     10  N   UNL     1      43.277  10.805  11.974  0.00  0.00    +0.000 N 
ATOM     11  H   UNL     1      43.188  11.075  12.948  0.00  0.00    +0.000 HD
BRANCH   9  12
ATOM     12  C   UNL     1      40.853  11.073  11.923  0.00  0.00    +0.000 A 
ATOM     13  C   UNL     1      39.656  10.513  11.483  0.00  0.00    +0.000 A 
ATOM     14  C   UNL     1      38.484  10.848  12.152  0.00  0.00    +0.000 A 
ATOM     15  C   UNL     1      38.545  11.727  13.227  0.00  0.00    +0.000 A 
ATOM     16  C   UNL     1      39.781  12.239  13.596  0.00  0.00    +0.000 A 
ATOM     17  N   UNL     1      40.945  11.932  12.975  0.00  0.00    +0.000 NA
ENDBRANCH   9  12
ENDBRANCH   7  10
ENDBRANCH   1   7
BRANCH   4  18
ATOM     18  C   UNL     1      46.415   5.179  13.115  0.00  0.00    +0.000 C 
BRANCH  18  19
ATOM     19  N   UNL     1      46.802   5.137  14.503  0.00  0.00    +0.000 N 
ATOM     20  C   UNL     1      47.303   3.989  15.066  0.00  0.00    +0.000 C 
ATOM     21  O   UNL     1      47.397   2.942  14.429  0.00  0.00    +0.000 OA
ATOM     22  H   UNL     1      46.730   5.994  15.045  0.00  0.00    +0.000 HD
BRANCH  20  23
ATOM     23  C   UNL     1      47.722   4.072  16.470  0.00  0.00    +0.000 A 
ATOM     24  C   UNL     1      47.270   3.194  17.453  0.00  0.00    +0.000 A 
ATOM     25  N   UNL     1      47.842   3.523  18.657  0.00  0.00    +0.000 N 
ATOM     26  C   UNL     1      48.650   4.604  18.479  0.00  0.00    +0.000 A 
ATOM     27  N   UNL     1      49.347   5.187  19.483  0.00  0.00    +0.000 NA
ATOM     28  C   UNL     1      50.040   6.210  19.089  0.00  0.00    +0.000 A 
ATOM     29  N   UNL     1      50.095   6.678  17.792  0.00  0.00    +0.000 N 
ATOM     30  C   UNL     1      49.408   6.094  16.748  0.00  0.00    +0.000 A 
ATOM     31  O   UNL     1      49.483   6.515  15.599  0.00  0.00    +0.000 OA
ATOM     32  C   UNL     1      48.606   4.963  17.148  0.00  0.00    +0.000 A 
ATOM     33  H   UNL     1      47.693   3.055  19.540  0.00  0.00    +0.000 HD
ATOM     34  H   UNL     1      50.658   7.480  17.556  0.00  0.00    +0.000 HD
ENDBRANCH  20  23
ENDBRANCH  18  19
ENDBRANCH   4  18
TORSDOF 6
ENDMDL
MODEL 4
REMARK VINA RESULT:    -7.778      2.844      4.408
REMARK INTER + INTRA:         -11.270
REMARK INTER:                 -10.311
REMARK INTRA:                  -0.959
REMARK UNBOUND:                -0.764
REMARK  Name = 
REMARK  6 active torsions:
REMARK  status: ('A' for Active; 'I' for Inactive)
REMARK    1  A    between atoms: C_2  and  C_25
REMARK    2  A    between atoms: N_3  and  C_4
REMARK    3  A    between atoms: C_4  and  C_5
REMARK    4  A    between atoms: C_8  and  C_9
REMARK    5  A    between atoms: C_9  and  N_10
REMARK    6  A    between atoms: C_11  and  C_13
REMARK                            x       y       z     vdW  Elec       q    Type
REMARK                         _______ _______ _______ _____ _____    ______ ____
ROOT
ATOM      1  C   UNL     1      44.634   4.393  11.009  0.00  0.00    +0.000 A 
ATOM      2  C   UNL     1      45.181   3.254  11.614  0.00  0.00    +0.000 A 
ATOM      3  C   UNL     1      45.872   3.351  12.828  0.00  0.00    +0.000 A 
ATOM      4  C   UNL     1      46.012   4.587  13.473  0.00  0.00    +0.000 A 
ATOM      5  C   UNL     1      45.475   5.728  12.862  0.00  0.00    +0.000 A 
ATOM      6  C   UNL     1      44.785   5.631  11.648  0.00  0.00    +0.000 A 
ENDROOT
BRANCH   1   7
ATOM      7  C   UNL     1      43.903   4.291   9.698  0.00  0.00    +0.000 C 
BRANCH   7  10
ATOM      8  O   UNL     1      46.185   4.993   8.252  0.00  0.00    +0.000 OA
ATOM      9  C   UNL     1      45.706   3.875   8.093  0.00  0.00    +0.000 C 
ATOM     10  N   UNL     1      44.575   3.438   8.749  0.00  0.00    +0.000 N 
ATOM     11  H   UNL     1      44.263   2.487   8.580  0.00  0.00    +0.000 HD
BRANCH   9  12
ATOM     12  C   UNL     1      46.344   2.888   7.163  0.00  0.00    +0.000 A 
ATOM     13  C   UNL     1      46.685   1.626   7.643  0.00  0.00    +0.000 A 
ATOM     14  C   UNL     1      47.272   0.720   6.766  0.00  0.00    +0.000 A 
ATOM     15  C   UNL     1      47.502   1.104   5.450  0.00  0.00    +0.000 A 
ATOM     16  C   UNL     1      47.132   2.383   5.058  0.00  0.00    +0.000 A 
ATOM     17  N   UNL     1      46.552   3.291   5.879  0.00  0.00    +0.000 NA
ENDBRANCH   9  12
ENDBRANCH   7  10
ENDBRANCH   1   7
BRANCH   4  18
ATOM     18  C   UNL     1      46.722   4.692  14.800  0.00  0.00    +0.000 C 
BRANCH  18  19
ATOM     19  N   UNL     1      47.595   5.836  14.871  0.00  0.00    +0.000 N 
ATOM     20  C   UNL     1      48.646   5.873  15.754  0.00  0.00    +0.000 C 
ATOM     21  O   UNL     1      48.857   4.961  16.550  0.00  0.00    +0.000 OA
ATOM     22  H   UNL     1      47.434   6.600  14.220  0.00  0.00    +0.000 HD
BRANCH  20  23
ATOM     23  C   UNL     1      49.509   7.059  15.702  0.00  0.00    +0.000 A 
ATOM     24  C   UNL     1      50.051   7.658  16.838  0.00  0.00    +0.000 A 
ATOM     25  N   UNL     1      50.812   8.737  16.465  0.00  0.00    +0.000 N 
ATOM     26  C   UNL     1      50.770   8.859  15.110  0.00  0.00    +0.000 A 
ATOM     27  N   UNL     1      51.408   9.840  14.430  0.00  0.00    +0.000 NA
ATOM     28  C   UNL     1      51.219   9.771  13.148  0.00  0.00    +0.000 A 
ATOM     29  N   UNL     1      50.465   8.809  12.509  0.00  0.00    +0.000 N 
ATOM     30  C   UNL     1      49.818   7.789  13.176  0.00  0.00    +0.000 A 
ATOM     31  O   UNL     1      49.167   6.933  12.587  0.00  0.00    +0.000 OA
ATOM     32  C   UNL     1      49.985   7.842  14.608  0.00  0.00    +0.000 A 
ATOM     33  H   UNL     1      51.322   9.354  17.083  0.00  0.00    +0.000 HD
ATOM     34  H   UNL     1      50.363   8.815  11.506  0.00  0.00    +0.000 HD
ENDBRANCH  20  23
ENDBRANCH  18  19
ENDBRANCH   4  18
TORSDOF 6
ENDMDL
MODEL 5
REMARK VINA RESULT:    -7.615      3.405      5.244
REMARK INTER + INTRA:         -11.049
REMARK INTER:                 -10.249
REMARK INTRA:                  -0.800
REMARK UNBOUND:                -0.764
REMARK  Name = 
REMARK  6 active torsions:
REMARK  status: ('A' for Active; 'I' for Inactive)
REMARK    1  A    between atoms: C_2  and  C_25
REMARK    2  A    between atoms: N_3  and  C_4
REMARK    3  A    between atoms: C_4  and  C_5
REMARK    4  A    between atoms: C_8  and  C_9
REMARK    5  A    between atoms: C_9  and  N_10
REMARK    6  A    between atoms: C_11  and  C_13
REMARK                            x       y       z     vdW  Elec       q    Type
REMARK                         _______ _______ _______ _____ _____    ______ ____
ROOT
ATOM      1  C   UNL     1      44.958   4.574  11.313  0.00  0.00    +0.000 A 
ATOM      2  C   UNL     1      45.323   5.901  11.575  0.00  0.00    +0.000 A 
ATOM      3  C   UNL     1      46.137   6.215  12.670  0.00  0.00    +0.000 A 
ATOM      4  C   UNL     1      46.619   5.206  13.514  0.00  0.00    +0.000 A 
ATOM      5  C   UNL     1      46.244   3.880  13.258  0.00  0.00    +0.000 A 
ATOM      6  C   UNL     1      45.430   3.567  12.163  0.00  0.00    +0.000 A 
ENDROOT
BRANCH   1   7
ATOM      7  C   UNL     1      44.073   4.238  10.142  0.00  0.00    +0.000 C 
BRANCH   7  10
ATOM      8  O   UNL     1      45.958   5.064   8.257  0.00  0.00    +0.000 OA
ATOM      9  C   UNL     1      45.648   3.878   8.300  0.00  0.00    +0.000 C 
ATOM     10  N   UNL     1      44.718   3.374   9.185  0.00  0.00    +0.000 N 
ATOM     11  H   UNL     1      44.542   2.374   9.172  0.00  0.00    +0.000 HD
BRANCH   9  12
ATOM     12  C   UNL     1      46.285   2.880   7.382  0.00  0.00    +0.000 A 
ATOM     13  C   UNL     1      46.557   3.246   6.066  0.00  0.00    +0.000 A 
ATOM     14  C   UNL     1      47.152   2.309   5.229  0.00  0.00    +0.000 A 
ATOM     15  C   UNL     1      47.450   1.045   5.728  0.00  0.00    +0.000 A 
ATOM     16  C   UNL     1      47.142   0.767   7.052  0.00  0.00    +0.000 A 
ATOM     17  N   UNL     1      46.569   1.654   7.901  0.00  0.00    +0.000 NA
ENDBRANCH   9  12
ENDBRANCH   7  10
ENDBRANCH   1   7
BRANCH   4  18
ATOM     18  C   UNL     1      47.527   5.534  14.673  0.00  0.00    +0.000 C 
BRANCH  18  19
ATOM     19  N   UNL     1      47.718   6.952  14.841  0.00  0.00    +0.000 N 
ATOM     20  C   UNL     1      48.793   7.595  14.276  0.00  0.00    +0.000 C 
ATOM     21  O   UNL     1      49.657   6.986  13.650  0.00  0.00    +0.000 OA
ATOM     22  H   UNL     1      47.014   7.471  15.357  0.00  0.00    +0.000 HD
BRANCH  20  23
ATOM     23  C   UNL     1      48.860   9.049  14.458  0.00  0.00    +0.000 A 
ATOM     24  C   UNL     1      48.856   9.662  15.710  0.00  0.00    +0.000 A 
ATOM     25  N   UNL     1      48.932  11.024  15.552  0.00  0.00    +0.000 N 
ATOM     26  C   UNL     1      48.977  11.310  14.222  0.00  0.00    +0.000 A 
ATOM     27  N   UNL     1      49.039  12.572  13.733  0.00  0.00    +0.000 NA
ATOM     28  C   UNL     1      49.059  12.610  12.437  0.00  0.00    +0.000 A 
ATOM     29  N   UNL     1      49.034  11.506  11.611  0.00  0.00    +0.000 N 
ATOM     30  C   UNL     1      48.988  10.210  12.081  0.00  0.00    +0.000 A 
ATOM     31  O   UNL     1      48.983   9.241  11.330  0.00  0.00    +0.000 OA
ATOM     32  C   UNL     1      48.942  10.123  13.521  0.00  0.00    +0.000 A 
ATOM     33  H   UNL     1      48.948  11.714  16.290  0.00  0.00    +0.000 HD
ATOM     34  H   UNL     1      49.055  11.611  10.608  0.00  0.00    +0.000 HD
ENDBRANCH  20  23
ENDBRANCH  18  19
ENDBRANCH   4  18
TORSDOF 6
ENDMDL
MODEL 6
REMARK VINA RESULT:    -7.401      2.652      3.569
REMARK INTER + INTRA:         -10.761
REMARK INTER:                 -10.091
REMARK INTRA:                  -0.670
REMARK UNBOUND:                -0.764
REMARK  Name = 
REMARK  6 active torsions:
REMARK  status: ('A' for Active; 'I' for Inactive)
REMARK    1  A    between atoms: C_2  and  C_25
REMARK    2  A    between atoms: N_3  and  C_4
REMARK    3  A    between atoms: C_4  and  C_5
REMARK    4  A    between atoms: C_8  and  C_9
REMARK    5  A    between atoms: C_9  and  N_10
REMARK    6  A    between atoms: C_11  and  C_13
REMARK                            x       y       z     vdW  Elec       q    Type
REMARK                         _______ _______ _______ _____ _____    ______ ____
ROOT
ATOM      1  C   UNL     1      45.056   4.548  11.272  0.00  0.00    +0.000 A 
ATOM      2  C   UNL     1      45.515   5.852  11.497  0.00  0.00    +0.000 A 
ATOM      3  C   UNL     1      46.364   6.135  12.573  0.00  0.00    +0.000 A 
ATOM      4  C   UNL     1      46.788   5.116  13.437  0.00  0.00    +0.000 A 
ATOM      5  C   UNL     1      46.318   3.813  13.218  0.00  0.00    +0.000 A 
ATOM      6  C   UNL     1      45.470   3.531  12.142  0.00  0.00    +0.000 A 
ENDROOT
BRANCH   1   7
ATOM      7  C   UNL     1      44.134   4.245  10.121  0.00  0.00    +0.000 C 
BRANCH   7  10
ATOM      8  O   UNL     1      46.054   5.054   8.264  0.00  0.00    +0.000 OA
ATOM      9  C   UNL     1      45.691   3.883   8.264  0.00  0.00    +0.000 C 
ATOM     10  N   UNL     1      44.739   3.389   9.131  0.00  0.00    +0.000 N 
ATOM     11  H   UNL     1      44.518   2.399   9.083  0.00  0.00    +0.000 HD
BRANCH   9  12
ATOM     12  C   UNL     1      46.282   2.892   7.308  0.00  0.00    +0.000 A 
ATOM     13  C   UNL     1      46.626   1.624   7.772  0.00  0.00    +0.000 A 
ATOM     14  C   UNL     1      47.169   0.715   6.871  0.00  0.00    +0.000 A 
ATOM     15  C   UNL     1      47.353   1.100   5.548  0.00  0.00    +0.000 A 
ATOM     16  C   UNL     1      46.983   2.384   5.174  0.00  0.00    +0.000 A 
ATOM     17  N   UNL     1      46.445   3.296   6.019  0.00  0.00    +0.000 NA
ENDBRANCH   9  12
ENDBRANCH   7  10
ENDBRANCH   1   7
BRANCH   4  18
ATOM     18  C   UNL     1      47.732   5.408  14.576  0.00  0.00    +0.000 C 
BRANCH  18  19
ATOM     19  N   UNL     1      47.725   6.798  14.957  0.00  0.00    +0.000 N 
ATOM     20  C   UNL     1      48.635   7.291  15.860  0.00  0.00    +0.000 C 
ATOM     21  O   UNL     1      49.457   6.565  16.414  0.00  0.00    +0.000 OA
ATOM     22  H   UNL     1      47.051   7.413  14.508  0.00  0.00    +0.000 HD
BRANCH  20  23
ATOM     23  C   UNL     1      48.579   8.732  16.131  0.00  0.00    +0.000 A 
ATOM     24  C   UNL     1      49.004   9.697  15.219  0.00  0.00    +0.000 A 
ATOM     25  N   UNL     1      48.822  10.946  15.758  0.00  0.00    +0.000 N 
ATOM     26  C   UNL     1      48.294  10.814  17.006  0.00  0.00    +0.000 A 
ATOM     27  N   UNL     1      48.012  11.866  17.811  0.00  0.00    +0.000 NA
ATOM     28  C   UNL     1      47.530  11.507  18.960  0.00  0.00    +0.000 A 
ATOM     29  N   UNL     1      47.303  10.204  19.352  0.00  0.00    +0.000 N 
ATOM     30  C   UNL     1      47.566   9.115  18.548  0.00  0.00    +0.000 A 
ATOM     31  O   UNL     1      47.342   7.965  18.909  0.00  0.00    +0.000 OA
ATOM     32  C   UNL     1      48.125   9.470  17.265  0.00  0.00    +0.000 A 
ATOM     33  H   UNL     1      49.042  11.828  15.317  0.00  0.00    +0.000 HD
ATOM     34  H   UNL     1      46.922   9.998  20.263  0.00  0.00    +0.000 HD
ENDBRANCH  20  23
ENDBRANCH  18  19
ENDBRANCH   4  18
TORSDOF 6
ENDMDL
MODEL 7
REMARK VINA RESULT:    -7.112      3.797      9.714
REMARK INTER + INTRA:         -10.370
REMARK INTER:                  -9.329
REMARK INTRA:                  -1.041
REMARK UNBOUND:                -0.764
REMARK  Name = 
REMARK  6 active torsions:
REMARK  status: ('A' for Active; 'I' for Inactive)
REMARK    1  A    between atoms: C_2  and  C_25
REMARK    2  A    between atoms: N_3  and  C_4
REMARK    3  A    between atoms: C_4  and  C_5
REMARK    4  A    between atoms: C_8  and  C_9
REMARK    5  A    between atoms: C_9  and  N_10
REMARK    6  A    between atoms: C_11  and  C_13
REMARK                            x       y       z     vdW  Elec       q    Type
REMARK                         _______ _______ _______ _____ _____    ______ ____
ROOT
ATOM      1  C   UNL     1      49.670   5.336  17.787  0.00  0.00    +0.000 A 
ATOM      2  C   UNL     1      50.329   6.477  17.312  0.00  0.00    +0.000 A 
ATOM      3  C   UNL     1      49.890   7.124  16.150  0.00  0.00    +0.000 A 
ATOM      4  C   UNL     1      48.770   6.655  15.451  0.00  0.00    +0.000 A 
ATOM      5  C   UNL     1      48.118   5.506  15.921  0.00  0.00    +0.000 A 
ATOM      6  C   UNL     1      48.558   4.860  17.082  0.00  0.00    +0.000 A 
ENDROOT
BRANCH   1   7
ATOM      7  C   UNL     1      50.149   4.634  19.029  0.00  0.00    +0.000 C 
BRANCH   7  10
ATOM      8  O   UNL     1      52.938   4.723  19.111  0.00  0.00    +0.000 OA
ATOM      9  C   UNL     1      52.390   3.664  18.821  0.00  0.00    +0.000 C 
ATOM     10  N   UNL     1      51.021   3.522  18.740  0.00  0.00    +0.000 N 
ATOM     11  H   UNL     1      50.650   2.602  18.523  0.00  0.00    +0.000 HD
BRANCH   9  12
ATOM     12  C   UNL     1      53.193   2.430  18.543  0.00  0.00    +0.000 A 
ATOM     13  C   UNL     1      52.694   1.482  17.654  0.00  0.00    +0.000 A 
ATOM     14  C   UNL     1      53.454   0.345  17.404  0.00  0.00    +0.000 A 
ATOM     15  C   UNL     1      54.676   0.191  18.048  0.00  0.00    +0.000 A 
ATOM     16  C   UNL     1      55.095   1.187  18.920  0.00  0.00    +0.000 A 
ATOM     17  N   UNL     1      54.388   2.311  19.185  0.00  0.00    +0.000 NA
ENDBRANCH   9  12
ENDBRANCH   7  10
ENDBRANCH   1   7
BRANCH   4  18
ATOM     18  C   UNL     1      48.269   7.370  14.221  0.00  0.00    +0.000 C 
BRANCH  18  19
ATOM     19  N   UNL     1      47.056   6.792  13.702  0.00  0.00    +0.000 N 
ATOM     20  C   UNL     1      46.573   7.147  12.465  0.00  0.00    +0.000 C 
ATOM     21  O   UNL     1      47.123   8.002  11.775  0.00  0.00    +0.000 OA
ATOM     22  H   UNL     1      46.587   6.083  14.260  0.00  0.00    +0.000 HD
BRANCH  20  23
ATOM     23  C   UNL     1      45.364   6.454  12.007  0.00  0.00    +0.000 A 
ATOM     24  C   UNL     1      44.326   7.096  11.333  0.00  0.00    +0.000 A 
ATOM     25  N   UNL     1      43.344   6.186  11.033  0.00  0.00    +0.000 N 
ATOM     26  C   UNL     1      43.716   4.965  11.507  0.00  0.00    +0.000 A 
ATOM     27  N   UNL     1      42.952   3.854  11.385  0.00  0.00    +0.000 NA
ATOM     28  C   UNL     1      43.497   2.806  11.920  0.00  0.00    +0.000 A 
ATOM     29  N   UNL     1      44.727   2.783  12.545  0.00  0.00    +0.000 N 
ATOM     30  C   UNL     1      45.533   3.896  12.668  0.00  0.00    +0.000 A 
ATOM     31  O   UNL     1      46.631   3.851  13.211  0.00  0.00    +0.000 OA
ATOM     32  C   UNL     1      44.953   5.091  12.103  0.00  0.00    +0.000 A 
ATOM     33  H   UNL     1      42.478   6.375  10.547  0.00  0.00    +0.000 HD
ATOM     34  H   UNL     1      45.091   1.929  12.937  0.00  0.00    +0.000 HD
ENDBRANCH  20  23
ENDBRANCH  18  19
ENDBRANCH   4  18
TORSDOF 6
ENDMDL
MODEL 8
REMARK VINA RESULT:    -7.074      2.731      3.663
REMARK INTER + INTRA:         -10.318
REMARK INTER:                  -9.374
REMARK INTRA:                  -0.945
REMARK UNBOUND:                -0.764
REMARK  Name = 
REMARK  6 active torsions:
REMARK  status: ('A' for Active; 'I' for Inactive)
REMARK    1  A    between atoms: C_2  and  C_25
REMARK    2  A    between atoms: N_3  and  C_4
REMARK    3  A    between atoms: C_4  and  C_5
REMARK    4  A    between atoms: C_8  and  C_9
REMARK    5  A    between atoms: C_9  and  N_10
REMARK    6  A    between atoms: C_11  and  C_13
REMARK                            x       y       z     vdW  Elec       q    Type
REMARK                         _______ _______ _______ _____ _____    ______ ____
ROOT
ATOM      1  C   UNL     1      45.470   4.970  11.603  0.00  0.00    +0.000 A 
ATOM      2  C   UNL     1      46.216   6.071  12.040  0.00  0.00    +0.000 A 
ATOM      3  C   UNL     1      46.871   6.045  13.277  0.00  0.00    +0.000 A 
ATOM      4  C   UNL     1      46.810   4.909  14.094  0.00  0.00    +0.000 A 
ATOM      5  C   UNL     1      46.053   3.811  13.662  0.00  0.00    +0.000 A 
ATOM      6  C   UNL     1      45.398   3.838  12.425  0.00  0.00    +0.000 A 
ENDROOT
BRANCH   1   7
ATOM      7  C   UNL     1      44.755   5.002  10.279  0.00  0.00    +0.000 C 
BRANCH   7  10
ATOM      8  O   UNL     1      44.383   2.368   9.436  0.00  0.00    +0.000 OA
ATOM      9  C   UNL     1      45.232   3.052   8.874  0.00  0.00    +0.000 C 
ATOM     10  N   UNL     1      45.501   4.358   9.226  0.00  0.00    +0.000 N 
ATOM     11  H   UNL     1      46.200   4.862   8.689  0.00  0.00    +0.000 HD
BRANCH   9  12
ATOM     12  C   UNL     1      46.039   2.502   7.738  0.00  0.00    +0.000 A 
ATOM     13  C   UNL     1      46.258   3.296   6.615  0.00  0.00    +0.000 A 
ATOM     14  C   UNL     1      47.013   2.772   5.571  0.00  0.00    +0.000 A 
ATOM     15  C   UNL     1      47.516   1.480   5.680  0.00  0.00    +0.000 A 
ATOM     16  C   UNL     1      47.247   0.760   6.836  0.00  0.00    +0.000 A 
ATOM     17  N   UNL     1      46.523   1.237   7.876  0.00  0.00    +0.000 NA
ENDBRANCH   9  12
ENDBRANCH   7  10
ENDBRANCH   1   7
BRANCH   4  18
ATOM     18  C   UNL     1      47.545   4.861  15.410  0.00  0.00    +0.000 C 
BRANCH  18  19
ATOM     19  N   UNL     1      48.283   6.069  15.676  0.00  0.00    +0.000 N 
ATOM     20  C   UNL     1      48.621   6.427  16.958  0.00  0.00    +0.000 C 
ATOM     21  O   UNL     1      48.270   5.764  17.931  0.00  0.00    +0.000 OA
ATOM     22  H   UNL     1      48.581   6.631  14.883  0.00  0.00    +0.000 HD
BRANCH  20  23
ATOM     23  C   UNL     1      49.425   7.645  17.112  0.00  0.00    +0.000 A 
ATOM     24  C   UNL     1      50.493   7.746  18.002  0.00  0.00    +0.000 A 
ATOM     25  N   UNL     1      51.046   9.000  17.911  0.00  0.00    +0.000 N 
ATOM     26  C   UNL     1      50.353   9.720  16.987  0.00  0.00    +0.000 A 
ATOM     27  N   UNL     1      50.640  11.006  16.676  0.00  0.00    +0.000 NA
ATOM     28  C   UNL     1      49.844  11.499  15.780  0.00  0.00    +0.000 A 
ATOM     29  N   UNL     1      48.810  10.814  15.175  0.00  0.00    +0.000 N 
ATOM     30  C   UNL     1      48.506   9.499  15.460  0.00  0.00    +0.000 A 
ATOM     31  O   UNL     1      47.593   8.902  14.899  0.00  0.00    +0.000 OA
ATOM     32  C   UNL     1      49.356   8.918  16.471  0.00  0.00    +0.000 A 
ATOM     33  H   UNL     1      51.833   9.348  18.440  0.00  0.00    +0.000 HD
ATOM     34  H   UNL     1      48.230  11.261  14.482  0.00  0.00    +0.000 HD
ENDBRANCH  20  23
ENDBRANCH  18  19
ENDBRANCH   4  18
TORSDOF 6
ENDMDL
MODEL 9
REMARK VINA RESULT:    -6.886      2.154      2.908
REMARK INTER + INTRA:         -10.064
REMARK INTER:                  -9.299
REMARK INTRA:                  -0.766
REMARK UNBOUND:                -0.764
REMARK  Name = 
REMARK  6 active torsions:
REMARK  status: ('A' for Active; 'I' for Inactive)
REMARK    1  A    between atoms: C_2  and  C_25
REMARK    2  A    between atoms: N_3  and  C_4
REMARK    3  A    between atoms: C_4  and  C_5
REMARK    4  A    between atoms: C_8  and  C_9
REMARK    5  A    between atoms: C_9  and  N_10
REMARK    6  A    between atoms: C_11  and  C_13
REMARK                            x       y       z     vdW  Elec       q    Type
REMARK                         _______ _______ _______ _____ _____    ______ ____
ROOT
ATOM      1  C   UNL     1      45.302   5.503  11.303  0.00  0.00    +0.000 A 
ATOM      2  C   UNL     1      45.757   4.866  12.464  0.00  0.00    +0.000 A 
ATOM      3  C   UNL     1      46.564   5.546  13.384  0.00  0.00    +0.000 A 
ATOM      4  C   UNL     1      46.916   6.886  13.171  0.00  0.00    +0.000 A 
ATOM      5  C   UNL     1      46.471   7.520  12.003  0.00  0.00    +0.000 A 
ATOM      6  C   UNL     1      45.665   6.839  11.084  0.00  0.00    +0.000 A 
ENDROOT
BRANCH   1   7
ATOM      7  C   UNL     1      44.445   4.768  10.308  0.00  0.00    +0.000 C 
BRANCH   7  10
ATOM      8  O   UNL     1      44.863   2.078   9.689  0.00  0.00    +0.000 OA
ATOM      9  C   UNL     1      45.333   2.934   8.947  0.00  0.00    +0.000 C 
ATOM     10  N   UNL     1      45.194   4.287   9.173  0.00  0.00    +0.000 N 
ATOM     11  H   UNL     1      45.589   4.928   8.492  0.00  0.00    +0.000 HD
BRANCH   9  12
ATOM     12  C   UNL     1      46.093   2.553   7.713  0.00  0.00    +0.000 A 
ATOM     13  C   UNL     1      46.776   1.339   7.685  0.00  0.00    +0.000 A 
ATOM     14  C   UNL     1      47.473   0.999   6.531  0.00  0.00    +0.000 A 
ATOM     15  C   UNL     1      47.469   1.877   5.453  0.00  0.00    +0.000 A 
ATOM     16  C   UNL     1      46.762   3.066   5.570  0.00  0.00    +0.000 A 
ATOM     17  N   UNL     1      46.065   3.430   6.673  0.00  0.00    +0.000 NA
ENDBRANCH   9  12
ENDBRANCH   7  10
ENDBRANCH   1   7
BRANCH   4  18
ATOM     18  C   UNL     1      47.754   7.636  14.177  0.00  0.00    +0.000 C 
BRANCH  18  19
ATOM     19  N   UNL     1      48.312   6.771  15.185  0.00  0.00    +0.000 N 
ATOM     20  C   UNL     1      49.142   7.264  16.163  0.00  0.00    +0.000 C 
ATOM     21  O   UNL     1      49.480   8.445  16.191  0.00  0.00    +0.000 OA
ATOM     22  H   UNL     1      48.044   5.790  15.177  0.00  0.00    +0.000 HD
BRANCH  20  23
ATOM     23  C   UNL     1      49.607   6.309  17.176  0.00  0.00    +0.000 A 
ATOM     24  C   UNL     1      48.762   5.728  18.120  0.00  0.00    +0.000 A 
ATOM     25  N   UNL     1      49.487   4.880  18.920  0.00  0.00    +0.000 N 
ATOM     26  C   UNL     1      50.788   4.905  18.522  0.00  0.00    +0.000 A 
ATOM     27  N   UNL     1      51.765   4.186  19.124  0.00  0.00    +0.000 NA
ATOM     28  C   UNL     1      52.932   4.373  18.589  0.00  0.00    +0.000 A 
ATOM     29  N   UNL     1      53.187   5.198  17.513  0.00  0.00    +0.000 N 
ATOM     30  C   UNL     1      52.209   5.928  16.871  0.00  0.00    +0.000 A 
ATOM     31  O   UNL     1      52.454   6.642  15.905  0.00  0.00    +0.000 OA
ATOM     32  C   UNL     1      50.897   5.765  17.450  0.00  0.00    +0.000 A 
ATOM     33  H   UNL     1      49.129   4.326  19.686  0.00  0.00    +0.000 HD
ATOM     34  H   UNL     1      54.122   5.293  17.146  0.00  0.00    +0.000 HD
ENDBRANCH  20  23
ENDBRANCH  18  19
ENDBRANCH   4  18
TORSDOF 6
ENDMDL
