MODEL 1
REMARK VINA RESULT:    -7.946      0.000      0.000
REMARK INTER + INTRA:         -11.702
REMARK INTER:                 -10.733
REMARK INTRA:                  -0.970
REMARK UNBOUND:                -0.970
REMARK  Name = 
REMARK  9 active torsions:
REMARK  status: ('A' for Active; 'I' for Inactive)
REMARK    1  A    between atoms: C_1  and  C_2
REMARK    2  A    between atoms: C_8  and  C_9
REMARK    3  A    between atoms: N_11  and  C_12
REMARK    4  A    between atoms: C_12  and  C_13
REMARK    5  A    between atoms: C_16  and  N_17
REMARK    6  A    between atoms: N_17  and  C_18
REMARK    7  A    between atoms: N_17  and  C_19
REMARK    8  A    between atoms: C_19  and  C_20
REMARK    9  A    between atoms: C_29  and  C_30
REMARK                            x       y       z     vdW  Elec       q    Type
REMARK                         _______ _______ _______ _____ _____    ______ ____
ROOT
ATOM      1  C   UNL     1      49.063   6.171  16.448  0.00  0.00    +0.000 C 
ATOM      2  O   UNL     1      50.228   6.219  16.073  0.00  0.00    +0.000 OA
ATOM      3  N   UNL     1      47.995   6.265  15.578  0.00  0.00    +0.000 N 
ATOM      4  H   UNL     1      47.051   6.362  15.926  0.00  0.00    +0.000 HD
ENDROOT
BRANCH   1  12
ATOM      5  C   UNL     1      47.453  10.254  20.396  0.00  0.00    +0.000 C 
ATOM      6  C   UNL     1      47.774   8.887  19.912  0.00  0.00    +0.000 A 
ATOM      7  N   UNL     1      47.903   7.826  20.769  0.00  0.00    +0.000 N 
ATOM      8  C   UNL     1      48.227   6.697  20.074  0.00  0.00    +0.000 A 
ATOM      9  N   UNL     1      48.412   5.502  20.662  0.00  0.00    +0.000 NA
ATOM     10  C   UNL     1      48.766   4.529  19.801  0.00  0.00    +0.000 A 
ATOM     11  C   UNL     1      48.940   4.691  18.439  0.00  0.00    +0.000 A 
ATOM     12  C   UNL     1      48.738   5.960  17.875  0.00  0.00    +0.000 A 
ATOM     13  C   UNL     1      48.344   7.024  18.722  0.00  0.00    +0.000 A 
ATOM     14  C   UNL     1      47.997   8.422  18.620  0.00  0.00    +0.000 A 
ATOM     15  C   UNL     1      47.887   9.282  17.407  0.00  0.00    +0.000 C 
ATOM     16  H   UNL     1      47.798   7.847  21.772  0.00  0.00    +0.000 HD
ENDBRANCH   1  12
BRANCH   3  17
ATOM     17  C   UNL     1      48.239   6.514  14.176  0.00  0.00    +0.000 C 
BRANCH  17  18
ATOM     18  C   UNL     1      47.198   5.869  13.305  0.00  0.00    +0.000 A 
ATOM     19  C   UNL     1      46.752   6.478  12.136  0.00  0.00    +0.000 A 
ATOM     20  C   UNL     1      45.782   5.858  11.326  0.00  0.00    +0.000 A 
ATOM     21  C   UNL     1      45.198   4.621  11.645  0.00  0.00    +0.000 A 
ATOM     22  C   UNL     1      45.684   4.030  12.826  0.00  0.00    +0.000 A 
ATOM     23  C   UNL     1      46.648   4.636  13.647  0.00  0.00    +0.000 A 
BRANCH  21  24
ATOM     24  N   UNL     1      44.226   4.002  10.857  0.00  0.00    +0.000 N 
ATOM     25  C   UNL     1      43.257   3.050  11.407  0.00  0.00    +0.000 C 
BRANCH  24  26
ATOM     26  C   UNL     1      44.352   3.976   9.387  0.00  0.00    +0.000 C 
BRANCH  26  27
ATOM     27  C   UNL     1      45.599   3.225   8.859  0.00  0.00    +0.000 C 
ATOM     28  C   UNL     1      46.044   3.911   7.549  0.00  0.00    +0.000 C 
ATOM     29  C   UNL     1      47.221   3.217   6.869  0.00  0.00    +0.000 C 
ATOM     30  C   UNL     1      46.926   1.744   6.630  0.00  0.00    +0.000 C 
ATOM     31  C   UNL     1      46.568   1.048   7.938  0.00  0.00    +0.000 C 
ATOM     32  C   UNL     1      45.379   1.720   8.633  0.00  0.00    +0.000 C 
ENDBRANCH  26  27
ENDBRANCH  24  26
ENDBRANCH  21  24
ENDBRANCH  17  18
ENDBRANCH   3  17
TORSDOF 6
ENDMDL
MODEL 2
REMARK VINA RESULT:    -7.751      1.538      2.712
REMARK INTER + INTRA:         -11.439
REMARK INTER:                 -10.451
REMARK INTRA:                  -0.988
REMARK UNBOUND:                -0.970
REMARK  Name = 
REMARK  9 active torsions:
REMARK  status: ('A' for Active; 'I' for Inactive)
REMARK    1  A    between atoms: C_1  and  C_2
REMARK    2  A    between atoms: C_8  and  C_9
REMARK    3  A    between atoms: N_11  and  C_12
REMARK    4  A    between atoms: C_12  and  C_13
REMARK    5  A    between atoms: C_16  and  N_17
REMARK    6  A    between atoms: N_17  and  C_18
REMARK    7  A    between atoms: N_17  and  C_19
REMARK    8  A    between atoms: C_19  and  C_20
REMARK    9  A    between atoms: C_29  and  C_30
REMARK                            x       y       z     vdW  Elec       q    Type
REMARK                         _______ _______ _______ _____ _____    ______ ____
ROOT
ATOM      1  C   UNL     1      48.924   6.997  16.553  0.00  0.00    +0.000 C 
ATOM      2  O   UNL     1      49.435   8.090  16.346  0.00  0.00    +0.000 OA
ATOM      3  N   UNL     1      48.439   6.196  15.538  0.00  0.00    +0.000 N 
ATOM      4  H   UNL     1      47.899   5.366  15.747  0.00  0.00    +0.000 HD
ENDROOT
BRANCH   1  12
ATOM      5  C   UNL     1      52.940   3.688  19.342  0.00  0.00    +0.000 C 
ATOM      6  C   UNL     1      51.664   4.433  19.191  0.00  0.00    +0.000 A 
ATOM      7  N   UNL     1      50.661   4.348  20.121  0.00  0.00    +0.000 N 
ATOM      8  C   UNL     1      49.593   5.103  19.730  0.00  0.00    +0.000 A 
ATOM      9  N   UNL     1      48.466   5.209  20.455  0.00  0.00    +0.000 NA
ATOM     10  C   UNL     1      47.520   5.968  19.870  0.00  0.00    +0.000 A 
ATOM     11  C   UNL     1      47.644   6.596  18.643  0.00  0.00    +0.000 A 
ATOM     12  C   UNL     1      48.840   6.451  17.925  0.00  0.00    +0.000 A 
ATOM     13  C   UNL     1      49.885   5.681  18.494  0.00  0.00    +0.000 A 
ATOM     14  C   UNL     1      51.238   5.289  18.181  0.00  0.00    +0.000 A 
ATOM     15  C   UNL     1      52.088   5.671  17.017  0.00  0.00    +0.000 C 
ATOM     16  H   UNL     1      50.672   3.804  20.970  0.00  0.00    +0.000 HD
ENDBRANCH   1  12
BRANCH   3  17
ATOM     17  C   UNL     1      48.450   6.684  14.179  0.00  0.00    +0.000 C 
BRANCH  17  18
ATOM     18  C   UNL     1      47.272   6.179  13.394  0.00  0.00    +0.000 A 
ATOM     19  C   UNL     1      46.859   6.807  12.222  0.00  0.00    +0.000 A 
ATOM     20  C   UNL     1      45.758   6.319  11.495  0.00  0.00    +0.000 A 
ATOM     21  C   UNL     1      45.007   5.203  11.900  0.00  0.00    +0.000 A 
ATOM     22  C   UNL     1      45.462   4.589  13.081  0.00  0.00    +0.000 A 
ATOM     23  C   UNL     1      46.556   5.064  13.822  0.00  0.00    +0.000 A 
BRANCH  21  24
ATOM     24  N   UNL     1      43.906   4.718  11.194  0.00  0.00    +0.000 N 
ATOM     25  C   UNL     1      42.555   5.259  11.375  0.00  0.00    +0.000 C 
BRANCH  24  26
ATOM     26  C   UNL     1      43.960   3.407  10.520  0.00  0.00    +0.000 C 
BRANCH  26  27
ATOM     27  C   UNL     1      45.212   3.188   9.635  0.00  0.00    +0.000 C 
ATOM     28  C   UNL     1      45.233   4.298   8.562  0.00  0.00    +0.000 C 
ATOM     29  C   UNL     1      46.376   4.154   7.560  0.00  0.00    +0.000 C 
ATOM     30  C   UNL     1      46.365   2.780   6.909  0.00  0.00    +0.000 C 
ATOM     31  C   UNL     1      46.429   1.683   7.966  0.00  0.00    +0.000 C 
ATOM     32  C   UNL     1      45.282   1.799   8.976  0.00  0.00    +0.000 C 
ENDBRANCH  26  27
ENDBRANCH  24  26
ENDBRANCH  21  24
ENDBRANCH  17  18
ENDBRANCH   3  17
TORSDOF 6
ENDMDL
MODEL 3
REMARK VINA RESULT:    -7.587      2.340      3.097
REMARK INTER + INTRA:         -11.218
REMARK INTER:                  -9.923
REMARK INTRA:                  -1.294
REMARK UNBOUND:                -0.970
REMARK  Name = 
REMARK  9 active torsions:
REMARK  status: ('A' for Active; 'I' for Inactive)
REMARK    1  A    between atoms: C_1  and  C_2
REMARK    2  A    between atoms: C_8  and  C_9
REMARK    3  A    between atoms: N_11  and  C_12
REMARK    4  A    between atoms: C_12  and  C_13
REMARK    5  A    between atoms: C_16  and  N_17
REMARK    6  A    between atoms: N_17  and  C_18
REMARK    7  A    between atoms: N_17  and  C_19
REMARK    8  A    between atoms: C_19  and  C_20
REMARK    9  A    between atoms: C_29  and  C_30
REMARK                            x       y       z     vdW  Elec       q    Type
REMARK                         _______ _______ _______ _____ _____    ______ ____
ROOT
ATOM      1  C   UNL     1      49.325   7.283  15.380  0.00  0.00    +0.000 C 
ATOM      2  O   UNL     1      48.679   8.175  15.917  0.00  0.00    +0.000 OA
ATOM      3  N   UNL     1      49.169   6.946  14.050  0.00  0.00    +0.000 N 
ATOM      4  H   UNL     1      49.611   6.120  13.670  0.00  0.00    +0.000 HD
ENDROOT
BRANCH   1  12
ATOM      5  C   UNL     1      48.464   2.962  19.309  0.00  0.00    +0.000 C 
ATOM      6  C   UNL     1      49.259   3.905  18.482  0.00  0.00    +0.000 A 
ATOM      7  N   UNL     1      50.607   4.067  18.661  0.00  0.00    +0.000 N 
ATOM      8  C   UNL     1      51.087   5.007  17.796  0.00  0.00    +0.000 A 
ATOM      9  N   UNL     1      52.382   5.366  17.748  0.00  0.00    +0.000 NA
ATOM     10  C   UNL     1      52.636   6.340  16.854  0.00  0.00    +0.000 A 
ATOM     11  C   UNL     1      51.694   6.948  16.044  0.00  0.00    +0.000 A 
ATOM     12  C   UNL     1      50.355   6.539  16.136  0.00  0.00    +0.000 A 
ATOM     13  C   UNL     1      50.022   5.503  17.043  0.00  0.00    +0.000 A 
ATOM     14  C   UNL     1      48.861   4.750  17.451  0.00  0.00    +0.000 A 
ATOM     15  C   UNL     1      47.464   4.811  16.933  0.00  0.00    +0.000 C 
ATOM     16  H   UNL     1      51.186   3.589  19.336  0.00  0.00    +0.000 HD
ENDBRANCH   1  12
BRANCH   3  17
ATOM     17  C   UNL     1      48.151   7.603  13.263  0.00  0.00    +0.000 C 
BRANCH  17  18
ATOM     18  C   UNL     1      47.117   6.633  12.765  0.00  0.00    +0.000 A 
ATOM     19  C   UNL     1      46.941   5.390  13.365  0.00  0.00    +0.000 A 
ATOM     20  C   UNL     1      45.964   4.495  12.891  0.00  0.00    +0.000 A 
ATOM     21  C   UNL     1      45.133   4.780  11.795  0.00  0.00    +0.000 A 
ATOM     22  C   UNL     1      45.332   6.050  11.223  0.00  0.00    +0.000 A 
ATOM     23  C   UNL     1      46.304   6.954  11.680  0.00  0.00    +0.000 A 
BRANCH  21  24
ATOM     24  N   UNL     1      44.170   3.895  11.307  0.00  0.00    +0.000 N 
ATOM     25  C   UNL     1      43.489   2.922  12.167  0.00  0.00    +0.000 C 
BRANCH  24  26
ATOM     26  C   UNL     1      44.054   3.628   9.861  0.00  0.00    +0.000 C 
BRANCH  26  27
ATOM     27  C   UNL     1      45.367   3.167   9.182  0.00  0.00    +0.000 C 
ATOM     28  C   UNL     1      45.636   4.104   7.985  0.00  0.00    +0.000 C 
ATOM     29  C   UNL     1      46.863   3.710   7.168  0.00  0.00    +0.000 C 
ATOM     30  C   UNL     1      46.775   2.264   6.707  0.00  0.00    +0.000 C 
ATOM     31  C   UNL     1      46.594   1.329   7.898  0.00  0.00    +0.000 C 
ATOM     32  C   UNL     1      45.358   1.698   8.727  0.00  0.00    +0.000 C 
ENDBRANCH  26  27
ENDBRANCH  24  26
ENDBRANCH  21  24
ENDBRANCH  17  18
ENDBRANCH   3  17
TORSDOF 6
ENDMDL
MODEL 4
REMARK VINA RESULT:    -7.578      0.959      2.376
REMARK INTER + INTRA:         -11.206
REMARK INTER:                 -10.335
REMARK INTRA:                  -0.871
REMARK UNBOUND:                -0.970
REMARK  Name = 
REMARK  9 active torsions:
REMARK  status: ('A' for Active; 'I' for Inactive)
REMARK    1  A    between atoms: C_1  and  C_2
REMARK    2  A    between atoms: C_8  and  C_9
REMARK    3  A    between atoms: N_11  and  C_12
REMARK    4  A    between atoms: C_12  and  C_13
REMARK    5  A    between atoms: C_16  and  N_17
REMARK    6  A    between atoms: N_17  and  C_18
REMARK    7  A    between atoms: N_17  and  C_19
REMARK    8  A    between atoms: C_19  and  C_20
REMARK    9  A    between atoms: C_29  and  C_30
REMARK                            x       y       z     vdW  Elec       q    Type
REMARK                         _______ _______ _______ _____ _____    ______ ____
ROOT
ATOM      1  C   UNL     1      48.941   7.694  15.693  0.00  0.00    +0.000 C 
ATOM      2  O   UNL     1      50.042   7.220  15.445  0.00  0.00    +0.000 OA
ATOM      3  N   UNL     1      47.940   7.790  14.747  0.00  0.00    +0.000 N 
ATOM      4  H   UNL     1      47.093   8.308  14.939  0.00  0.00    +0.000 HD
ENDROOT
BRANCH   1  12
ATOM      5  C   UNL     1      48.761   4.454  20.624  0.00  0.00    +0.000 C 
ATOM      6  C   UNL     1      48.653   5.691  19.809  0.00  0.00    +0.000 A 
ATOM      7  N   UNL     1      48.141   6.854  20.320  0.00  0.00    +0.000 N 
ATOM      8  C   UNL     1      48.128   7.823  19.360  0.00  0.00    +0.000 A 
ATOM      9  N   UNL     1      47.679   9.071  19.584  0.00  0.00    +0.000 NA
ATOM     10  C   UNL     1      47.714   9.858  18.493  0.00  0.00    +0.000 A 
ATOM     11  C   UNL     1      48.153   9.470  17.240  0.00  0.00    +0.000 A 
ATOM     12  C   UNL     1      48.608   8.155  17.058  0.00  0.00    +0.000 A 
ATOM     13  C   UNL     1      48.618   7.280  18.171  0.00  0.00    +0.000 A 
ATOM     14  C   UNL     1      49.004   5.925  18.483  0.00  0.00    +0.000 A 
ATOM     15  C   UNL     1      49.649   4.902  17.612  0.00  0.00    +0.000 C 
ATOM     16  H   UNL     1      47.799   6.999  21.258  0.00  0.00    +0.000 HD
ENDBRANCH   1  12
BRANCH   3  17
ATOM     17  C   UNL     1      48.209   7.397  13.383  0.00  0.00    +0.000 C 
BRANCH  17  18
ATOM     18  C   UNL     1      47.157   6.464  12.852  0.00  0.00    +0.000 A 
ATOM     19  C   UNL     1      46.389   6.796  11.740  0.00  0.00    +0.000 A 
ATOM     20  C   UNL     1      45.412   5.909  11.250  0.00  0.00    +0.000 A 
ATOM     21  C   UNL     1      45.139   4.666  11.847  0.00  0.00    +0.000 A 
ATOM     22  C   UNL     1      45.944   4.361  12.960  0.00  0.00    +0.000 A 
ATOM     23  C   UNL     1      46.920   5.235  13.464  0.00  0.00    +0.000 A 
BRANCH  21  24
ATOM     24  N   UNL     1      44.164   3.784  11.379  0.00  0.00    +0.000 N 
ATOM     25  C   UNL     1      43.484   2.826  12.255  0.00  0.00    +0.000 C 
BRANCH  24  26
ATOM     26  C   UNL     1      44.032   3.503   9.936  0.00  0.00    +0.000 C 
BRANCH  26  27
ATOM     27  C   UNL     1      45.345   3.067   9.241  0.00  0.00    +0.000 C 
ATOM     28  C   UNL     1      45.602   4.034   8.065  0.00  0.00    +0.000 C 
ATOM     29  C   UNL     1      46.827   3.669   7.233  0.00  0.00    +0.000 C 
ATOM     30  C   UNL     1      46.745   2.233   6.737  0.00  0.00    +0.000 C 
ATOM     31  C   UNL     1      46.576   1.269   7.906  0.00  0.00    +0.000 C 
ATOM     32  C   UNL     1      45.342   1.609   8.749  0.00  0.00    +0.000 C 
ENDBRANCH  26  27
ENDBRANCH  24  26
ENDBRANCH  21  24
ENDBRANCH  17  18
ENDBRANCH   3  17
TORSDOF 6
ENDMDL
MODEL 5
REMARK VINA RESULT:    -7.232      3.679      5.790
REMARK INTER + INTRA:         -10.738
REMARK INTER:                  -9.533
REMARK INTRA:                  -1.205
REMARK UNBOUND:                -0.970
REMARK  Name = 
REMARK  9 active torsions:
REMARK  status: ('A' for Active; 'I' for Inactive)
REMARK    1  A    between atoms: C_1  and  C_2
REMARK    2  A    between atoms: C_8  and  C_9
REMARK    3  A    between atoms: N_11  and  C_12
REMARK    4  A    between atoms: C_12  and  C_13
REMARK    5  A    between atoms: C_16  and  N_17
REMARK    6  A    between atoms: N_17  and  C_18
REMARK    7  A    between atoms: N_17  and  C_19
REMARK    8  A    between atoms: C_19  and  C_20
REMARK    9  A    between atoms: C_29  and  C_30
REMARK                            x       y       z     vdW  Elec       q    Type
REMARK                         _______ _______ _______ _____ _____    ______ ____
ROOT
ATOM      1  C   UNL     1      49.615   8.545  13.722  0.00  0.00    +0.000 C 
ATOM      2  O   UNL     1      49.005   9.108  14.622  0.00  0.00    +0.000 OA
ATOM      3  N   UNL     1      49.426   7.212  13.413  0.00  0.00    +0.000 N 
ATOM      4  H   UNL     1      50.039   6.740  12.761  0.00  0.00    +0.000 HD
ENDROOT
BRANCH   1  12
ATOM      5  C   UNL     1      48.349  12.149   9.221  0.00  0.00    +0.000 C 
ATOM      6  C   UNL     1      49.229  11.430  10.177  0.00  0.00    +0.000 A 
ATOM      7  N   UNL     1      50.591  11.403  10.030  0.00  0.00    +0.000 N 
ATOM      8  C   UNL     1      51.156  10.654  11.020  0.00  0.00    +0.000 A 
ATOM      9  N   UNL     1      52.483  10.459  11.125  0.00  0.00    +0.000 NA
ATOM     10  C   UNL     1      52.827   9.654  12.149  0.00  0.00    +0.000 A 
ATOM     11  C   UNL     1      51.944   9.059  13.031  0.00  0.00    +0.000 A 
ATOM     12  C   UNL     1      50.569   9.292  12.876  0.00  0.00    +0.000 A 
ATOM     13  C   UNL     1      50.140  10.146  11.830  0.00  0.00    +0.000 A 
ATOM     14  C   UNL     1      48.908  10.694  11.314  0.00  0.00    +0.000 A 
ATOM     15  C   UNL     1      47.517  10.543  11.828  0.00  0.00    +0.000 C 
ATOM     16  H   UNL     1      51.126  11.846   9.298  0.00  0.00    +0.000 HD
ENDBRANCH   1  12
BRANCH   3  17
ATOM     17  C   UNL     1      48.540   6.411  14.225  0.00  0.00    +0.000 C 
BRANCH  17  18
ATOM     18  C   UNL     1      47.338   5.949  13.451  0.00  0.00    +0.000 A 
ATOM     19  C   UNL     1      46.777   6.733  12.447  0.00  0.00    +0.000 A 
ATOM     20  C   UNL     1      45.655   6.284  11.726  0.00  0.00    +0.000 A 
ATOM     21  C   UNL     1      45.028   5.052  11.977  0.00  0.00    +0.000 A 
ATOM     22  C   UNL     1      45.630   4.283  12.990  0.00  0.00    +0.000 A 
ATOM     23  C   UNL     1      46.747   4.717  13.722  0.00  0.00    +0.000 A 
BRANCH  21  24
ATOM     24  N   UNL     1      43.907   4.601  11.278  0.00  0.00    +0.000 N 
ATOM     25  C   UNL     1      42.566   5.146  11.508  0.00  0.00    +0.000 C 
BRANCH  24  26
ATOM     26  C   UNL     1      43.936   3.315  10.555  0.00  0.00    +0.000 C 
BRANCH  26  27
ATOM     27  C   UNL     1      45.182   3.105   9.661  0.00  0.00    +0.000 C 
ATOM     28  C   UNL     1      45.222   4.252   8.627  0.00  0.00    +0.000 C 
ATOM     29  C   UNL     1      46.361   4.122   7.620  0.00  0.00    +0.000 C 
ATOM     30  C   UNL     1      46.325   2.772   6.921  0.00  0.00    +0.000 C 
ATOM     31  C   UNL     1      46.370   1.637   7.938  0.00  0.00    +0.000 C 
ATOM     32  C   UNL     1      45.226   1.739   8.954  0.00  0.00    +0.000 C 
ENDBRANCH  26  27
ENDBRANCH  24  26
ENDBRANCH  21  24
ENDBRANCH  17  18
ENDBRANCH   3  17
TORSDOF 6
ENDMDL
MODEL 6
REMARK VINA RESULT:    -7.160      2.800      9.958
REMARK INTER + INTRA:         -10.640
REMARK INTER:                  -9.449
REMARK INTRA:                  -1.192
REMARK UNBOUND:                -0.970
REMARK  Name = 
REMARK  9 active torsions:
REMARK  status: ('A' for Active; 'I' for Inactive)
REMARK    1  A    between atoms: C_1  and  C_2
REMARK    2  A    between atoms: C_8  and  C_9
REMARK    3  A    between atoms: N_11  and  C_12
REMARK    4  A    between atoms: C_12  and  C_13
REMARK    5  A    between atoms: C_16  and  N_17
REMARK    6  A    between atoms: N_17  and  C_18
REMARK    7  A    between atoms: N_17  and  C_19
REMARK    8  A    between atoms: C_19  and  C_20
REMARK    9  A    between atoms: C_29  and  C_30
REMARK                            x       y       z     vdW  Elec       q    Type
REMARK                         _______ _______ _______ _____ _____    ______ ____
ROOT
ATOM      1  C   UNL     1      46.662   4.053  13.767  0.00  0.00    +0.000 C 
ATOM      2  O   UNL     1      47.692   3.553  13.333  0.00  0.00    +0.000 OA
ATOM      3  N   UNL     1      46.453   4.282  15.113  0.00  0.00    +0.000 N 
ATOM      4  H   UNL     1      45.544   4.565  15.454  0.00  0.00    +0.000 HD
ENDROOT
BRANCH   1  12
ATOM      5  C   UNL     1      45.365   9.570  12.118  0.00  0.00    +0.000 C 
ATOM      6  C   UNL     1      45.217   8.093  12.146  0.00  0.00    +0.000 A 
ATOM      7  N   UNL     1      44.147   7.460  11.571  0.00  0.00    +0.000 N 
ATOM      8  C   UNL     1      44.240   6.112  11.763  0.00  0.00    +0.000 A 
ATOM      9  N   UNL     1      43.326   5.241  11.299  0.00  0.00    +0.000 NA
ATOM     10  C   UNL     1      43.584   3.963  11.635  0.00  0.00    +0.000 A 
ATOM     11  C   UNL     1      44.665   3.535  12.384  0.00  0.00    +0.000 A 
ATOM     12  C   UNL     1      45.588   4.485  12.846  0.00  0.00    +0.000 A 
ATOM     13  C   UNL     1      45.387   5.846  12.511  0.00  0.00    +0.000 A 
ATOM     14  C   UNL     1      46.038   7.120  12.707  0.00  0.00    +0.000 A 
ATOM     15  C   UNL     1      47.334   7.426  13.377  0.00  0.00    +0.000 C 
ATOM     16  H   UNL     1      43.380   7.898  11.084  0.00  0.00    +0.000 HD
ENDBRANCH   1  12
BRANCH   3  17
ATOM     17  C   UNL     1      47.441   3.847  16.071  0.00  0.00    +0.000 C 
BRANCH  17  18
ATOM     18  C   UNL     1      47.783   4.931  17.054  0.00  0.00    +0.000 A 
ATOM     19  C   UNL     1      47.304   4.903  18.360  0.00  0.00    +0.000 A 
ATOM     20  C   UNL     1      47.638   5.923  19.271  0.00  0.00    +0.000 A 
ATOM     21  C   UNL     1      48.442   7.022  18.927  0.00  0.00    +0.000 A 
ATOM     22  C   UNL     1      48.917   7.009  17.602  0.00  0.00    +0.000 A 
ATOM     23  C   UNL     1      48.591   6.002  16.679  0.00  0.00    +0.000 A 
BRANCH  21  24
ATOM     24  N   UNL     1      48.769   8.045  19.817  0.00  0.00    +0.000 N 
ATOM     25  C   UNL     1      50.098   8.663  19.851  0.00  0.00    +0.000 C 
BRANCH  24  26
ATOM     26  C   UNL     1      47.938   8.303  21.009  0.00  0.00    +0.000 C 
BRANCH  26  27
ATOM     27  C   UNL     1      47.336   9.728  21.081  0.00  0.00    +0.000 C 
ATOM     28  C   UNL     1      46.237   9.723  22.165  0.00  0.00    +0.000 C 
ATOM     29  C   UNL     1      45.495  11.051  22.285  0.00  0.00    +0.000 C 
ATOM     30  C   UNL     1      44.924  11.484  20.943  0.00  0.00    +0.000 C 
ATOM     31  C   UNL     1      46.024  11.571  19.892  0.00  0.00    +0.000 C 
ATOM     32  C   UNL     1      46.775  10.242  19.744  0.00  0.00    +0.000 C 
ENDBRANCH  26  27
ENDBRANCH  24  26
ENDBRANCH  21  24
ENDBRANCH  17  18
ENDBRANCH   3  17
TORSDOF 6
ENDMDL
MODEL 7
REMARK VINA RESULT:    -7.016      2.971      4.837
REMARK INTER + INTRA:         -10.447
REMARK INTER:                  -9.318
REMARK INTRA:                  -1.129
REMARK UNBOUND:                -0.970
REMARK  Name = 
REMARK  9 active torsions:
REMARK  status: ('A' for Active; 'I' for Inactive)
REMARK    1  A    between atoms: C_1  and  C_2
REMARK    2  A    between atoms: C_8  and  C_9
REMARK    3  A    between atoms: N_11  and  C_12
REMARK    4  A    between atoms: C_12  and  C_13
REMARK    5  A    between atoms: C_16  and  N_17
REMARK    6  A    between atoms: N_17  and  C_18
REMARK    7  A    between atoms: N_17  and  C_19
REMARK    8  A    between atoms: C_19  and  C_20
REMARK    9  A    between atoms: C_29  and  C_30
REMARK                            x       y       z     vdW  Elec       q    Type
REMARK                         _______ _______ _______ _____ _____    ______ ____
ROOT
ATOM      1  C   UNL     1      49.109   8.415  14.918  0.00  0.00    +0.000 C 
ATOM      2  O   UNL     1      50.161   7.915  15.297  0.00  0.00    +0.000 OA
ATOM      3  N   UNL     1      48.013   7.659  14.550  0.00  0.00    +0.000 N 
ATOM      4  H   UNL     1      47.211   8.090  14.112  0.00  0.00    +0.000 HD
ENDROOT
BRANCH   1  12
ATOM      5  C   UNL     1      48.936  11.869  10.134  0.00  0.00    +0.000 C 
ATOM      6  C   UNL     1      48.896  11.559  11.586  0.00  0.00    +0.000 A 
ATOM      7  N   UNL     1      48.917  12.544  12.537  0.00  0.00    +0.000 N 
ATOM      8  C   UNL     1      48.901  11.992  13.785  0.00  0.00    +0.000 A 
ATOM      9  N   UNL     1      48.911  12.727  14.912  0.00  0.00    +0.000 NA
ATOM     10  C   UNL     1      48.935  11.985  16.035  0.00  0.00    +0.000 A 
ATOM     11  C   UNL     1      48.952  10.603  16.082  0.00  0.00    +0.000 A 
ATOM     12  C   UNL     1      48.944   9.884  14.877  0.00  0.00    +0.000 A 
ATOM     13  C   UNL     1      48.899  10.603  13.658  0.00  0.00    +0.000 A 
ATOM     14  C   UNL     1      48.840  10.333  12.241  0.00  0.00    +0.000 A 
ATOM     15  C   UNL     1      48.748   9.026  11.530  0.00  0.00    +0.000 C 
ATOM     16  H   UNL     1      48.956  13.539  12.373  0.00  0.00    +0.000 HD
ENDBRANCH   1  12
BRANCH   3  17
ATOM     17  C   UNL     1      48.118   6.218  14.526  0.00  0.00    +0.000 C 
BRANCH  17  18
ATOM     18  C   UNL     1      47.093   5.599  13.619  0.00  0.00    +0.000 A 
ATOM     19  C   UNL     1      46.531   6.314  12.565  0.00  0.00    +0.000 A 
ATOM     20  C   UNL     1      45.577   5.718  11.720  0.00  0.00    +0.000 A 
ATOM     21  C   UNL     1      45.123   4.399  11.888  0.00  0.00    +0.000 A 
ATOM     22  C   UNL     1      45.723   3.705  12.955  0.00  0.00    +0.000 A 
ATOM     23  C   UNL     1      46.673   4.285  13.811  0.00  0.00    +0.000 A 
BRANCH  21  24
ATOM     24  N   UNL     1      44.168   3.802  11.064  0.00  0.00    +0.000 N 
ATOM     25  C   UNL     1      43.237   2.780  11.553  0.00  0.00    +0.000 C 
BRANCH  24  26
ATOM     26  C   UNL     1      44.283   3.881   9.595  0.00  0.00    +0.000 C 
BRANCH  26  27
ATOM     27  C   UNL     1      45.554   3.217   9.011  0.00  0.00    +0.000 C 
ATOM     28  C   UNL     1      45.974   4.018   7.760  0.00  0.00    +0.000 C 
ATOM     29  C   UNL     1      47.172   3.420   7.028  0.00  0.00    +0.000 C 
ATOM     30  C   UNL     1      46.926   1.961   6.673  0.00  0.00    +0.000 C 
ATOM     31  C   UNL     1      46.594   1.152   7.921  0.00  0.00    +0.000 C 
ATOM     32  C   UNL     1      45.383   1.727   8.666  0.00  0.00    +0.000 C 
ENDBRANCH  26  27
ENDBRANCH  24  26
ENDBRANCH  21  24
ENDBRANCH  17  18
ENDBRANCH   3  17
TORSDOF 6
ENDMDL
MODEL 8
REMARK VINA RESULT:    -6.870      5.583      8.444
REMARK INTER + INTRA:         -10.249
REMARK INTER:                  -9.165
REMARK INTRA:                  -1.084
REMARK UNBOUND:                -0.970
REMARK  Name = 
REMARK  9 active torsions:
REMARK  status: ('A' for Active; 'I' for Inactive)
REMARK    1  A    between atoms: C_1  and  C_2
REMARK    2  A    between atoms: C_8  and  C_9
REMARK    3  A    between atoms: N_11  and  C_12
REMARK    4  A    between atoms: C_12  and  C_13
REMARK    5  A    between atoms: C_16  and  N_17
REMARK    6  A    between atoms: N_17  and  C_18
REMARK    7  A    between atoms: N_17  and  C_19
REMARK    8  A    between atoms: C_19  and  C_20
REMARK    9  A    between atoms: C_29  and  C_30
REMARK                            x       y       z     vdW  Elec       q    Type
REMARK                         _______ _______ _______ _____ _____    ______ ____
ROOT
ATOM      1  C   UNL     1      47.327   7.542  12.476  0.00  0.00    +0.000 C 
ATOM      2  O   UNL     1      48.224   7.706  11.659  0.00  0.00    +0.000 OA
ATOM      3  N   UNL     1      46.412   8.529  12.788  0.00  0.00    +0.000 N 
ATOM      4  H   UNL     1      45.772   8.415  13.561  0.00  0.00    +0.000 HD
ENDROOT
BRANCH   1  12
ATOM      5  C   UNL     1      43.937   3.040  10.719  0.00  0.00    +0.000 C 
ATOM      6  C   UNL     1      44.895   3.753  11.602  0.00  0.00    +0.000 A 
ATOM      7  N   UNL     1      45.259   3.258  12.826  0.00  0.00    +0.000 N 
ATOM      8  C   UNL     1      46.123   4.116  13.441  0.00  0.00    +0.000 A 
ATOM      9  N   UNL     1      46.648   3.880  14.657  0.00  0.00    +0.000 NA
ATOM     10  C   UNL     1      47.444   4.872  15.099  0.00  0.00    +0.000 A 
ATOM     11  C   UNL     1      47.724   6.040  14.412  0.00  0.00    +0.000 A 
ATOM     12  C   UNL     1      47.149   6.238  13.148  0.00  0.00    +0.000 A 
ATOM     13  C   UNL     1      46.317   5.223  12.615  0.00  0.00    +0.000 A 
ATOM     14  C   UNL     1      45.566   4.956  11.411  0.00  0.00    +0.000 A 
ATOM     15  C   UNL     1      45.464   5.764  10.163  0.00  0.00    +0.000 C 
ATOM     16  H   UNL     1      44.939   2.399  13.247  0.00  0.00    +0.000 HD
ENDBRANCH   1  12
BRANCH   3  17
ATOM     17  C   UNL     1      46.552   9.841  12.199  0.00  0.00    +0.000 C 
BRANCH  17  18
ATOM     18  C   UNL     1      45.262  10.325  11.601  0.00  0.00    +0.000 A 
ATOM     19  C   UNL     1      44.280   9.434  11.177  0.00  0.00    +0.000 A 
ATOM     20  C   UNL     1      43.074   9.902  10.624  0.00  0.00    +0.000 A 
ATOM     21  C   UNL     1      42.792  11.267  10.449  0.00  0.00    +0.000 A 
ATOM     22  C   UNL     1      43.802  12.137  10.901  0.00  0.00    +0.000 A 
ATOM     23  C   UNL     1      45.013  11.687  11.451  0.00  0.00    +0.000 A 
BRANCH  21  24
ATOM     24  N   UNL     1      41.605  11.743   9.891  0.00  0.00    +0.000 N 
ATOM     25  C   UNL     1      41.572  12.474   8.620  0.00  0.00    +0.000 C 
BRANCH  24  26
ATOM     26  C   UNL     1      40.385  11.873  10.710  0.00  0.00    +0.000 C 
BRANCH  26  27
ATOM     27  C   UNL     1      39.318  10.779  10.458  0.00  0.00    +0.000 C 
ATOM     28  C   UNL     1      38.222  11.385   9.554  0.00  0.00    +0.000 C 
ATOM     29  C   UNL     1      37.056  10.436   9.293  0.00  0.00    +0.000 C 
ATOM     30  C   UNL     1      36.458   9.930  10.596  0.00  0.00    +0.000 C 
ATOM     31  C   UNL     1      37.523   9.255  11.452  0.00  0.00    +0.000 C 
ATOM     32  C   UNL     1      38.700  10.195  11.739  0.00  0.00    +0.000 C 
ENDBRANCH  26  27
ENDBRANCH  24  26
ENDBRANCH  21  24
ENDBRANCH  17  18
ENDBRANCH   3  17
TORSDOF 6
ENDMDL
MODEL 9
REMARK VINA RESULT:    -6.713      2.850      3.944
REMARK INTER + INTRA:         -10.037
REMARK INTER:                  -8.651
REMARK INTRA:                  -1.386
REMARK UNBOUND:                -0.970
REMARK  Name = 
REMARK  9 active torsions:
REMARK  status: ('A' for Active; 'I' for Inactive)
REMARK    1  A    between atoms: C_1  and  C_2
REMARK    2  A    between atoms: C_8  and  C_9
REMARK    3  A    between atoms: N_11  and  C_12
REMARK    4  A    between atoms: C_12  and  C_13
REMARK    5  A    between atoms: C_16  and  N_17
REMARK    6  A    between atoms: N_17  and  C_18
REMARK    7  A    between atoms: N_17  and  C_19
REMARK    8  A    between atoms: C_19  and  C_20
REMARK    9  A    between atoms: C_29  and  C_30
REMARK                            x       y       z     vdW  Elec       q    Type
REMARK                         _______ _______ _______ _____ _____    ______ ____
ROOT
ATOM      1  C   UNL     1      50.787   7.389  16.172  0.00  0.00    +0.000 C 
ATOM      2  O   UNL     1      50.370   8.404  16.716  0.00  0.00    +0.000 OA
ATOM      3  N   UNL     1      50.907   7.273  14.801  0.00  0.00    +0.000 N 
ATOM      4  H   UNL     1      51.120   6.382  14.373  0.00  0.00    +0.000 HD
ENDROOT
BRANCH   1  12
ATOM      5  C   UNL     1      47.569   2.724  17.825  0.00  0.00    +0.000 C 
ATOM      6  C   UNL     1      48.791   3.562  17.722  0.00  0.00    +0.000 A 
ATOM      7  N   UNL     1      49.921   3.286  18.446  0.00  0.00    +0.000 N 
ATOM      8  C   UNL     1      50.882   4.220  18.190  0.00  0.00    +0.000 A 
ATOM      9  N   UNL     1      52.099   4.195  18.761  0.00  0.00    +0.000 NA
ATOM     10  C   UNL     1      52.881   5.231  18.404  0.00  0.00    +0.000 A 
ATOM     11  C   UNL     1      52.516   6.250  17.543  0.00  0.00    +0.000 A 
ATOM     12  C   UNL     1      51.233   6.231  16.976  0.00  0.00    +0.000 A 
ATOM     13  C   UNL     1      50.366   5.157  17.293  0.00  0.00    +0.000 A 
ATOM     14  C   UNL     1      49.040   4.695  16.956  0.00  0.00    +0.000 A 
ATOM     15  C   UNL     1      48.057   5.268  15.993  0.00  0.00    +0.000 C 
ATOM     16  H   UNL     1      50.049   2.524  19.095  0.00  0.00    +0.000 HD
ENDBRANCH   1  12
BRANCH   3  17
ATOM     17  C   UNL     1      50.450   8.350  13.952  0.00  0.00    +0.000 C 
BRANCH  17  18
ATOM     18  C   UNL     1      49.095   8.066  13.369  0.00  0.00    +0.000 A 
ATOM     19  C   UNL     1      48.050   8.977  13.487  0.00  0.00    +0.000 A 
ATOM     20  C   UNL     1      46.788   8.699  12.929  0.00  0.00    +0.000 A 
ATOM     21  C   UNL     1      46.499   7.506  12.248  0.00  0.00    +0.000 A 
ATOM     22  C   UNL     1      47.583   6.616  12.138  0.00  0.00    +0.000 A 
ATOM     23  C   UNL     1      48.848   6.874  12.691  0.00  0.00    +0.000 A 
BRANCH  21  24
ATOM     24  N   UNL     1      45.248   7.214  11.702  0.00  0.00    +0.000 N 
ATOM     25  C   UNL     1      44.338   8.257  11.219  0.00  0.00    +0.000 C 
BRANCH  24  26
ATOM     26  C   UNL     1      44.617   5.898  11.922  0.00  0.00    +0.000 C 
BRANCH  26  27
ATOM     27  C   UNL     1      44.444   5.043  10.643  0.00  0.00    +0.000 C 
ATOM     28  C   UNL     1      44.380   3.560  11.070  0.00  0.00    +0.000 C 
ATOM     29  C   UNL     1      44.294   2.592   9.894  0.00  0.00    +0.000 C 
ATOM     30  C   UNL     1      45.433   2.819   8.912  0.00  0.00    +0.000 C 
ATOM     31  C   UNL     1      45.446   4.263   8.425  0.00  0.00    +0.000 C 
ATOM     32  C   UNL     1      45.545   5.255   9.590  0.00  0.00    +0.000 C 
ENDBRANCH  26  27
ENDBRANCH  24  26
ENDBRANCH  21  24
ENDBRANCH  17  18
ENDBRANCH   3  17
TORSDOF 6
ENDMDL
