MODEL 1
REMARK VINA RESULT:    -7.200      0.000      0.000
REMARK INTER + INTRA:         -10.863
REMARK INTER:                  -9.725
REMARK INTRA:                  -1.138
REMARK UNBOUND:                -1.138
REMARK  Name = 
REMARK  8 active torsions:
REMARK  status: ('A' for Active; 'I' for Inactive)
REMARK    1  A    between atoms: C_1  and  C_2
REMARK    2  A    between atoms: C_2  and  N_3
REMARK    3  A    between atoms: C_2  and  C_16
REMARK    4  A    between atoms: C_4  and  C_6
REMARK    5  A    between atoms: C_19  and  O_20
REMARK    6  A    between atoms: O_20  and  C_21
REMARK    7  A    between atoms: C_21  and  C_22
REMARK    8  A    between atoms: N_27  and  C_28
REMARK                            x       y       z     vdW  Elec       q    Type
REMARK                         _______ _______ _______ _____ _____    ______ ____
ROOT
ATOM      1  C   UNL     1      47.005   4.225  16.177  0.00  0.00    +0.000 C 
ATOM      2  C   UNL     1      47.458   4.865  14.861  0.00  0.00    +0.000 C 
ENDROOT
BRANCH   2   3
ATOM      3  C   UNL     1      46.484   4.690  13.705  0.00  0.00    +0.000 A 
ATOM      4  C   UNL     1      46.198   3.392  13.249  0.00  0.00    +0.000 A 
ATOM      5  C   UNL     1      45.326   3.172  12.177  0.00  0.00    +0.000 A 
ATOM      6  C   UNL     1      44.730   4.252  11.536  0.00  0.00    +0.000 A 
ATOM      7  C   UNL     1      45.032   5.549  11.956  0.00  0.00    +0.000 A 
ATOM      8  C   UNL     1      45.899   5.769  13.031  0.00  0.00    +0.000 A 
BRANCH   6   9
ATOM      9  O   UNL     1      43.905   4.165  10.454  0.00  0.00    +0.000 OA
BRANCH   9  10
ATOM     10  C   UNL     1      44.257   3.211   9.454  0.00  0.00    +0.000 C 
BRANCH  10  11
ATOM     11  C   UNL     1      45.365   3.823   8.593  0.00  0.00    +0.000 C 
ATOM     12  O   UNL     1      45.455   5.049   8.482  0.00  0.00    +0.000 OA
ATOM     13  N   UNL     1      46.246   2.958   7.937  0.00  0.00    +0.000 N 
ATOM     14  C   UNL     1      46.116   1.499   8.005  0.00  0.00    +0.000 C 
ATOM     15  C   UNL     1      47.359   0.745   7.498  0.00  0.00    +0.000 C 
ATOM     16  N   UNL     1      47.869   1.201   6.192  0.00  0.00    +0.000 NA
ATOM     17  C   UNL     1      46.967   0.837   5.100  0.00  0.00    +0.000 C 
ATOM     18  C   UNL     1      48.098   2.659   6.253  0.00  0.00    +0.000 C 
ATOM     19  C   UNL     1      46.896   3.491   6.737  0.00  0.00    +0.000 C 
ENDBRANCH  10  11
ENDBRANCH   9  10
ENDBRANCH   6   9
ENDBRANCH   2   3
BRANCH   2  20
ATOM     20  N   UNL     1      47.738   6.275  15.048  0.00  0.00    +0.000 N 
ATOM     21  C   UNL     1      48.913   6.714  15.607  0.00  0.00    +0.000 C 
ATOM     22  O   UNL     1      49.821   5.949  15.912  0.00  0.00    +0.000 OA
ATOM     23  H   UNL     1      46.953   6.915  14.971  0.00  0.00    +0.000 HD
BRANCH  21  24
ATOM     24  C   UNL     1      49.056   8.166  15.763  0.00  0.00    +0.000 A 
ATOM     25  C   UNL     1      49.298   8.700  17.021  0.00  0.00    +0.000 A 
ATOM     26  S   UNL     1      49.445  10.399  17.026  0.00  0.00    +0.000 S 
ATOM     27  C   UNL     1      49.138  10.483  15.353  0.00  0.00    +0.000 A 
ATOM     28  N   UNL     1      49.077  11.681  14.714  0.00  0.00    +0.000 NA
ATOM     29  C   UNL     1      48.796  11.599  13.456  0.00  0.00    +0.000 A 
ATOM     30  N   UNL     1      48.583  10.427  12.777  0.00  0.00    +0.000 N 
ATOM     31  C   UNL     1      48.689   9.190  13.371  0.00  0.00    +0.000 A 
ATOM     32  O   UNL     1      48.587   8.157  12.717  0.00  0.00    +0.000 OA
ATOM     33  C   UNL     1      48.963   9.230  14.794  0.00  0.00    +0.000 A 
ATOM     34  H   UNL     1      48.392  10.433  11.786  0.00  0.00    +0.000 HD
ENDBRANCH  21  24
ENDBRANCH   2  20
TORSDOF 6
ENDMDL
MODEL 2
REMARK VINA RESULT:    -7.117      1.602      2.387
REMARK INTER + INTRA:         -10.752
REMARK INTER:                 -10.060
REMARK INTRA:                  -0.692
REMARK UNBOUND:                -1.138
REMARK  Name = 
REMARK  8 active torsions:
REMARK  status: ('A' for Active; 'I' for Inactive)
REMARK    1  A    between atoms: C_1  and  C_2
REMARK    2  A    between atoms: C_2  and  N_3
REMARK    3  A    between atoms: C_2  and  C_16
REMARK    4  A    between atoms: C_4  and  C_6
REMARK    5  A    between atoms: C_19  and  O_20
REMARK    6  A    between atoms: O_20  and  C_21
REMARK    7  A    between atoms: C_21  and  C_22
REMARK    8  A    between atoms: N_27  and  C_28
REMARK                            x       y       z     vdW  Elec       q    Type
REMARK                         _______ _______ _______ _____ _____    ______ ____
ROOT
ATOM      1  C   UNL     1      47.267   4.148  15.879  0.00  0.00    +0.000 C 
ATOM      2  C   UNL     1      47.597   5.041  14.679  0.00  0.00    +0.000 C 
ENDROOT
BRANCH   2   3
ATOM      3  C   UNL     1      46.611   4.939  13.525  0.00  0.00    +0.000 A 
ATOM      4  C   UNL     1      46.107   3.675  13.172  0.00  0.00    +0.000 A 
ATOM      5  C   UNL     1      45.214   3.518  12.107  0.00  0.00    +0.000 A 
ATOM      6  C   UNL     1      44.814   4.627  11.369  0.00  0.00    +0.000 A 
ATOM      7  C   UNL     1      45.333   5.884  11.686  0.00  0.00    +0.000 A 
ATOM      8  C   UNL     1      46.222   6.042  12.754  0.00  0.00    +0.000 A 
BRANCH   6   9
ATOM      9  O   UNL     1      43.990   4.592  10.283  0.00  0.00    +0.000 OA
BRANCH   9  10
ATOM     10  C   UNL     1      44.280   3.611   9.289  0.00  0.00    +0.000 C 
BRANCH  10  11
ATOM     11  C   UNL     1      45.547   4.054   8.551  0.00  0.00    +0.000 C 
ATOM     12  O   UNL     1      45.832   5.254   8.479  0.00  0.00    +0.000 OA
ATOM     13  N   UNL     1      46.345   3.072   7.960  0.00  0.00    +0.000 N 
ATOM     14  C   UNL     1      45.989   1.649   7.980  0.00  0.00    +0.000 C 
ATOM     15  C   UNL     1      47.147   0.719   7.573  0.00  0.00    +0.000 C 
ATOM     16  N   UNL     1      47.844   1.104   6.332  0.00  0.00    +0.000 NA
ATOM     17  C   UNL     1      47.007   0.892   5.152  0.00  0.00    +0.000 C 
ATOM     18  C   UNL     1      48.284   2.508   6.449  0.00  0.00    +0.000 C 
ATOM     19  C   UNL     1      47.181   3.510   6.840  0.00  0.00    +0.000 C 
ENDBRANCH  10  11
ENDBRANCH   9  10
ENDBRANCH   6   9
ENDBRANCH   2   3
BRANCH   2  20
ATOM     20  N   UNL     1      47.717   6.427  15.091  0.00  0.00    +0.000 N 
ATOM     21  C   UNL     1      48.850   6.907  15.699  0.00  0.00    +0.000 C 
ATOM     22  O   UNL     1      49.851   6.218  15.863  0.00  0.00    +0.000 OA
ATOM     23  H   UNL     1      46.860   6.971  15.131  0.00  0.00    +0.000 HD
BRANCH  21  24
ATOM     24  C   UNL     1      48.828   8.321  16.090  0.00  0.00    +0.000 A 
ATOM     25  C   UNL     1      49.324   9.281  15.219  0.00  0.00    +0.000 A 
ATOM     26  S   UNL     1      49.216  10.873  15.823  0.00  0.00    +0.000 S 
ATOM     27  C   UNL     1      48.552  10.326  17.292  0.00  0.00    +0.000 A 
ATOM     28  N   UNL     1      48.260  11.198  18.293  0.00  0.00    +0.000 NA
ATOM     29  C   UNL     1      47.801  10.643  19.365  0.00  0.00    +0.000 A 
ATOM     30  N   UNL     1      47.596   9.297  19.522  0.00  0.00    +0.000 N 
ATOM     31  C   UNL     1      47.825   8.384  18.518  0.00  0.00    +0.000 A 
ATOM     32  O   UNL     1      47.542   7.198  18.656  0.00  0.00    +0.000 OA
ATOM     33  C   UNL     1      48.381   8.954  17.306  0.00  0.00    +0.000 A 
ATOM     34  H   UNL     1      47.210   8.931  20.380  0.00  0.00    +0.000 HD
ENDBRANCH  21  24
ENDBRANCH   2  20
TORSDOF 6
ENDMDL
MODEL 3
REMARK VINA RESULT:    -7.047      2.148      4.104
REMARK INTER + INTRA:         -10.657
REMARK INTER:                 -10.105
REMARK INTRA:                  -0.552
REMARK UNBOUND:                -1.138
REMARK  Name = 
REMARK  8 active torsions:
REMARK  status: ('A' for Active; 'I' for Inactive)
REMARK    1  A    between atoms: C_1  and  C_2
REMARK    2  A    between atoms: C_2  and  N_3
REMARK    3  A    between atoms: C_2  and  C_16
REMARK    4  A    between atoms: C_4  and  C_6
REMARK    5  A    between atoms: C_19  and  O_20
REMARK    6  A    between atoms: O_20  and  C_21
REMARK    7  A    between atoms: C_21  and  C_22
REMARK    8  A    between atoms: N_27  and  C_28
REMARK                            x       y       z     vdW  Elec       q    Type
REMARK                         _______ _______ _______ _____ _____    ______ ____
ROOT
ATOM      1  C   UNL     1      48.049   8.819  12.443  0.00  0.00    +0.000 C 
ATOM      2  C   UNL     1      46.905   8.179  13.234  0.00  0.00    +0.000 C 
ENDROOT
BRANCH   2   3
ATOM      3  C   UNL     1      46.090   7.158  12.454  0.00  0.00    +0.000 A 
ATOM      4  C   UNL     1      46.511   6.798  11.162  0.00  0.00    +0.000 A 
ATOM      5  C   UNL     1      45.791   5.880  10.391  0.00  0.00    +0.000 A 
ATOM      6  C   UNL     1      44.627   5.311  10.898  0.00  0.00    +0.000 A 
ATOM      7  C   UNL     1      44.178   5.686  12.166  0.00  0.00    +0.000 A 
ATOM      8  C   UNL     1      44.901   6.600  12.939  0.00  0.00    +0.000 A 
BRANCH   6   9
ATOM      9  O   UNL     1      43.818   4.446  10.223  0.00  0.00    +0.000 OA
BRANCH   9  10
ATOM     10  C   UNL     1      44.169   4.162   8.870  0.00  0.00    +0.000 C 
BRANCH  10  11
ATOM     11  C   UNL     1      44.681   2.719   8.813  0.00  0.00    +0.000 C 
ATOM     12  O   UNL     1      44.332   1.905   9.673  0.00  0.00    +0.000 OA
ATOM     13  N   UNL     1      45.555   2.369   7.780  0.00  0.00    +0.000 N 
ATOM     14  C   UNL     1      46.031   3.338   6.788  0.00  0.00    +0.000 C 
ATOM     15  C   UNL     1      46.705   2.687   5.566  0.00  0.00    +0.000 C 
ATOM     16  N   UNL     1      47.722   1.670   5.888  0.00  0.00    +0.000 NA
ATOM     17  C   UNL     1      48.923   2.269   6.470  0.00  0.00    +0.000 C 
ATOM     18  C   UNL     1      47.121   0.662   6.784  0.00  0.00    +0.000 C 
ATOM     19  C   UNL     1      46.437   1.230   8.042  0.00  0.00    +0.000 C 
ENDBRANCH  10  11
ENDBRANCH   9  10
ENDBRANCH   6   9
ENDBRANCH   2   3
BRANCH   2  20
ATOM     20  N   UNL     1      47.404   7.570  14.452  0.00  0.00    +0.000 N 
ATOM     21  C   UNL     1      48.553   6.819  14.470  0.00  0.00    +0.000 C 
ATOM     22  O   UNL     1      49.262   6.679  13.480  0.00  0.00    +0.000 OA
ATOM     23  H   UNL     1      46.762   7.519  15.237  0.00  0.00    +0.000 HD
BRANCH  21  24
ATOM     24  C   UNL     1      48.929   6.238  15.764  0.00  0.00    +0.000 A 
ATOM     25  C   UNL     1      49.992   6.777  16.476  0.00  0.00    +0.000 A 
ATOM     26  S   UNL     1      50.290   5.991  17.959  0.00  0.00    +0.000 S 
ATOM     27  C   UNL     1      49.042   4.868  17.675  0.00  0.00    +0.000 A 
ATOM     28  N   UNL     1      48.789   3.867  18.560  0.00  0.00    +0.000 NA
ATOM     29  C   UNL     1      47.843   3.065  18.200  0.00  0.00    +0.000 A 
ATOM     30  N   UNL     1      47.120   3.180  17.041  0.00  0.00    +0.000 N 
ATOM     31  C   UNL     1      47.304   4.208  16.145  0.00  0.00    +0.000 A 
ATOM     32  O   UNL     1      46.578   4.338  15.164  0.00  0.00    +0.000 OA
ATOM     33  C   UNL     1      48.384   5.113  16.484  0.00  0.00    +0.000 A 
ATOM     34  H   UNL     1      46.375   2.531  16.832  0.00  0.00    +0.000 HD
ENDBRANCH  21  24
ENDBRANCH   2  20
TORSDOF 6
ENDMDL
MODEL 4
REMARK VINA RESULT:    -6.798      5.025      7.703
REMARK INTER + INTRA:         -10.321
REMARK INTER:                  -9.145
REMARK INTRA:                  -1.176
REMARK UNBOUND:                -1.138
REMARK  Name = 
REMARK  8 active torsions:
REMARK  status: ('A' for Active; 'I' for Inactive)
REMARK    1  A    between atoms: C_1  and  C_2
REMARK    2  A    between atoms: C_2  and  N_3
REMARK    3  A    between atoms: C_2  and  C_16
REMARK    4  A    between atoms: C_4  and  C_6
REMARK    5  A    between atoms: C_19  and  O_20
REMARK    6  A    between atoms: O_20  and  C_21
REMARK    7  A    between atoms: C_21  and  C_22
REMARK    8  A    between atoms: N_27  and  C_28
REMARK                            x       y       z     vdW  Elec       q    Type
REMARK                         _______ _______ _______ _____ _____    ______ ____
ROOT
ATOM      1  C   UNL     1      44.191   4.303  13.222  0.00  0.00    +0.000 C 
ATOM      2  C   UNL     1      45.471   5.132  13.074  0.00  0.00    +0.000 C 
ENDROOT
BRANCH   2   3
ATOM      3  C   UNL     1      45.252   6.545  12.554  0.00  0.00    +0.000 A 
ATOM      4  C   UNL     1      44.279   6.760  11.562  0.00  0.00    +0.000 A 
ATOM      5  C   UNL     1      44.049   8.034  11.032  0.00  0.00    +0.000 A 
ATOM      6  C   UNL     1      44.797   9.117  11.481  0.00  0.00    +0.000 A 
ATOM      7  C   UNL     1      45.791   8.912  12.440  0.00  0.00    +0.000 A 
ATOM      8  C   UNL     1      46.018   7.639  12.974  0.00  0.00    +0.000 A 
BRANCH   6   9
ATOM      9  O   UNL     1      44.697  10.391  11.006  0.00  0.00    +0.000 OA
BRANCH   9  10
ATOM     10  C   UNL     1      43.488  10.730  10.328  0.00  0.00    +0.000 C 
BRANCH  10  11
ATOM     11  C   UNL     1      42.722  11.723  11.207  0.00  0.00    +0.000 C 
ATOM     12  O   UNL     1      43.334  12.452  11.993  0.00  0.00    +0.000 OA
ATOM     13  N   UNL     1      41.329  11.761  11.100  0.00  0.00    +0.000 N 
ATOM     14  C   UNL     1      40.580  10.859  10.220  0.00  0.00    +0.000 C 
ATOM     15  C   UNL     1      39.116  11.283  10.004  0.00  0.00    +0.000 C 
ATOM     16  N   UNL     1      38.375  11.603  11.238  0.00  0.00    +0.000 NA
ATOM     17  C   UNL     1      38.111  10.407  12.037  0.00  0.00    +0.000 C 
ATOM     18  C   UNL     1      39.134  12.616  11.999  0.00  0.00    +0.000 C 
ATOM     19  C   UNL     1      40.608  12.262  12.273  0.00  0.00    +0.000 C 
ENDBRANCH  10  11
ENDBRANCH   9  10
ENDBRANCH   6   9
ENDBRANCH   2   3
BRANCH   2  20
ATOM     20  N   UNL     1      46.193   5.186  14.331  0.00  0.00    +0.000 N 
ATOM     21  C   UNL     1      47.028   4.173  14.731  0.00  0.00    +0.000 C 
ATOM     22  O   UNL     1      47.270   3.202  14.023  0.00  0.00    +0.000 OA
ATOM     23  H   UNL     1      45.887   5.878  15.008  0.00  0.00    +0.000 HD
BRANCH  21  24
ATOM     24  C   UNL     1      47.676   4.342  16.037  0.00  0.00    +0.000 A 
ATOM     25  C   UNL     1      47.384   3.460  17.068  0.00  0.00    +0.000 A 
ATOM     26  S   UNL     1      48.226   3.794  18.513  0.00  0.00    +0.000 S 
ATOM     27  C   UNL     1      48.970   5.162  17.825  0.00  0.00    +0.000 A 
ATOM     28  N   UNL     1      49.803   5.947  18.559  0.00  0.00    +0.000 NA
ATOM     29  C   UNL     1      50.264   6.972  17.924  0.00  0.00    +0.000 A 
ATOM     30  N   UNL     1      49.978   7.278  16.619  0.00  0.00    +0.000 N 
ATOM     31  C   UNL     1      49.186   6.483  15.822  0.00  0.00    +0.000 A 
ATOM     32  O   UNL     1      49.025   6.730  14.631  0.00  0.00    +0.000 OA
ATOM     33  C   UNL     1      48.610   5.339  16.501  0.00  0.00    +0.000 A 
ATOM     34  H   UNL     1      50.394   8.084  16.175  0.00  0.00    +0.000 HD
ENDBRANCH  21  24
ENDBRANCH   2  20
TORSDOF 6
ENDMDL
MODEL 5
REMARK VINA RESULT:    -6.764      4.083     10.155
REMARK INTER + INTRA:         -10.274
REMARK INTER:                  -8.823
REMARK INTRA:                  -1.452
REMARK UNBOUND:                -1.138
REMARK  Name = 
REMARK  8 active torsions:
REMARK  status: ('A' for Active; 'I' for Inactive)
REMARK    1  A    between atoms: C_1  and  C_2
REMARK    2  A    between atoms: C_2  and  N_3
REMARK    3  A    between atoms: C_2  and  C_16
REMARK    4  A    between atoms: C_4  and  C_6
REMARK    5  A    between atoms: C_19  and  O_20
REMARK    6  A    between atoms: O_20  and  C_21
REMARK    7  A    between atoms: C_21  and  C_22
REMARK    8  A    between atoms: N_27  and  C_28
REMARK                            x       y       z     vdW  Elec       q    Type
REMARK                         _______ _______ _______ _____ _____    ______ ____
ROOT
ATOM      1  C   UNL     1      48.331   8.877  14.599  0.00  0.00    +0.000 C 
ATOM      2  C   UNL     1      48.445   7.371  14.346  0.00  0.00    +0.000 C 
ENDROOT
BRANCH   2   3
ATOM      3  C   UNL     1      48.863   6.556  15.561  0.00  0.00    +0.000 A 
ATOM      4  C   UNL     1      50.096   6.837  16.176  0.00  0.00    +0.000 A 
ATOM      5  C   UNL     1      50.541   6.107  17.283  0.00  0.00    +0.000 A 
ATOM      6  C   UNL     1      49.761   5.075  17.791  0.00  0.00    +0.000 A 
ATOM      7  C   UNL     1      48.551   4.762  17.170  0.00  0.00    +0.000 A 
ATOM      8  C   UNL     1      48.103   5.494  16.066  0.00  0.00    +0.000 A 
BRANCH   6   9
ATOM      9  O   UNL     1      50.111   4.265  18.831  0.00  0.00    +0.000 OA
BRANCH   9  10
ATOM     10  C   UNL     1      50.505   4.909  20.041  0.00  0.00    +0.000 C 
BRANCH  10  11
ATOM     11  C   UNL     1      49.240   5.185  20.858  0.00  0.00    +0.000 C 
ATOM     12  O   UNL     1      48.556   4.245  21.274  0.00  0.00    +0.000 OA
ATOM     13  N   UNL     1      48.886   6.516  21.098  0.00  0.00    +0.000 N 
ATOM     14  C   UNL     1      49.650   7.645  20.558  0.00  0.00    +0.000 C 
ATOM     15  C   UNL     1      49.293   8.996  21.205  0.00  0.00    +0.000 C 
ATOM     16  N   UNL     1      47.848   9.283  21.283  0.00  0.00    +0.000 NA
ATOM     17  C   UNL     1      47.277   9.548  19.963  0.00  0.00    +0.000 C 
ATOM     18  C   UNL     1      47.175   8.156  21.958  0.00  0.00    +0.000 C 
ATOM     19  C   UNL     1      47.467   6.766  21.362  0.00  0.00    +0.000 C 
ENDBRANCH  10  11
ENDBRANCH   9  10
ENDBRANCH   6   9
ENDBRANCH   2   3
BRANCH   2  20
ATOM     20  N   UNL     1      47.202   6.846  13.816  0.00  0.00    +0.000 N 
ATOM     21  C   UNL     1      46.937   6.830  12.469  0.00  0.00    +0.000 C 
ATOM     22  O   UNL     1      47.758   7.189  11.634  0.00  0.00    +0.000 OA
ATOM     23  H   UNL     1      46.443   6.707  14.476  0.00  0.00    +0.000 HD
BRANCH  21  24
ATOM     24  C   UNL     1      45.629   6.297  12.071  0.00  0.00    +0.000 A 
ATOM     25  C   UNL     1      44.679   7.147  11.523  0.00  0.00    +0.000 A 
ATOM     26  S   UNL     1      43.221   6.366  11.109  0.00  0.00    +0.000 S 
ATOM     27  C   UNL     1      43.791   4.874  11.697  0.00  0.00    +0.000 A 
ATOM     28  N   UNL     1      43.000   3.768  11.682  0.00  0.00    +0.000 NA
ATOM     29  C   UNL     1      43.545   2.717  12.196  0.00  0.00    +0.000 A 
ATOM     30  N   UNL     1      44.813   2.667  12.713  0.00  0.00    +0.000 N 
ATOM     31  C   UNL     1      45.669   3.745  12.699  0.00  0.00    +0.000 A 
ATOM     32  O   UNL     1      46.830   3.644  13.081  0.00  0.00    +0.000 OA
ATOM     33  C   UNL     1      45.088   4.963  12.169  0.00  0.00    +0.000 A 
ATOM     34  H   UNL     1      45.188   1.803  13.078  0.00  0.00    +0.000 HD
ENDBRANCH  21  24
ENDBRANCH   2  20
TORSDOF 6
ENDMDL
MODEL 6
REMARK VINA RESULT:    -6.604      3.664      5.948
REMARK INTER + INTRA:         -10.059
REMARK INTER:                  -9.102
REMARK INTRA:                  -0.957
REMARK UNBOUND:                -1.138
REMARK  Name = 
REMARK  8 active torsions:
REMARK  status: ('A' for Active; 'I' for Inactive)
REMARK    1  A    between atoms: C_1  and  C_2
REMARK    2  A    between atoms: C_2  and  N_3
REMARK    3  A    between atoms: C_2  and  C_16
REMARK    4  A    between atoms: C_4  and  C_6
REMARK    5  A    between atoms: C_19  and  O_20
REMARK    6  A    between atoms: O_20  and  C_21
REMARK    7  A    between atoms: C_21  and  C_22
REMARK    8  A    between atoms: N_27  and  C_28
REMARK                            x       y       z     vdW  Elec       q    Type
REMARK                         _______ _______ _______ _____ _____    ______ ____
ROOT
ATOM      1  C   UNL     1      51.789   8.874  15.300  0.00  0.00    +0.000 C 
ATOM      2  C   UNL     1      50.778   7.800  15.712  0.00  0.00    +0.000 C 
ENDROOT
BRANCH   2   3
ATOM      3  C   UNL     1      49.775   7.428  14.630  0.00  0.00    +0.000 A 
ATOM      4  C   UNL     1      48.646   6.667  14.983  0.00  0.00    +0.000 A 
ATOM      5  C   UNL     1      47.702   6.279  14.027  0.00  0.00    +0.000 A 
ATOM      6  C   UNL     1      47.875   6.639  12.695  0.00  0.00    +0.000 A 
ATOM      7  C   UNL     1      49.009   7.365  12.324  0.00  0.00    +0.000 A 
ATOM      8  C   UNL     1      49.951   7.758  13.281  0.00  0.00    +0.000 A 
BRANCH   6   9
ATOM      9  O   UNL     1      47.051   6.279  11.670  0.00  0.00    +0.000 OA
BRANCH   9  10
ATOM     10  C   UNL     1      45.652   6.456  11.881  0.00  0.00    +0.000 C 
BRANCH  10  11
ATOM     11  C   UNL     1      45.012   5.068  11.964  0.00  0.00    +0.000 C 
ATOM     12  O   UNL     1      44.673   4.608  13.059  0.00  0.00    +0.000 OA
ATOM     13  N   UNL     1      44.842   4.346  10.779  0.00  0.00    +0.000 N 
ATOM     14  C   UNL     1      45.295   4.848   9.478  0.00  0.00    +0.000 C 
ATOM     15  C   UNL     1      44.723   4.066   8.282  0.00  0.00    +0.000 C 
ATOM     16  N   UNL     1      44.840   2.599   8.388  0.00  0.00    +0.000 NA
ATOM     17  C   UNL     1      46.227   2.156   8.259  0.00  0.00    +0.000 C 
ATOM     18  C   UNL     1      44.241   2.165   9.666  0.00  0.00    +0.000 C 
ATOM     19  C   UNL     1      44.770   2.890  10.917  0.00  0.00    +0.000 C 
ENDBRANCH  10  11
ENDBRANCH   9  10
ENDBRANCH   6   9
ENDBRANCH   2   3
BRANCH   2  20
ATOM     20  N   UNL     1      51.459   6.605  16.171  0.00  0.00    +0.000 N 
ATOM     21  C   UNL     1      51.376   6.177  17.473  0.00  0.00    +0.000 C 
ATOM     22  O   UNL     1      50.666   6.733  18.303  0.00  0.00    +0.000 OA
ATOM     23  H   UNL     1      52.183   6.228  15.567  0.00  0.00    +0.000 HD
BRANCH  21  24
ATOM     24  C   UNL     1      52.137   4.969  17.809  0.00  0.00    +0.000 A 
ATOM     25  C   UNL     1      53.436   5.086  18.283  0.00  0.00    +0.000 A 
ATOM     26  S   UNL     1      54.174   3.589  18.633  0.00  0.00    +0.000 S 
ATOM     27  C   UNL     1      52.799   2.730  18.112  0.00  0.00    +0.000 A 
ATOM     28  N   UNL     1      52.785   1.370  18.109  0.00  0.00    +0.000 NA
ATOM     29  C   UNL     1      51.695   0.851  17.651  0.00  0.00    +0.000 A 
ATOM     30  N   UNL     1      50.614   1.567  17.207  0.00  0.00    +0.000 N 
ATOM     31  C   UNL     1      50.562   2.942  17.245  0.00  0.00    +0.000 A 
ATOM     32  O   UNL     1      49.545   3.552  16.930  0.00  0.00    +0.000 OA
ATOM     33  C   UNL     1      51.779   3.575  17.713  0.00  0.00    +0.000 A 
ATOM     34  H   UNL     1      49.781   1.097  16.885  0.00  0.00    +0.000 HD
ENDBRANCH  21  24
ENDBRANCH   2  20
TORSDOF 6
ENDMDL
MODEL 7
REMARK VINA RESULT:    -6.587      5.394      8.077
REMARK INTER + INTRA:         -10.036
REMARK INTER:                  -8.922
REMARK INTRA:                  -1.114
REMARK UNBOUND:                -1.138
REMARK  Name = 
REMARK  8 active torsions:
REMARK  status: ('A' for Active; 'I' for Inactive)
REMARK    1  A    between atoms: C_1  and  C_2
REMARK    2  A    between atoms: C_2  and  N_3
REMARK    3  A    between atoms: C_2  and  C_16
REMARK    4  A    between atoms: C_4  and  C_6
REMARK    5  A    between atoms: C_19  and  O_20
REMARK    6  A    between atoms: O_20  and  C_21
REMARK    7  A    between atoms: C_21  and  C_22
REMARK    8  A    between atoms: N_27  and  C_28
REMARK                            x       y       z     vdW  Elec       q    Type
REMARK                         _______ _______ _______ _____ _____    ______ ____
ROOT
ATOM      1  C   UNL     1      45.157   4.611  12.718  0.00  0.00    +0.000 C 
ATOM      2  C   UNL     1      46.081   5.832  12.702  0.00  0.00    +0.000 C 
ENDROOT
BRANCH   2   3
ATOM      3  C   UNL     1      45.414   7.124  12.255  0.00  0.00    +0.000 A 
ATOM      4  C   UNL     1      45.854   8.341  12.805  0.00  0.00    +0.000 A 
ATOM      5  C   UNL     1      45.264   9.558  12.446  0.00  0.00    +0.000 A 
ATOM      6  C   UNL     1      44.214   9.576  11.534  0.00  0.00    +0.000 A 
ATOM      7  C   UNL     1      43.744   8.372  11.007  0.00  0.00    +0.000 A 
ATOM      8  C   UNL     1      44.337   7.156  11.361  0.00  0.00    +0.000 A 
BRANCH   6   9
ATOM      9  O   UNL     1      43.531  10.691  11.146  0.00  0.00    +0.000 OA
BRANCH   9  10
ATOM     10  C   UNL     1      42.179  10.502  10.731  0.00  0.00    +0.000 C 
BRANCH  10  11
ATOM     11  C   UNL     1      41.277  11.228  11.733  0.00  0.00    +0.000 C 
ATOM     12  O   UNL     1      41.767  11.758  12.735  0.00  0.00    +0.000 OA
ATOM     13  N   UNL     1      39.902  11.256  11.484  0.00  0.00    +0.000 N 
ATOM     14  C   UNL     1      39.295  10.578  10.334  0.00  0.00    +0.000 C 
ATOM     15  C   UNL     1      37.840  11.004  10.065  0.00  0.00    +0.000 C 
ATOM     16  N   UNL     1      36.962  10.992  11.250  0.00  0.00    +0.000 NA
ATOM     17  C   UNL     1      36.680   9.630  11.701  0.00  0.00    +0.000 C 
ATOM     18  C   UNL     1      37.585  11.806  12.312  0.00  0.00    +0.000 C 
ATOM     19  C   UNL     1      39.040  11.434  12.654  0.00  0.00    +0.000 C 
ENDBRANCH  10  11
ENDBRANCH   9  10
ENDBRANCH   6   9
ENDBRANCH   2   3
BRANCH   2  20
ATOM     20  N   UNL     1      46.692   6.028  14.003  0.00  0.00    +0.000 N 
ATOM     21  C   UNL     1      48.053   6.103  14.161  0.00  0.00    +0.000 C 
ATOM     22  O   UNL     1      48.828   6.082  13.211  0.00  0.00    +0.000 OA
ATOM     23  H   UNL     1      46.102   5.875  14.816  0.00  0.00    +0.000 HD
BRANCH  21  24
ATOM     24  C   UNL     1      48.539   6.275  15.535  0.00  0.00    +0.000 A 
ATOM     25  C   UNL     1      49.347   7.360  15.846  0.00  0.00    +0.000 A 
ATOM     26  S   UNL     1      49.816   7.415  17.486  0.00  0.00    +0.000 S 
ATOM     27  C   UNL     1      48.997   5.961  17.823  0.00  0.00    +0.000 A 
ATOM     28  N   UNL     1      49.035   5.411  19.066  0.00  0.00    +0.000 NA
ATOM     29  C   UNL     1      48.405   4.288  19.170  0.00  0.00    +0.000 A 
ATOM     30  N   UNL     1      47.732   3.672  18.148  0.00  0.00    +0.000 N 
ATOM     31  C   UNL     1      47.620   4.219  16.890  0.00  0.00    +0.000 A 
ATOM     32  O   UNL     1      46.931   3.691  16.023  0.00  0.00    +0.000 OA
ATOM     33  C   UNL     1      48.345   5.461  16.710  0.00  0.00    +0.000 A 
ATOM     34  H   UNL     1      47.238   2.805  18.304  0.00  0.00    +0.000 HD
ENDBRANCH  21  24
ENDBRANCH   2  20
TORSDOF 6
ENDMDL
MODEL 8
REMARK VINA RESULT:    -6.379      4.388      9.523
REMARK INTER + INTRA:          -9.754
REMARK INTER:                  -9.333
REMARK INTRA:                  -0.422
REMARK UNBOUND:                -1.138
REMARK  Name = 
REMARK  8 active torsions:
REMARK  status: ('A' for Active; 'I' for Inactive)
REMARK    1  A    between atoms: C_1  and  C_2
REMARK    2  A    between atoms: C_2  and  N_3
REMARK    3  A    between atoms: C_2  and  C_16
REMARK    4  A    between atoms: C_4  and  C_6
REMARK    5  A    between atoms: C_19  and  O_20
REMARK    6  A    between atoms: O_20  and  C_21
REMARK    7  A    between atoms: C_21  and  C_22
REMARK    8  A    between atoms: N_27  and  C_28
REMARK                            x       y       z     vdW  Elec       q    Type
REMARK                         _______ _______ _______ _____ _____    ______ ____
ROOT
ATOM      1  C   UNL     1      48.551   2.736  16.277  0.00  0.00    +0.000 C 
ATOM      2  C   UNL     1      47.381   3.554  16.832  0.00  0.00    +0.000 C 
ENDROOT
BRANCH   2   3
ATOM      3  C   UNL     1      47.686   4.298  18.123  0.00  0.00    +0.000 A 
ATOM      4  C   UNL     1      46.887   5.400  18.477  0.00  0.00    +0.000 A 
ATOM      5  C   UNL     1      47.134   6.134  19.642  0.00  0.00    +0.000 A 
ATOM      6  C   UNL     1      48.192   5.782  20.471  0.00  0.00    +0.000 A 
ATOM      7  C   UNL     1      49.015   4.712  20.115  0.00  0.00    +0.000 A 
ATOM      8  C   UNL     1      48.766   3.974  18.953  0.00  0.00    +0.000 A 
BRANCH   6   9
ATOM      9  O   UNL     1      48.559   6.450  21.603  0.00  0.00    +0.000 OA
BRANCH   9  10
ATOM     10  C   UNL     1      49.446   7.554  21.436  0.00  0.00    +0.000 C 
BRANCH  10  11
ATOM     11  C   UNL     1      48.613   8.759  20.989  0.00  0.00    +0.000 C 
ATOM     12  O   UNL     1      47.755   9.231  21.742  0.00  0.00    +0.000 OA
ATOM     13  N   UNL     1      48.844   9.286  19.716  0.00  0.00    +0.000 N 
ATOM     14  C   UNL     1      49.813   8.700  18.784  0.00  0.00    +0.000 C 
ATOM     15  C   UNL     1      50.149   9.613  17.590  0.00  0.00    +0.000 C 
ATOM     16  N   UNL     1      48.978  10.181  16.896  0.00  0.00    +0.000 NA
ATOM     17  C   UNL     1      48.240   9.161  16.154  0.00  0.00    +0.000 C 
ATOM     18  C   UNL     1      48.124  10.866  17.887  0.00  0.00    +0.000 C 
ATOM     19  C   UNL     1      47.728  10.016  19.109  0.00  0.00    +0.000 C 
ENDBRANCH  10  11
ENDBRANCH   9  10
ENDBRANCH   6   9
ENDBRANCH   2   3
BRANCH   2  20
ATOM     20  N   UNL     1      46.893   4.490  15.838  0.00  0.00    +0.000 N 
ATOM     21  C   UNL     1      46.866   4.179  14.501  0.00  0.00    +0.000 C 
ATOM     22  O   UNL     1      47.181   3.073  14.076  0.00  0.00    +0.000 OA
ATOM     23  H   UNL     1      46.793   5.458  16.128  0.00  0.00    +0.000 HD
BRANCH  21  24
ATOM     24  C   UNL     1      46.375   5.229  13.600  0.00  0.00    +0.000 A 
ATOM     25  C   UNL     1      47.158   6.350  13.361  0.00  0.00    +0.000 A 
ATOM     26  S   UNL     1      46.444   7.465  12.287  0.00  0.00    +0.000 S 
ATOM     27  C   UNL     1      45.040   6.513  12.147  0.00  0.00    +0.000 A 
ATOM     28  N   UNL     1      43.989   6.926  11.391  0.00  0.00    +0.000 NA
ATOM     29  C   UNL     1      42.975   6.126  11.407  0.00  0.00    +0.000 A 
ATOM     30  N   UNL     1      42.922   4.945  12.101  0.00  0.00    +0.000 N 
ATOM     31  C   UNL     1      43.982   4.460  12.832  0.00  0.00    +0.000 A 
ATOM     32  O   UNL     1      43.940   3.355  13.364  0.00  0.00    +0.000 OA
ATOM     33  C   UNL     1      45.131   5.343  12.879  0.00  0.00    +0.000 A 
ATOM     34  H   UNL     1      42.106   4.353  12.049  0.00  0.00    +0.000 HD
ENDBRANCH  21  24
ENDBRANCH   2  20
TORSDOF 6
ENDMDL
MODEL 9
REMARK VINA RESULT:    -6.325      4.781      7.443
REMARK INTER + INTRA:          -9.682
REMARK INTER:                  -8.572
REMARK INTRA:                  -1.110
REMARK UNBOUND:                -1.138
REMARK  Name = 
REMARK  8 active torsions:
REMARK  status: ('A' for Active; 'I' for Inactive)
REMARK    1  A    between atoms: C_1  and  C_2
REMARK    2  A    between atoms: C_2  and  N_3
REMARK    3  A    between atoms: C_2  and  C_16
REMARK    4  A    between atoms: C_4  and  C_6
REMARK    5  A    between atoms: C_19  and  O_20
REMARK    6  A    between atoms: O_20  and  C_21
REMARK    7  A    between atoms: C_21  and  C_22
REMARK    8  A    between atoms: N_27  and  C_28
REMARK                            x       y       z     vdW  Elec       q    Type
REMARK                         _______ _______ _______ _____ _____    ______ ____
ROOT
ATOM      1  C   UNL     1      44.834   4.866  13.172  0.00  0.00    +0.000 C 
ATOM      2  C   UNL     1      46.253   5.442  13.199  0.00  0.00    +0.000 C 
ENDROOT
BRANCH   2   3
ATOM      3  C   UNL     1      46.360   6.882  12.718  0.00  0.00    +0.000 A 
ATOM      4  C   UNL     1      47.626   7.393  12.381  0.00  0.00    +0.000 A 
ATOM      5  C   UNL     1      47.787   8.715  11.952  0.00  0.00    +0.000 A 
ATOM      6  C   UNL     1      46.682   9.553  11.862  0.00  0.00    +0.000 A 
ATOM      7  C   UNL     1      45.424   9.070  12.227  0.00  0.00    +0.000 A 
ATOM      8  C   UNL     1      45.261   7.747  12.650  0.00  0.00    +0.000 A 
BRANCH   6   9
ATOM      9  O   UNL     1      46.721  10.869  11.505  0.00  0.00    +0.000 OA
BRANCH   9  10
ATOM     10  C   UNL     1      45.567  11.650  11.809  0.00  0.00    +0.000 C 
BRANCH  10  11
ATOM     11  C   UNL     1      45.021  12.209  10.492  0.00  0.00    +0.000 C 
ATOM     12  O   UNL     1      45.750  12.881   9.756  0.00  0.00    +0.000 OA
ATOM     13  N   UNL     1      43.686  11.949  10.167  0.00  0.00    +0.000 N 
ATOM     14  C   UNL     1      42.788  11.209  11.059  0.00  0.00    +0.000 C 
ATOM     15  C   UNL     1      41.484  10.753  10.378  0.00  0.00    +0.000 C 
ATOM     16  N   UNL     1      40.780  11.804   9.621  0.00  0.00    +0.000 NA
ATOM     17  C   UNL     1      40.191  12.808  10.506  0.00  0.00    +0.000 C 
ATOM     18  C   UNL     1      41.721  12.406   8.656  0.00  0.00    +0.000 C 
ATOM     19  C   UNL     1      43.048  12.904   9.258  0.00  0.00    +0.000 C 
ENDBRANCH  10  11
ENDBRANCH   9  10
ENDBRANCH   6   9
ENDBRANCH   2   3
BRANCH   2  20
ATOM     20  N   UNL     1      46.824   5.333  14.527  0.00  0.00    +0.000 N 
ATOM     21  C   UNL     1      47.324   4.147  15.006  0.00  0.00    +0.000 C 
ATOM     22  O   UNL     1      47.385   3.134  14.319  0.00  0.00    +0.000 OA
ATOM     23  H   UNL     1      46.633   6.091  15.175  0.00  0.00    +0.000 HD
BRANCH  21  24
ATOM     24  C   UNL     1      47.847   4.169  16.377  0.00  0.00    +0.000 A 
ATOM     25  C   UNL     1      47.407   3.226  17.295  0.00  0.00    +0.000 A 
ATOM     26  S   UNL     1      48.119   3.388  18.836  0.00  0.00    +0.000 S 
ATOM     27  C   UNL     1      49.001   4.758  18.343  0.00  0.00    +0.000 A 
ATOM     28  N   UNL     1      49.798   5.427  19.218  0.00  0.00    +0.000 NA
ATOM     29  C   UNL     1      50.375   6.470  18.721  0.00  0.00    +0.000 A 
ATOM     30  N   UNL     1      50.236   6.898  17.426  0.00  0.00    +0.000 N 
ATOM     31  C   UNL     1      49.486   6.222  16.492  0.00  0.00    +0.000 A 
ATOM     32  O   UNL     1      49.457   6.574  15.318  0.00  0.00    +0.000 OA
ATOM     33  C   UNL     1      48.783   5.065  17.012  0.00  0.00    +0.000 A 
ATOM     34  H   UNL     1      50.737   7.710  17.095  0.00  0.00    +0.000 HD
ENDBRANCH  21  24
ENDBRANCH   2  20
TORSDOF 6
ENDMDL
