MODEL 1
REMARK VINA RESULT:    -7.329      0.000      0.000
REMARK INTER + INTRA:         -10.092
REMARK INTER:                  -9.471
REMARK INTRA:                  -0.620
REMARK UNBOUND:                -0.620
REMARK  Name = 
REMARK  5 active torsions:
REMARK  status: ('A' for Active; 'I' for Inactive)
REMARK    1  A    between atoms: C_2  and  C_4
REMARK    2  A    between atoms: C_6  and  S_7
REMARK    3  A    between atoms: S_7  and  C_8
REMARK    4  A    between atoms: C_8  and  C_9
REMARK    5  A    between atoms: C_13  and  N_14
REMARK                            x       y       z     vdW  Elec       q    Type
REMARK                         _______ _______ _______ _____ _____    ______ ____
ROOT
ATOM      1  S   UNL     1      43.583   2.510  11.179  0.00  0.00    +0.000 S 
ENDROOT
BRANCH   1   4
ATOM      2  C   UNL     1      46.164   2.181   8.095  0.00  0.00    +0.000 A 
ATOM      3  C   UNL     1      45.379   1.963   9.236  0.00  0.00    +0.000 A 
ATOM      4  C   UNL     1      44.584   2.982   9.783  0.00  0.00    +0.000 A 
ATOM      5  C   UNL     1      44.603   4.244   9.185  0.00  0.00    +0.000 A 
ATOM      6  C   UNL     1      45.385   4.473   8.048  0.00  0.00    +0.000 A 
ATOM      7  C   UNL     1      46.153   3.444   7.508  0.00  0.00    +0.000 A 
ATOM      8  F   UNL     1      46.871   3.706   6.404  0.00  0.00    +0.000 F 
BRANCH   2  10
ATOM      9  N   UNL     1      48.097   1.317   6.866  0.00  0.00    +0.000 N 
ATOM     10  C   UNL     1      46.961   1.043   7.569  0.00  0.00    +0.000 C 
ATOM     11  O   UNL     1      46.614  -0.119   7.753  0.00  0.00    +0.000 OA
ATOM     12  H   UNL     1      48.630   0.541   6.509  0.00  0.00    +0.000 HD
ATOM     13  H   UNL     1      48.423   2.259   6.687  0.00  0.00    +0.000 HD
ENDBRANCH   2  10
ENDBRANCH   1   4
BRANCH   1  14
ATOM     14  C   UNL     1      43.440   4.024  12.190  0.00  0.00    +0.000 C 
BRANCH  14  15
ATOM     15  C   UNL     1      44.769   4.523  12.723  0.00  0.00    +0.000 A 
ATOM     16  C   UNL     1      45.789   3.654  13.127  0.00  0.00    +0.000 A 
ATOM     17  C   UNL     1      47.000   4.154  13.584  0.00  0.00    +0.000 A 
ATOM     18  C   UNL     1      47.228   5.531  13.600  0.00  0.00    +0.000 A 
ATOM     19  C   UNL     1      46.259   6.447  13.167  0.00  0.00    +0.000 A 
ATOM     20  C   UNL     1      45.031   5.909  12.739  0.00  0.00    +0.000 A 
BRANCH  19  21
ATOM     21  N   UNL     1      46.511   7.800  13.138  0.00  0.00    +0.000 N 
ATOM     22  C   UNL     1      45.457   8.807  12.954  0.00  0.00    +0.000 C 
ATOM     23  C   UNL     1      45.867   9.783  11.833  0.00  0.00    +0.000 C 
ATOM     24  O   UNL     1      47.160  10.368  12.069  0.00  0.00    +0.000 OA
ATOM     25  C   UNL     1      48.161   9.338  12.165  0.00  0.00    +0.000 C 
ATOM     26  C   UNL     1      47.855   8.373  13.318  0.00  0.00    +0.000 C 
ENDBRANCH  19  21
ENDBRANCH  14  15
ENDBRANCH   1  14
TORSDOF 5
ENDMDL
MODEL 2
REMARK VINA RESULT:    -7.043      3.749      7.297
REMARK INTER + INTRA:          -9.722
REMARK INTER:                  -8.963
REMARK INTRA:                  -0.759
REMARK UNBOUND:                -0.620
REMARK  Name = 
REMARK  5 active torsions:
REMARK  status: ('A' for Active; 'I' for Inactive)
REMARK    1  A    between atoms: C_2  and  C_4
REMARK    2  A    between atoms: C_6  and  S_7
REMARK    3  A    between atoms: S_7  and  C_8
REMARK    4  A    between atoms: C_8  and  C_9
REMARK    5  A    between atoms: C_13  and  N_14
REMARK                            x       y       z     vdW  Elec       q    Type
REMARK                         _______ _______ _______ _____ _____    ______ ____
ROOT
ATOM      1  S   UNL     1      46.962   7.075  12.191  0.00  0.00    +0.000 S 
ENDROOT
BRANCH   1   4
ATOM      2  C   UNL     1      47.835   5.109  15.604  0.00  0.00    +0.000 A 
ATOM      3  C   UNL     1      47.297   5.525  14.378  0.00  0.00    +0.000 A 
ATOM      4  C   UNL     1      47.673   6.743  13.790  0.00  0.00    +0.000 A 
ATOM      5  C   UNL     1      48.581   7.563  14.464  0.00  0.00    +0.000 A 
ATOM      6  C   UNL     1      49.121   7.158  15.689  0.00  0.00    +0.000 A 
ATOM      7  C   UNL     1      48.751   5.937  16.247  0.00  0.00    +0.000 A 
ATOM      8  F   UNL     1      49.311   5.583  17.415  0.00  0.00    +0.000 F 
BRANCH   2  10
ATOM      9  N   UNL     1      47.903   2.661  15.583  0.00  0.00    +0.000 N 
ATOM     10  C   UNL     1      47.398   3.796  16.147  0.00  0.00    +0.000 C 
ATOM     11  O   UNL     1      46.601   3.722  17.076  0.00  0.00    +0.000 OA
ATOM     12  H   UNL     1      47.599   1.776  15.952  0.00  0.00    +0.000 HD
ATOM     13  H   UNL     1      48.562   2.672  14.813  0.00  0.00    +0.000 HD
ENDBRANCH   2  10
ENDBRANCH   1   4
BRANCH   1  14
ATOM     14  C   UNL     1      45.169   6.807  12.407  0.00  0.00    +0.000 C 
BRANCH  14  15
ATOM     15  C   UNL     1      44.718   5.409  12.034  0.00  0.00    +0.000 A 
ATOM     16  C   UNL     1      43.883   4.644  12.857  0.00  0.00    +0.000 A 
ATOM     17  C   UNL     1      43.473   3.378  12.463  0.00  0.00    +0.000 A 
ATOM     18  C   UNL     1      43.852   2.876  11.218  0.00  0.00    +0.000 A 
ATOM     19  C   UNL     1      44.651   3.613  10.333  0.00  0.00    +0.000 A 
ATOM     20  C   UNL     1      45.076   4.880  10.776  0.00  0.00    +0.000 A 
BRANCH  19  21
ATOM     21  N   UNL     1      44.978   3.129   9.086  0.00  0.00    +0.000 N 
ATOM     22  C   UNL     1      45.059   1.694   8.779  0.00  0.00    +0.000 C 
ATOM     23  C   UNL     1      46.398   1.393   8.079  0.00  0.00    +0.000 C 
ATOM     24  O   UNL     1      46.605   2.221   6.922  0.00  0.00    +0.000 OA
ATOM     25  C   UNL     1      46.590   3.611   7.296  0.00  0.00    +0.000 C 
ATOM     26  C   UNL     1      45.247   4.000   7.931  0.00  0.00    +0.000 C 
ENDBRANCH  19  21
ENDBRANCH  14  15
ENDBRANCH   1  14
TORSDOF 5
ENDMDL
MODEL 3
REMARK VINA RESULT:    -7.023      1.591      2.284
REMARK INTER + INTRA:          -9.696
REMARK INTER:                  -9.258
REMARK INTRA:                  -0.439
REMARK UNBOUND:                -0.620
REMARK  Name = 
REMARK  5 active torsions:
REMARK  status: ('A' for Active; 'I' for Inactive)
REMARK    1  A    between atoms: C_2  and  C_4
REMARK    2  A    between atoms: C_6  and  S_7
REMARK    3  A    between atoms: S_7  and  C_8
REMARK    4  A    between atoms: C_8  and  C_9
REMARK    5  A    between atoms: C_13  and  N_14
REMARK                            x       y       z     vdW  Elec       q    Type
REMARK                         _______ _______ _______ _____ _____    ______ ____
ROOT
ATOM      1  S   UNL     1      43.891   2.958  10.770  0.00  0.00    +0.000 S 
ENDROOT
BRANCH   1   4
ATOM      2  C   UNL     1      46.368   1.969   7.743  0.00  0.00    +0.000 A 
ATOM      3  C   UNL     1      45.528   1.963   8.865  0.00  0.00    +0.000 A 
ATOM      4  C   UNL     1      45.012   3.153   9.401  0.00  0.00    +0.000 A 
ATOM      5  C   UNL     1      45.373   4.367   8.811  0.00  0.00    +0.000 A 
ATOM      6  C   UNL     1      46.214   4.385   7.693  0.00  0.00    +0.000 A 
ATOM      7  C   UNL     1      46.700   3.191   7.164  0.00  0.00    +0.000 A 
ATOM      8  F   UNL     1      47.487   3.258   6.079  0.00  0.00    +0.000 F 
BRANCH   2  10
ATOM      9  N   UNL     1      47.278   0.593   5.934  0.00  0.00    +0.000 N 
ATOM     10  C   UNL     1      46.854   0.662   7.229  0.00  0.00    +0.000 C 
ATOM     11  O   UNL     1      46.874  -0.337   7.940  0.00  0.00    +0.000 OA
ATOM     12  H   UNL     1      47.601  -0.297   5.591  0.00  0.00    +0.000 HD
ATOM     13  H   UNL     1      47.278   1.389   5.308  0.00  0.00    +0.000 HD
ENDBRANCH   2  10
ENDBRANCH   1   4
BRANCH   1  14
ATOM     14  C   UNL     1      44.880   3.362  12.251  0.00  0.00    +0.000 C 
BRANCH  14  15
ATOM     15  C   UNL     1      45.316   4.813  12.308  0.00  0.00    +0.000 A 
ATOM     16  C   UNL     1      44.470   5.866  11.942  0.00  0.00    +0.000 A 
ATOM     17  C   UNL     1      44.901   7.182  12.036  0.00  0.00    +0.000 A 
ATOM     18  C   UNL     1      46.169   7.468  12.543  0.00  0.00    +0.000 A 
ATOM     19  C   UNL     1      47.043   6.458  12.966  0.00  0.00    +0.000 A 
ATOM     20  C   UNL     1      46.588   5.133  12.828  0.00  0.00    +0.000 A 
BRANCH  19  21
ATOM     21  N   UNL     1      48.273   6.752  13.513  0.00  0.00    +0.000 N 
ATOM     22  C   UNL     1      48.572   6.591  14.942  0.00  0.00    +0.000 C 
ATOM     23  C   UNL     1      49.205   7.887  15.485  0.00  0.00    +0.000 C 
ATOM     24  O   UNL     1      50.352   8.293  14.719  0.00  0.00    +0.000 OA
ATOM     25  C   UNL     1      49.981   8.508  13.345  0.00  0.00    +0.000 C 
ATOM     26  C   UNL     1      49.415   7.228  12.716  0.00  0.00    +0.000 C 
ENDBRANCH  19  21
ENDBRANCH  14  15
ENDBRANCH   1  14
TORSDOF 5
ENDMDL
MODEL 4
REMARK VINA RESULT:    -6.942      3.627      5.255
REMARK INTER + INTRA:          -9.591
REMARK INTER:                  -8.777
REMARK INTRA:                  -0.814
REMARK UNBOUND:                -0.620
REMARK  Name = 
REMARK  5 active torsions:
REMARK  status: ('A' for Active; 'I' for Inactive)
REMARK    1  A    between atoms: C_2  and  C_4
REMARK    2  A    between atoms: C_6  and  S_7
REMARK    3  A    between atoms: S_7  and  C_8
REMARK    4  A    between atoms: C_8  and  C_9
REMARK    5  A    between atoms: C_13  and  N_14
REMARK                            x       y       z     vdW  Elec       q    Type
REMARK                         _______ _______ _______ _____ _____    ______ ____
ROOT
ATOM      1  S   UNL     1      45.536   7.359  12.078  0.00  0.00    +0.000 S 
ENDROOT
BRANCH   1   4
ATOM      2  C   UNL     1      44.389   3.776  10.622  0.00  0.00    +0.000 A 
ATOM      3  C   UNL     1      44.933   5.055  10.804  0.00  0.00    +0.000 A 
ATOM      4  C   UNL     1      44.697   5.792  11.975  0.00  0.00    +0.000 A 
ATOM      5  C   UNL     1      43.878   5.240  12.962  0.00  0.00    +0.000 A 
ATOM      6  C   UNL     1      43.327   3.966  12.789  0.00  0.00    +0.000 A 
ATOM      7  C   UNL     1      43.589   3.241  11.629  0.00  0.00    +0.000 A 
ATOM      8  F   UNL     1      43.055   2.015  11.517  0.00  0.00    +0.000 F 
BRANCH   2  10
ATOM      9  N   UNL     1      44.236   3.569   8.187  0.00  0.00    +0.000 N 
ATOM     10  C   UNL     1      44.705   3.056   9.361  0.00  0.00    +0.000 C 
ATOM     11  O   UNL     1      45.367   2.024   9.363  0.00  0.00    +0.000 OA
ATOM     12  H   UNL     1      44.451   3.073   7.338  0.00  0.00    +0.000 HD
ATOM     13  H   UNL     1      43.685   4.416   8.135  0.00  0.00    +0.000 HD
ENDBRANCH   2  10
ENDBRANCH   1   4
BRANCH   1  14
ATOM     14  C   UNL     1      47.288   6.979  11.732  0.00  0.00    +0.000 C 
BRANCH  14  15
ATOM     15  C   UNL     1      48.162   6.974  12.971  0.00  0.00    +0.000 A 
ATOM     16  C   UNL     1      49.283   7.802  13.102  0.00  0.00    +0.000 A 
ATOM     17  C   UNL     1      50.040   7.784  14.266  0.00  0.00    +0.000 A 
ATOM     18  C   UNL     1      49.660   6.971  15.335  0.00  0.00    +0.000 A 
ATOM     19  C   UNL     1      48.523   6.153  15.277  0.00  0.00    +0.000 A 
ATOM     20  C   UNL     1      47.795   6.172  14.072  0.00  0.00    +0.000 A 
BRANCH  19  21
ATOM     21  N   UNL     1      48.127   5.394  16.355  0.00  0.00    +0.000 N 
ATOM     22  C   UNL     1      48.452   5.746  17.745  0.00  0.00    +0.000 C 
ATOM     23  C   UNL     1      49.060   4.522  18.457  0.00  0.00    +0.000 C 
ATOM     24  O   UNL     1      48.215   3.363  18.360  0.00  0.00    +0.000 OA
ATOM     25  C   UNL     1      47.994   3.022  16.979  0.00  0.00    +0.000 C 
ATOM     26  C   UNL     1      47.314   4.174  16.226  0.00  0.00    +0.000 C 
ENDBRANCH  19  21
ENDBRANCH  14  15
ENDBRANCH   1  14
TORSDOF 5
ENDMDL
MODEL 5
REMARK VINA RESULT:    -6.843      4.701      8.080
REMARK INTER + INTRA:          -9.463
REMARK INTER:                  -8.713
REMARK INTRA:                  -0.750
REMARK UNBOUND:                -0.620
REMARK  Name = 
REMARK  5 active torsions:
REMARK  status: ('A' for Active; 'I' for Inactive)
REMARK    1  A    between atoms: C_2  and  C_4
REMARK    2  A    between atoms: C_6  and  S_7
REMARK    3  A    between atoms: S_7  and  C_8
REMARK    4  A    between atoms: C_8  and  C_9
REMARK    5  A    between atoms: C_13  and  N_14
REMARK                            x       y       z     vdW  Elec       q    Type
REMARK                         _______ _______ _______ _____ _____    ______ ____
ROOT
ATOM      1  S   UNL     1      49.427   7.864  14.277  0.00  0.00    +0.000 S 
ENDROOT
BRANCH   1   4
ATOM      2  C   UNL     1      48.517   5.266  17.227  0.00  0.00    +0.000 A 
ATOM      3  C   UNL     1      48.478   6.191  16.174  0.00  0.00    +0.000 A 
ATOM      4  C   UNL     1      49.649   6.781  15.673  0.00  0.00    +0.000 A 
ATOM      5  C   UNL     1      50.872   6.452  16.263  0.00  0.00    +0.000 A 
ATOM      6  C   UNL     1      50.922   5.534  17.317  0.00  0.00    +0.000 A 
ATOM      7  C   UNL     1      49.751   4.944  17.787  0.00  0.00    +0.000 A 
ATOM      8  F   UNL     1      49.851   4.053  18.786  0.00  0.00    +0.000 F 
BRANCH   2  10
ATOM      9  N   UNL     1      46.541   5.309  18.673  0.00  0.00    +0.000 N 
ATOM     10  C   UNL     1      47.233   4.674  17.683  0.00  0.00    +0.000 C 
ATOM     11  O   UNL     1      46.797   3.638  17.192  0.00  0.00    +0.000 OA
ATOM     12  H   UNL     1      45.675   4.899  18.980  0.00  0.00    +0.000 HD
ATOM     13  H   UNL     1      46.861   6.164  19.110  0.00  0.00    +0.000 HD
ENDBRANCH   2  10
ENDBRANCH   1   4
BRANCH   1  14
ATOM     14  C   UNL     1      48.761   6.796  12.954  0.00  0.00    +0.000 C 
BRANCH  14  15
ATOM     15  C   UNL     1      47.343   7.149  12.549  0.00  0.00    +0.000 A 
ATOM     16  C   UNL     1      46.936   8.467  12.315  0.00  0.00    +0.000 A 
ATOM     17  C   UNL     1      45.634   8.743  11.919  0.00  0.00    +0.000 A 
ATOM     18  C   UNL     1      44.732   7.700  11.706  0.00  0.00    +0.000 A 
ATOM     19  C   UNL     1      45.096   6.358  11.883  0.00  0.00    +0.000 A 
ATOM     20  C   UNL     1      46.414   6.114  12.314  0.00  0.00    +0.000 A 
BRANCH  19  21
ATOM     21  N   UNL     1      44.215   5.332  11.620  0.00  0.00    +0.000 N 
ATOM     22  C   UNL     1      43.406   4.685  12.662  0.00  0.00    +0.000 C 
ATOM     23  C   UNL     1      43.562   3.155  12.559  0.00  0.00    +0.000 C 
ATOM     24  O   UNL     1      43.264   2.666  11.240  0.00  0.00    +0.000 OA
ATOM     25  C   UNL     1      44.138   3.279  10.274  0.00  0.00    +0.000 C 
ATOM     26  C   UNL     1      43.973   4.806  10.267  0.00  0.00    +0.000 C 
ENDBRANCH  19  21
ENDBRANCH  14  15
ENDBRANCH   1  14
TORSDOF 5
ENDMDL
MODEL 6
REMARK VINA RESULT:    -6.550      3.079      7.054
REMARK INTER + INTRA:          -9.085
REMARK INTER:                  -8.391
REMARK INTRA:                  -0.694
REMARK UNBOUND:                -0.620
REMARK  Name = 
REMARK  5 active torsions:
REMARK  status: ('A' for Active; 'I' for Inactive)
REMARK    1  A    between atoms: C_2  and  C_4
REMARK    2  A    between atoms: C_6  and  S_7
REMARK    3  A    between atoms: S_7  and  C_8
REMARK    4  A    between atoms: C_8  and  C_9
REMARK    5  A    between atoms: C_13  and  N_14
REMARK                            x       y       z     vdW  Elec       q    Type
REMARK                         _______ _______ _______ _____ _____    ______ ____
ROOT
ATOM      1  S   UNL     1      47.645   6.692  12.390  0.00  0.00    +0.000 S 
ENDROOT
BRANCH   1   4
ATOM      2  C   UNL     1      44.687   9.253  11.408  0.00  0.00    +0.000 A 
ATOM      3  C   UNL     1      45.492   8.123  11.606  0.00  0.00    +0.000 A 
ATOM      4  C   UNL     1      46.795   8.233  12.117  0.00  0.00    +0.000 A 
ATOM      5  C   UNL     1      47.299   9.503  12.406  0.00  0.00    +0.000 A 
ATOM      6  C   UNL     1      46.505  10.638  12.208  0.00  0.00    +0.000 A 
ATOM      7  C   UNL     1      45.207  10.507  11.718  0.00  0.00    +0.000 A 
ATOM      8  F   UNL     1      44.477  11.623  11.564  0.00  0.00    +0.000 F 
BRANCH   2  10
ATOM      9  N   UNL     1      42.711   7.842  11.095  0.00  0.00    +0.000 N 
ATOM     10  C   UNL     1      43.313   9.047  10.881  0.00  0.00    +0.000 C 
ATOM     11  O   UNL     1      42.725   9.929  10.264  0.00  0.00    +0.000 OA
ATOM     12  H   UNL     1      41.782   7.707  10.731  0.00  0.00    +0.000 HD
ATOM     13  H   UNL     1      43.156   7.082  11.597  0.00  0.00    +0.000 HD
ENDBRANCH   2  10
ENDBRANCH   1   4
BRANCH   1  14
ATOM     14  C   UNL     1      46.546   5.736  13.492  0.00  0.00    +0.000 C 
BRANCH  14  15
ATOM     15  C   UNL     1      45.391   5.074  12.768  0.00  0.00    +0.000 A 
ATOM     16  C   UNL     1      44.088   5.069  13.279  0.00  0.00    +0.000 A 
ATOM     17  C   UNL     1      43.055   4.473  12.569  0.00  0.00    +0.000 A 
ATOM     18  C   UNL     1      43.299   3.915  11.314  0.00  0.00    +0.000 A 
ATOM     19  C   UNL     1      44.575   3.929  10.732  0.00  0.00    +0.000 A 
ATOM     20  C   UNL     1      45.607   4.512  11.492  0.00  0.00    +0.000 A 
BRANCH  19  21
ATOM     21  N   UNL     1      44.796   3.421   9.471  0.00  0.00    +0.000 N 
ATOM     22  C   UNL     1      44.718   1.987   9.160  0.00  0.00    +0.000 C 
ATOM     23  C   UNL     1      45.988   1.555   8.402  0.00  0.00    +0.000 C 
ATOM     24  O   UNL     1      46.226   2.364   7.237  0.00  0.00    +0.000 OA
ATOM     25  C   UNL     1      46.369   3.746   7.613  0.00  0.00    +0.000 C 
ATOM     26  C   UNL     1      45.102   4.267   8.306  0.00  0.00    +0.000 C 
ENDBRANCH  19  21
ENDBRANCH  14  15
ENDBRANCH   1  14
TORSDOF 5
ENDMDL
MODEL 7
REMARK VINA RESULT:    -6.448      4.618      7.779
REMARK INTER + INTRA:          -8.953
REMARK INTER:                  -8.062
REMARK INTRA:                  -0.892
REMARK UNBOUND:                -0.620
REMARK  Name = 
REMARK  5 active torsions:
REMARK  status: ('A' for Active; 'I' for Inactive)
REMARK    1  A    between atoms: C_2  and  C_4
REMARK    2  A    between atoms: C_6  and  S_7
REMARK    3  A    between atoms: S_7  and  C_8
REMARK    4  A    between atoms: C_8  and  C_9
REMARK    5  A    between atoms: C_13  and  N_14
REMARK                            x       y       z     vdW  Elec       q    Type
REMARK                         _______ _______ _______ _____ _____    ______ ____
ROOT
ATOM      1  S   UNL     1      49.230   7.355  14.077  0.00  0.00    +0.000 S 
ENDROOT
BRANCH   1   4
ATOM      2  C   UNL     1      48.027   4.878  17.025  0.00  0.00    +0.000 A 
ATOM      3  C   UNL     1      48.357   5.461  15.794  0.00  0.00    +0.000 A 
ATOM      4  C   UNL     1      48.761   6.802  15.703  0.00  0.00    +0.000 A 
ATOM      5  C   UNL     1      48.805   7.571  16.869  0.00  0.00    +0.000 A 
ATOM      6  C   UNL     1      48.473   7.000  18.102  0.00  0.00    +0.000 A 
ATOM      7  C   UNL     1      48.094   5.662  18.174  0.00  0.00    +0.000 A 
ATOM      8  F   UNL     1      47.805   5.153  19.383  0.00  0.00    +0.000 F 
BRANCH   2  10
ATOM      9  N   UNL     1      48.579   2.507  16.763  0.00  0.00    +0.000 N 
ATOM     10  C   UNL     1      47.628   3.447  17.034  0.00  0.00    +0.000 C 
ATOM     11  O   UNL     1      46.475   3.106  17.275  0.00  0.00    +0.000 OA
ATOM     12  H   UNL     1      48.300   1.540  16.766  0.00  0.00    +0.000 HD
ATOM     13  H   UNL     1      49.543   2.739  16.556  0.00  0.00    +0.000 HD
ENDBRANCH   2  10
ENDBRANCH   1   4
BRANCH   1  14
ATOM     14  C   UNL     1      48.160   8.798  13.743  0.00  0.00    +0.000 C 
BRANCH  14  15
ATOM     15  C   UNL     1      46.903   8.452  12.970  0.00  0.00    +0.000 A 
ATOM     16  C   UNL     1      46.046   9.430  12.454  0.00  0.00    +0.000 A 
ATOM     17  C   UNL     1      44.919   9.068  11.728  0.00  0.00    +0.000 A 
ATOM     18  C   UNL     1      44.658   7.723  11.466  0.00  0.00    +0.000 A 
ATOM     19  C   UNL     1      45.504   6.702  11.921  0.00  0.00    +0.000 A 
ATOM     20  C   UNL     1      46.620   7.100  12.680  0.00  0.00    +0.000 A 
BRANCH  19  21
ATOM     21  N   UNL     1      45.265   5.380  11.614  0.00  0.00    +0.000 N 
ATOM     22  C   UNL     1      45.258   4.867  10.236  0.00  0.00    +0.000 C 
ATOM     23  C   UNL     1      43.973   4.052   9.997  0.00  0.00    +0.000 C 
ATOM     24  O   UNL     1      43.797   3.015  10.978  0.00  0.00    +0.000 OA
ATOM     25  C   UNL     1      43.735   3.586  12.298  0.00  0.00    +0.000 C 
ATOM     26  C   UNL     1      45.024   4.348  12.634  0.00  0.00    +0.000 C 
ENDBRANCH  19  21
ENDBRANCH  14  15
ENDBRANCH   1  14
TORSDOF 5
ENDMDL
MODEL 8
REMARK VINA RESULT:    -6.395      5.028      7.706
REMARK INTER + INTRA:          -8.885
REMARK INTER:                  -7.830
REMARK INTRA:                  -1.055
REMARK UNBOUND:                -0.620
REMARK  Name = 
REMARK  5 active torsions:
REMARK  status: ('A' for Active; 'I' for Inactive)
REMARK    1  A    between atoms: C_2  and  C_4
REMARK    2  A    between atoms: C_6  and  S_7
REMARK    3  A    between atoms: S_7  and  C_8
REMARK    4  A    between atoms: C_8  and  C_9
REMARK    5  A    between atoms: C_13  and  N_14
REMARK                            x       y       z     vdW  Elec       q    Type
REMARK                         _______ _______ _______ _____ _____    ______ ____
ROOT
ATOM      1  S   UNL     1      50.141   7.425  17.088  0.00  0.00    +0.000 S 
ENDROOT
BRANCH   1   4
ATOM      2  C   UNL     1      49.163   3.514  17.262  0.00  0.00    +0.000 A 
ATOM      3  C   UNL     1      49.803   4.744  17.057  0.00  0.00    +0.000 A 
ATOM      4  C   UNL     1      49.153   5.961  17.318  0.00  0.00    +0.000 A 
ATOM      5  C   UNL     1      47.830   5.933  17.767  0.00  0.00    +0.000 A 
ATOM      6  C   UNL     1      47.181   4.712  17.972  0.00  0.00    +0.000 A 
ATOM      7  C   UNL     1      47.849   3.514  17.726  0.00  0.00    +0.000 A 
ATOM      8  F   UNL     1      47.191   2.367  17.957  0.00  0.00    +0.000 F 
BRANCH   2  10
ATOM      9  N   UNL     1      50.879   1.880  17.875  0.00  0.00    +0.000 N 
ATOM     10  C   UNL     1      49.929   2.273  16.979  0.00  0.00    +0.000 C 
ATOM     11  O   UNL     1      49.724   1.613  15.966  0.00  0.00    +0.000 OA
ATOM     12  H   UNL     1      51.398   1.041  17.674  0.00  0.00    +0.000 HD
ATOM     13  H   UNL     1      51.086   2.393  18.724  0.00  0.00    +0.000 HD
ENDBRANCH   2  10
ENDBRANCH   1   4
BRANCH   1  14
ATOM     14  C   UNL     1      49.122   8.521  16.043  0.00  0.00    +0.000 C 
BRANCH  14  15
ATOM     15  C   UNL     1      48.961   8.023  14.620  0.00  0.00    +0.000 A 
ATOM     16  C   UNL     1      49.998   8.080  13.683  0.00  0.00    +0.000 A 
ATOM     17  C   UNL     1      49.816   7.587  12.398  0.00  0.00    +0.000 A 
ATOM     18  C   UNL     1      48.607   6.985  12.045  0.00  0.00    +0.000 A 
ATOM     19  C   UNL     1      47.548   6.861  12.954  0.00  0.00    +0.000 A 
ATOM     20  C   UNL     1      47.754   7.399  14.239  0.00  0.00    +0.000 A 
BRANCH  19  21
ATOM     21  N   UNL     1      46.377   6.220  12.612  0.00  0.00    +0.000 N 
ATOM     22  C   UNL     1      45.783   5.150  13.426  0.00  0.00    +0.000 C 
ATOM     23  C   UNL     1      45.464   3.938  12.529  0.00  0.00    +0.000 C 
ATOM     24  O   UNL     1      44.648   4.298  11.401  0.00  0.00    +0.000 OA
ATOM     25  C   UNL     1      45.314   5.292  10.602  0.00  0.00    +0.000 C 
ATOM     26  C   UNL     1      45.592   6.564  11.416  0.00  0.00    +0.000 C 
ENDBRANCH  19  21
ENDBRANCH  14  15
ENDBRANCH   1  14
TORSDOF 5
ENDMDL
MODEL 9
REMARK VINA RESULT:    -6.255      5.966      8.402
REMARK INTER + INTRA:          -8.703
REMARK INTER:                  -8.060
REMARK INTRA:                  -0.643
REMARK UNBOUND:                -0.620
REMARK  Name = 
REMARK  5 active torsions:
REMARK  status: ('A' for Active; 'I' for Inactive)
REMARK    1  A    between atoms: C_2  and  C_4
REMARK    2  A    between atoms: C_6  and  S_7
REMARK    3  A    between atoms: S_7  and  C_8
REMARK    4  A    between atoms: C_8  and  C_9
REMARK    5  A    between atoms: C_13  and  N_14
REMARK                            x       y       z     vdW  Elec       q    Type
REMARK                         _______ _______ _______ _____ _____    ______ ____
ROOT
ATOM      1  S   UNL     1      48.190   4.901  17.899  0.00  0.00    +0.000 S 
ENDROOT
BRANCH   1   4
ATOM      2  C   UNL     1      51.837   3.178  17.854  0.00  0.00    +0.000 A 
ATOM      3  C   UNL     1      50.463   3.442  17.937  0.00  0.00    +0.000 A 
ATOM      4  C   UNL     1      49.964   4.752  17.867  0.00  0.00    +0.000 A 
ATOM      5  C   UNL     1      50.868   5.810  17.739  0.00  0.00    +0.000 A 
ATOM      6  C   UNL     1      52.241   5.557  17.659  0.00  0.00    +0.000 A 
ATOM      7  C   UNL     1      52.716   4.249  17.711  0.00  0.00    +0.000 A 
ATOM      8  F   UNL     1      54.041   4.055  17.609  0.00  0.00    +0.000 F 
BRANCH   2  10
ATOM      9  N   UNL     1      51.618   0.840  17.159  0.00  0.00    +0.000 N 
ATOM     10  C   UNL     1      52.280   1.761  17.918  0.00  0.00    +0.000 C 
ATOM     11  O   UNL     1      53.213   1.414  18.634  0.00  0.00    +0.000 OA
ATOM     12  H   UNL     1      51.921  -0.118  17.211  0.00  0.00    +0.000 HD
ATOM     13  H   UNL     1      50.841   1.078  16.554  0.00  0.00    +0.000 HD
ENDBRANCH   2  10
ENDBRANCH   1   4
BRANCH   1  14
ATOM     14  C   UNL     1      47.612   3.957  16.445  0.00  0.00    +0.000 C 
BRANCH  14  15
ATOM     15  C   UNL     1      47.395   4.816  15.215  0.00  0.00    +0.000 A 
ATOM     16  C   UNL     1      48.168   5.951  14.946  0.00  0.00    +0.000 A 
ATOM     17  C   UNL     1      47.952   6.694  13.793  0.00  0.00    +0.000 A 
ATOM     18  C   UNL     1      46.992   6.285  12.867  0.00  0.00    +0.000 A 
ATOM     19  C   UNL     1      46.217   5.133  13.062  0.00  0.00    +0.000 A 
ATOM     20  C   UNL     1      46.439   4.420  14.256  0.00  0.00    +0.000 A 
BRANCH  19  21
ATOM     21  N   UNL     1      45.307   4.710  12.119  0.00  0.00    +0.000 N 
ATOM     22  C   UNL     1      44.530   5.636  11.284  0.00  0.00    +0.000 C 
ATOM     23  C   UNL     1      43.037   5.258  11.349  0.00  0.00    +0.000 C 
ATOM     24  O   UNL     1      42.811   3.880  11.009  0.00  0.00    +0.000 OA
ATOM     25  C   UNL     1      43.537   3.021  11.907  0.00  0.00    +0.000 C 
ATOM     26  C   UNL     1      45.047   3.290  11.833  0.00  0.00    +0.000 C 
ENDBRANCH  19  21
ENDBRANCH  14  15
ENDBRANCH   1  14
TORSDOF 5
ENDMDL
