MODEL 1
REMARK VINA RESULT:    -8.004      0.000      0.000
REMARK INTER + INTRA:         -12.303
REMARK INTER:                 -11.280
REMARK INTRA:                  -1.023
REMARK UNBOUND:                -1.023
REMARK  Name = 
REMARK  7 active torsions:
REMARK  status: ('A' for Active; 'I' for Inactive)
REMARK    1  A    between atoms: C_2  and  C_4
REMARK    2  A    between atoms: C_7  and  O_8
REMARK    3  A    between atoms: O_8  and  C_9
REMARK    4  A    between atoms: C_9  and  C_10
REMARK    5  A    between atoms: C_10  and  C_11
REMARK    6  A    between atoms: C_15  and  O_16
REMARK    7  A    between atoms: O_16  and  C_17
REMARK                            x       y       z     vdW  Elec       q    Type
REMARK                         _______ _______ _______ _____ _____    ______ ____
ROOT
ATOM      1  C   UNL     1      43.955   3.218  11.554  0.00  0.00    +0.000 C 
ENDROOT
BRANCH   1   2
ATOM      2  O   UNL     1      43.568   3.505  10.202  0.00  0.00    +0.000 OA
BRANCH   2   6
ATOM      3  C   UNL     1      46.514   2.413   7.525  0.00  0.00    +0.000 A 
ATOM      4  C   UNL     1      46.109   3.747   7.595  0.00  0.00    +0.000 A 
ATOM      5  C   UNL     1      45.105   4.109   8.501  0.00  0.00    +0.000 A 
ATOM      6  C   UNL     1      44.547   3.120   9.299  0.00  0.00    +0.000 A 
ATOM      7  N   UNL     1      44.915   1.825   9.237  0.00  0.00    +0.000 NA
ATOM      8  C   UNL     1      45.878   1.493   8.349  0.00  0.00    +0.000 A 
BRANCH   3  10
ATOM      9  N   UNL     1      48.639   2.731   6.397  0.00  0.00    +0.000 N 
ATOM     10  C   UNL     1      47.567   1.916   6.617  0.00  0.00    +0.000 C 
ATOM     11  O   UNL     1      47.507   0.804   6.116  0.00  0.00    +0.000 OA
ATOM     12  H   UNL     1      49.407   2.325   5.876  0.00  0.00    +0.000 HD
ATOM     13  H   UNL     1      48.852   3.522   6.991  0.00  0.00    +0.000 HD
ENDBRANCH   3  10
ENDBRANCH   2   6
ENDBRANCH   1   2
BRANCH   1  14
ATOM     14  C   UNL     1      43.884   4.489  12.399  0.00  0.00    +0.000 C 
BRANCH  14  15
ATOM     15  C   UNL     1      45.252   5.107  12.580  0.00  0.00    +0.000 A 
ATOM     16  C   UNL     1      45.737   6.044  11.660  0.00  0.00    +0.000 A 
ATOM     17  C   UNL     1      46.974   6.659  11.864  0.00  0.00    +0.000 A 
ATOM     18  C   UNL     1      47.743   6.346  12.989  0.00  0.00    +0.000 A 
ATOM     19  C   UNL     1      47.276   5.411  13.908  0.00  0.00    +0.000 A 
ATOM     20  C   UNL     1      46.031   4.803  13.707  0.00  0.00    +0.000 A 
BRANCH  19  21
ATOM     21  O   UNL     1      47.930   5.051  15.060  0.00  0.00    +0.000 OA
BRANCH  21  22
ATOM     22  C   UNL     1      47.296   4.125  15.973  0.00  0.00    +0.000 C 
ATOM     23  C   UNL     1      47.317   4.499  17.474  0.00  0.00    +0.000 C 
ATOM     24  C   UNL     1      47.824   3.090  17.804  0.00  0.00    +0.000 C 
ATOM     25  C   UNL     1      48.164   2.892  16.323  0.00  0.00    +0.000 C 
ENDBRANCH  21  22
ENDBRANCH  19  21
ENDBRANCH  14  15
ENDBRANCH   1  14
TORSDOF 7
ENDMDL
MODEL 2
REMARK VINA RESULT:    -7.255      2.152      4.105
REMARK INTER + INTRA:         -11.247
REMARK INTER:                 -10.190
REMARK INTRA:                  -1.057
REMARK UNBOUND:                -1.023
REMARK  Name = 
REMARK  7 active torsions:
REMARK  status: ('A' for Active; 'I' for Inactive)
REMARK    1  A    between atoms: C_2  and  C_4
REMARK    2  A    between atoms: C_7  and  O_8
REMARK    3  A    between atoms: O_8  and  C_9
REMARK    4  A    between atoms: C_9  and  C_10
REMARK    5  A    between atoms: C_10  and  C_11
REMARK    6  A    between atoms: C_15  and  O_16
REMARK    7  A    between atoms: O_16  and  C_17
REMARK                            x       y       z     vdW  Elec       q    Type
REMARK                         _______ _______ _______ _____ _____    ______ ____
ROOT
ATOM      1  C   UNL     1      43.824   2.940  11.907  0.00  0.00    +0.000 C 
ENDROOT
BRANCH   1   2
ATOM      2  O   UNL     1      43.385   3.377  10.612  0.00  0.00    +0.000 OA
BRANCH   2   6
ATOM      3  C   UNL     1      46.309   2.801   7.757  0.00  0.00    +0.000 A 
ATOM      4  C   UNL     1      45.882   4.097   8.053  0.00  0.00    +0.000 A 
ATOM      5  C   UNL     1      44.886   4.284   9.017  0.00  0.00    +0.000 A 
ATOM      6  C   UNL     1      44.357   3.167   9.647  0.00  0.00    +0.000 A 
ATOM      7  N   UNL     1      44.745   1.906   9.366  0.00  0.00    +0.000 NA
ATOM      8  C   UNL     1      45.700   1.746   8.424  0.00  0.00    +0.000 A 
BRANCH   3  10
ATOM      9  N   UNL     1      47.328   3.163   5.584  0.00  0.00    +0.000 N 
ATOM     10  C   UNL     1      47.356   2.482   6.767  0.00  0.00    +0.000 C 
ATOM     11  O   UNL     1      48.241   1.675   7.009  0.00  0.00    +0.000 OA
ATOM     12  H   UNL     1      48.124   3.023   4.972  0.00  0.00    +0.000 HD
ATOM     13  H   UNL     1      46.791   4.010   5.458  0.00  0.00    +0.000 HD
ENDBRANCH   3  10
ENDBRANCH   2   6
ENDBRANCH   1   2
BRANCH   1  14
ATOM     14  C   UNL     1      43.621   4.055  12.932  0.00  0.00    +0.000 C 
BRANCH  14  15
ATOM     15  C   UNL     1      44.833   4.954  13.015  0.00  0.00    +0.000 A 
ATOM     16  C   UNL     1      45.959   4.565  13.750  0.00  0.00    +0.000 A 
ATOM     17  C   UNL     1      47.100   5.369  13.774  0.00  0.00    +0.000 A 
ATOM     18  C   UNL     1      47.133   6.573  13.062  0.00  0.00    +0.000 A 
ATOM     19  C   UNL     1      46.018   6.976  12.333  0.00  0.00    +0.000 A 
ATOM     20  C   UNL     1      44.878   6.163  12.302  0.00  0.00    +0.000 A 
BRANCH  19  21
ATOM     21  O   UNL     1      45.949   8.118  11.575  0.00  0.00    +0.000 OA
BRANCH  21  22
ATOM     22  C   UNL     1      45.089   9.200  12.002  0.00  0.00    +0.000 C 
ATOM     23  C   UNL     1      44.004   9.667  11.003  0.00  0.00    +0.000 C 
ATOM     24  C   UNL     1      44.447  11.119  11.222  0.00  0.00    +0.000 C 
ATOM     25  C   UNL     1      45.733  10.602  11.877  0.00  0.00    +0.000 C 
ENDBRANCH  21  22
ENDBRANCH  19  21
ENDBRANCH  14  15
ENDBRANCH   1  14
TORSDOF 7
ENDMDL
MODEL 3
REMARK VINA RESULT:    -7.227      1.860      3.615
REMARK INTER + INTRA:         -11.208
REMARK INTER:                 -10.360
REMARK INTRA:                  -0.849
REMARK UNBOUND:                -1.023
REMARK  Name = 
REMARK  7 active torsions:
REMARK  status: ('A' for Active; 'I' for Inactive)
REMARK    1  A    between atoms: C_2  and  C_4
REMARK    2  A    between atoms: C_7  and  O_8
REMARK    3  A    between atoms: O_8  and  C_9
REMARK    4  A    between atoms: C_9  and  C_10
REMARK    5  A    between atoms: C_10  and  C_11
REMARK    6  A    between atoms: C_15  and  O_16
REMARK    7  A    between atoms: O_16  and  C_17
REMARK                            x       y       z     vdW  Elec       q    Type
REMARK                         _______ _______ _______ _____ _____    ______ ____
ROOT
ATOM      1  C   UNL     1      43.523   3.621  11.023  0.00  0.00    +0.000 C 
ENDROOT
BRANCH   1   2
ATOM      2  O   UNL     1      43.847   4.386   9.853  0.00  0.00    +0.000 OA
BRANCH   2   6
ATOM      3  C   UNL     1      46.644   2.435   7.528  0.00  0.00    +0.000 A 
ATOM      4  C   UNL     1      45.846   1.699   8.406  0.00  0.00    +0.000 A 
ATOM      5  C   UNL     1      44.904   2.368   9.196  0.00  0.00    +0.000 A 
ATOM      6  C   UNL     1      44.799   3.747   9.074  0.00  0.00    +0.000 A 
ATOM      7  N   UNL     1      45.568   4.477   8.242  0.00  0.00    +0.000 NA
ATOM      8  C   UNL     1      46.479   3.814   7.496  0.00  0.00    +0.000 A 
BRANCH   3  10
ATOM      9  N   UNL     1      48.709   2.631   6.270  0.00  0.00    +0.000 N 
ATOM     10  C   UNL     1      47.662   1.839   6.641  0.00  0.00    +0.000 C 
ATOM     11  O   UNL     1      47.597   0.672   6.286  0.00  0.00    +0.000 OA
ATOM     12  H   UNL     1      49.459   2.169   5.768  0.00  0.00    +0.000 HD
ATOM     13  H   UNL     1      48.936   3.492   6.749  0.00  0.00    +0.000 HD
ENDBRANCH   3  10
ENDBRANCH   2   6
ENDBRANCH   1   2
BRANCH   1  14
ATOM     14  C   UNL     1      43.452   4.537  12.244  0.00  0.00    +0.000 C 
BRANCH  14  15
ATOM     15  C   UNL     1      44.828   5.005  12.661  0.00  0.00    +0.000 A 
ATOM     16  C   UNL     1      45.596   4.250  13.554  0.00  0.00    +0.000 A 
ATOM     17  C   UNL     1      46.891   4.652  13.889  0.00  0.00    +0.000 A 
ATOM     18  C   UNL     1      47.436   5.815  13.335  0.00  0.00    +0.000 A 
ATOM     19  C   UNL     1      46.680   6.580  12.452  0.00  0.00    +0.000 A 
ATOM     20  C   UNL     1      45.386   6.169  12.109  0.00  0.00    +0.000 A 
BRANCH  19  21
ATOM     21  O   UNL     1      47.121   7.719  11.826  0.00  0.00    +0.000 OA
BRANCH  21  22
ATOM     22  C   UNL     1      48.338   8.353  12.285  0.00  0.00    +0.000 C 
ATOM     23  C   UNL     1      48.549   9.833  11.883  0.00  0.00    +0.000 C 
ATOM     24  C   UNL     1      49.966   9.486  11.407  0.00  0.00    +0.000 C 
ATOM     25  C   UNL     1      49.588   8.001  11.441  0.00  0.00    +0.000 C 
ENDBRANCH  21  22
ENDBRANCH  19  21
ENDBRANCH  14  15
ENDBRANCH   1  14
TORSDOF 7
ENDMDL
MODEL 4
REMARK VINA RESULT:    -6.578      2.977      8.192
REMARK INTER + INTRA:         -10.293
REMARK INTER:                  -9.639
REMARK INTRA:                  -0.654
REMARK UNBOUND:                -1.023
REMARK  Name = 
REMARK  7 active torsions:
REMARK  status: ('A' for Active; 'I' for Inactive)
REMARK    1  A    between atoms: C_2  and  C_4
REMARK    2  A    between atoms: C_7  and  O_8
REMARK    3  A    between atoms: O_8  and  C_9
REMARK    4  A    between atoms: C_9  and  C_10
REMARK    5  A    between atoms: C_10  and  C_11
REMARK    6  A    between atoms: C_15  and  O_16
REMARK    7  A    between atoms: O_16  and  C_17
REMARK                            x       y       z     vdW  Elec       q    Type
REMARK                         _______ _______ _______ _____ _____    ______ ____
ROOT
ATOM      1  C   UNL     1      45.772   6.559  12.893  0.00  0.00    +0.000 C 
ENDROOT
BRANCH   1   2
ATOM      2  O   UNL     1      46.914   5.689  12.914  0.00  0.00    +0.000 OA
BRANCH   2   6
ATOM      3  C   UNL     1      48.067   4.854  16.788  0.00  0.00    +0.000 A 
ATOM      4  C   UNL     1      48.578   5.984  16.147  0.00  0.00    +0.000 A 
ATOM      5  C   UNL     1      48.188   6.257  14.831  0.00  0.00    +0.000 A 
ATOM      6  C   UNL     1      47.301   5.389  14.210  0.00  0.00    +0.000 A 
ATOM      7  N   UNL     1      46.807   4.285  14.807  0.00  0.00    +0.000 NA
ATOM      8  C   UNL     1      47.205   4.032  16.073  0.00  0.00    +0.000 A 
BRANCH   3  10
ATOM      9  N   UNL     1      48.650   3.150  18.415  0.00  0.00    +0.000 N 
ATOM     10  C   UNL     1      48.399   4.470  18.174  0.00  0.00    +0.000 C 
ATOM     11  O   UNL     1      48.491   5.301  19.064  0.00  0.00    +0.000 OA
ATOM     12  H   UNL     1      48.998   2.925  19.340  0.00  0.00    +0.000 HD
ATOM     13  H   UNL     1      48.848   2.491  17.674  0.00  0.00    +0.000 HD
ENDBRANCH   3  10
ENDBRANCH   2   6
ENDBRANCH   1   2
BRANCH   1  14
ATOM     14  C   UNL     1      45.370   6.860  11.450  0.00  0.00    +0.000 C 
BRANCH  14  15
ATOM     15  C   UNL     1      45.136   5.587  10.668  0.00  0.00    +0.000 A 
ATOM     16  C   UNL     1      44.229   4.626  11.129  0.00  0.00    +0.000 A 
ATOM     17  C   UNL     1      43.968   3.481  10.373  0.00  0.00    +0.000 A 
ATOM     18  C   UNL     1      44.609   3.280   9.146  0.00  0.00    +0.000 A 
ATOM     19  C   UNL     1      45.519   4.225   8.680  0.00  0.00    +0.000 A 
ATOM     20  C   UNL     1      45.771   5.378   9.434  0.00  0.00    +0.000 A 
BRANCH  19  21
ATOM     21  O   UNL     1      46.181   4.149   7.480  0.00  0.00    +0.000 OA
BRANCH  21  22
ATOM     22  C   UNL     1      46.216   2.889   6.769  0.00  0.00    +0.000 C 
ATOM     23  C   UNL     1      47.281   1.862   7.221  0.00  0.00    +0.000 C 
ATOM     24  C   UNL     1      47.705   1.679   5.758  0.00  0.00    +0.000 C 
ATOM     25  C   UNL     1      46.940   2.958   5.402  0.00  0.00    +0.000 C 
ENDBRANCH  21  22
ENDBRANCH  19  21
ENDBRANCH  14  15
ENDBRANCH   1  14
TORSDOF 7
ENDMDL
MODEL 5
REMARK VINA RESULT:    -6.560      3.079      7.515
REMARK INTER + INTRA:         -10.267
REMARK INTER:                  -9.458
REMARK INTRA:                  -0.809
REMARK UNBOUND:                -1.023
REMARK  Name = 
REMARK  7 active torsions:
REMARK  status: ('A' for Active; 'I' for Inactive)
REMARK    1  A    between atoms: C_2  and  C_4
REMARK    2  A    between atoms: C_7  and  O_8
REMARK    3  A    between atoms: O_8  and  C_9
REMARK    4  A    between atoms: C_9  and  C_10
REMARK    5  A    between atoms: C_10  and  C_11
REMARK    6  A    between atoms: C_15  and  O_16
REMARK    7  A    between atoms: O_16  and  C_17
REMARK                            x       y       z     vdW  Elec       q    Type
REMARK                         _______ _______ _______ _____ _____    ______ ____
ROOT
ATOM      1  C   UNL     1      46.566   7.587  12.954  0.00  0.00    +0.000 C 
ENDROOT
BRANCH   1   2
ATOM      2  O   UNL     1      47.816   6.905  13.135  0.00  0.00    +0.000 OA
BRANCH   2   6
ATOM      3  C   UNL     1      47.616   4.124  16.178  0.00  0.00    +0.000 A 
ATOM      4  C   UNL     1      46.907   3.902  14.996  0.00  0.00    +0.000 A 
ATOM      5  C   UNL     1      46.975   4.852  13.971  0.00  0.00    +0.000 A 
ATOM      6  C   UNL     1      47.749   5.986  14.171  0.00  0.00    +0.000 A 
ATOM      7  N   UNL     1      48.430   6.226  15.309  0.00  0.00    +0.000 NA
ATOM      8  C   UNL     1      48.344   5.302  16.292  0.00  0.00    +0.000 A 
BRANCH   3  10
ATOM      9  N   UNL     1      48.817   3.002  17.964  0.00  0.00    +0.000 N 
ATOM     10  C   UNL     1      47.628   3.190  17.322  0.00  0.00    +0.000 C 
ATOM     11  O   UNL     1      46.609   2.640  17.709  0.00  0.00    +0.000 OA
ATOM     12  H   UNL     1      48.780   2.460  18.819  0.00  0.00    +0.000 HD
ATOM     13  H   UNL     1      49.602   3.630  17.849  0.00  0.00    +0.000 HD
ENDBRANCH   3  10
ENDBRANCH   2   6
ENDBRANCH   1   2
BRANCH   1  14
ATOM     14  C   UNL     1      46.091   7.433  11.510  0.00  0.00    +0.000 C 
BRANCH  14  15
ATOM     15  C   UNL     1      45.086   6.313  11.378  0.00  0.00    +0.000 A 
ATOM     16  C   UNL     1      43.731   6.536  11.651  0.00  0.00    +0.000 A 
ATOM     17  C   UNL     1      42.795   5.516  11.468  0.00  0.00    +0.000 A 
ATOM     18  C   UNL     1      43.200   4.258  11.010  0.00  0.00    +0.000 A 
ATOM     19  C   UNL     1      44.545   4.019  10.742  0.00  0.00    +0.000 A 
ATOM     20  C   UNL     1      45.480   5.047  10.916  0.00  0.00    +0.000 A 
BRANCH  19  21
ATOM     21  O   UNL     1      45.050   2.838  10.260  0.00  0.00    +0.000 OA
BRANCH  21  22
ATOM     22  C   UNL     1      44.982   2.564   8.841  0.00  0.00    +0.000 C 
ATOM     23  C   UNL     1      46.142   1.742   8.231  0.00  0.00    +0.000 C 
ATOM     24  C   UNL     1      46.279   2.788   7.118  0.00  0.00    +0.000 C 
ATOM     25  C   UNL     1      45.424   3.750   7.950  0.00  0.00    +0.000 C 
ENDBRANCH  21  22
ENDBRANCH  19  21
ENDBRANCH  14  15
ENDBRANCH   1  14
TORSDOF 7
ENDMDL
MODEL 6
REMARK VINA RESULT:    -6.475      2.762      7.253
REMARK INTER + INTRA:         -10.147
REMARK INTER:                  -9.639
REMARK INTRA:                  -0.508
REMARK UNBOUND:                -1.023
REMARK  Name = 
REMARK  7 active torsions:
REMARK  status: ('A' for Active; 'I' for Inactive)
REMARK    1  A    between atoms: C_2  and  C_4
REMARK    2  A    between atoms: C_7  and  O_8
REMARK    3  A    between atoms: O_8  and  C_9
REMARK    4  A    between atoms: C_9  and  C_10
REMARK    5  A    between atoms: C_10  and  C_11
REMARK    6  A    between atoms: C_15  and  O_16
REMARK    7  A    between atoms: O_16  and  C_17
REMARK                            x       y       z     vdW  Elec       q    Type
REMARK                         _______ _______ _______ _____ _____    ______ ____
ROOT
ATOM      1  C   UNL     1      44.004   2.882  12.521  0.00  0.00    +0.000 C 
ENDROOT
BRANCH   1   2
ATOM      2  O   UNL     1      43.838   4.073  13.306  0.00  0.00    +0.000 OA
BRANCH   2   6
ATOM      3  C   UNL     1      47.223   6.434  13.312  0.00  0.00    +0.000 A 
ATOM      4  C   UNL     1      46.002   6.983  12.914  0.00  0.00    +0.000 A 
ATOM      5  C   UNL     1      44.860   6.175  12.909  0.00  0.00    +0.000 A 
ATOM      6  C   UNL     1      44.985   4.850  13.302  0.00  0.00    +0.000 A 
ATOM      7  N   UNL     1      46.157   4.297  13.676  0.00  0.00    +0.000 NA
ATOM      8  C   UNL     1      47.250   5.091  13.664  0.00  0.00    +0.000 A 
BRANCH   3  10
ATOM      9  N   UNL     1      49.103   7.470  12.180  0.00  0.00    +0.000 N 
ATOM     10  C   UNL     1      48.489   7.191  13.367  0.00  0.00    +0.000 C 
ATOM     11  O   UNL     1      48.950   7.590  14.425  0.00  0.00    +0.000 OA
ATOM     12  H   UNL     1      49.899   8.095  12.228  0.00  0.00    +0.000 HD
ATOM     13  H   UNL     1      48.626   7.397  11.291  0.00  0.00    +0.000 HD
ENDBRANCH   3  10
ENDBRANCH   2   6
ENDBRANCH   1   2
BRANCH   1  14
ATOM     14  C   UNL     1      43.292   3.038  11.178  0.00  0.00    +0.000 C 
BRANCH  14  15
ATOM     15  C   UNL     1      44.272   3.349  10.069  0.00  0.00    +0.000 A 
ATOM     16  C   UNL     1      44.642   4.671   9.797  0.00  0.00    +0.000 A 
ATOM     17  C   UNL     1      45.594   4.951   8.814  0.00  0.00    +0.000 A 
ATOM     18  C   UNL     1      46.190   3.913   8.090  0.00  0.00    +0.000 A 
ATOM     19  C   UNL     1      45.825   2.594   8.345  0.00  0.00    +0.000 A 
ATOM     20  C   UNL     1      44.878   2.315   9.338  0.00  0.00    +0.000 A 
BRANCH  19  21
ATOM     21  O   UNL     1      46.364   1.498   7.720  0.00  0.00    +0.000 OA
BRANCH  21  22
ATOM     22  C   UNL     1      47.264   1.690   6.604  0.00  0.00    +0.000 C 
ATOM     23  C   UNL     1      46.762   2.588   5.448  0.00  0.00    +0.000 C 
ATOM     24  C   UNL     1      47.177   1.505   4.445  0.00  0.00    +0.000 C 
ATOM     25  C   UNL     1      47.288   0.508   5.604  0.00  0.00    +0.000 C 
ENDBRANCH  21  22
ENDBRANCH  19  21
ENDBRANCH  14  15
ENDBRANCH   1  14
TORSDOF 7
ENDMDL
MODEL 7
REMARK VINA RESULT:    -6.469      3.676      8.182
REMARK INTER + INTRA:         -10.139
REMARK INTER:                  -9.580
REMARK INTRA:                  -0.559
REMARK UNBOUND:                -1.023
REMARK  Name = 
REMARK  7 active torsions:
REMARK  status: ('A' for Active; 'I' for Inactive)
REMARK    1  A    between atoms: C_2  and  C_4
REMARK    2  A    between atoms: C_7  and  O_8
REMARK    3  A    between atoms: O_8  and  C_9
REMARK    4  A    between atoms: C_9  and  C_10
REMARK    5  A    between atoms: C_10  and  C_11
REMARK    6  A    between atoms: C_15  and  O_16
REMARK    7  A    between atoms: O_16  and  C_17
REMARK                            x       y       z     vdW  Elec       q    Type
REMARK                         _______ _______ _______ _____ _____    ______ ____
ROOT
ATOM      1  C   UNL     1      47.174   3.929  14.077  0.00  0.00    +0.000 C 
ENDROOT
BRANCH   1   2
ATOM      2  O   UNL     1      46.990   3.403  15.400  0.00  0.00    +0.000 OA
BRANCH   2   6
ATOM      3  C   UNL     1      50.523   3.310  17.531  0.00  0.00    +0.000 A 
ATOM      4  C   UNL     1      49.781   4.492  17.481  0.00  0.00    +0.000 A 
ATOM      5  C   UNL     1      48.588   4.518  16.751  0.00  0.00    +0.000 A 
ATOM      6  C   UNL     1      48.184   3.359  16.101  0.00  0.00    +0.000 A 
ATOM      7  N   UNL     1      48.893   2.213  16.126  0.00  0.00    +0.000 NA
ATOM      8  C   UNL     1      50.048   2.211  16.827  0.00  0.00    +0.000 A 
BRANCH   3  10
ATOM      9  N   UNL     1      51.905   3.833  19.456  0.00  0.00    +0.000 N 
ATOM     10  C   UNL     1      51.790   3.161  18.274  0.00  0.00    +0.000 C 
ATOM     11  O   UNL     1      52.685   2.433  17.874  0.00  0.00    +0.000 OA
ATOM     12  H   UNL     1      52.725   3.620  20.011  0.00  0.00    +0.000 HD
ATOM     13  H   UNL     1      51.105   4.217  19.943  0.00  0.00    +0.000 HD
ENDBRANCH   3  10
ENDBRANCH   2   6
ENDBRANCH   1   2
BRANCH   1  14
ATOM     14  C   UNL     1      46.279   5.150  13.871  0.00  0.00    +0.000 C 
BRANCH  14  15
ATOM     15  C   UNL     1      45.107   4.828  12.973  0.00  0.00    +0.000 A 
ATOM     16  C   UNL     1      43.962   5.634  12.979  0.00  0.00    +0.000 A 
ATOM     17  C   UNL     1      42.907   5.370  12.104  0.00  0.00    +0.000 A 
ATOM     18  C   UNL     1      42.979   4.297  11.210  0.00  0.00    +0.000 A 
ATOM     19  C   UNL     1      44.108   3.482  11.199  0.00  0.00    +0.000 A 
ATOM     20  C   UNL     1      45.170   3.755  12.070  0.00  0.00    +0.000 A 
BRANCH  19  21
ATOM     21  O   UNL     1      44.301   2.424  10.346  0.00  0.00    +0.000 OA
BRANCH  21  22
ATOM     22  C   UNL     1      44.519   2.679   8.939  0.00  0.00    +0.000 C 
ATOM     23  C   UNL     1      45.837   2.146   8.328  0.00  0.00    +0.000 C 
ATOM     24  C   UNL     1      46.088   3.524   7.704  0.00  0.00    +0.000 C 
ATOM     25  C   UNL     1      45.016   4.112   8.628  0.00  0.00    +0.000 C 
ENDBRANCH  21  22
ENDBRANCH  19  21
ENDBRANCH  14  15
ENDBRANCH   1  14
TORSDOF 7
ENDMDL
MODEL 8
REMARK VINA RESULT:    -6.093      3.456      6.246
REMARK INTER + INTRA:          -9.609
REMARK INTER:                  -8.883
REMARK INTRA:                  -0.725
REMARK UNBOUND:                -1.023
REMARK  Name = 
REMARK  7 active torsions:
REMARK  status: ('A' for Active; 'I' for Inactive)
REMARK    1  A    between atoms: C_2  and  C_4
REMARK    2  A    between atoms: C_7  and  O_8
REMARK    3  A    between atoms: O_8  and  C_9
REMARK    4  A    between atoms: C_9  and  C_10
REMARK    5  A    between atoms: C_10  and  C_11
REMARK    6  A    between atoms: C_15  and  O_16
REMARK    7  A    between atoms: O_16  and  C_17
REMARK                            x       y       z     vdW  Elec       q    Type
REMARK                         _______ _______ _______ _____ _____    ______ ____
ROOT
ATOM      1  C   UNL     1      47.569   3.710  15.781  0.00  0.00    +0.000 C 
ENDROOT
BRANCH   1   2
ATOM      2  O   UNL     1      47.546   3.171  14.451  0.00  0.00    +0.000 OA
BRANCH   2   6
ATOM      3  C   UNL     1      44.764   5.100  12.089  0.00  0.00    +0.000 A 
ATOM      4  C   UNL     1      45.629   5.852  12.887  0.00  0.00    +0.000 A 
ATOM      5  C   UNL     1      46.565   5.191  13.690  0.00  0.00    +0.000 A 
ATOM      6  C   UNL     1      46.598   3.803  13.662  0.00  0.00    +0.000 A 
ATOM      7  N   UNL     1      45.763   3.059  12.909  0.00  0.00    +0.000 NA
ATOM      8  C   UNL     1      44.858   3.715  12.150  0.00  0.00    +0.000 A 
BRANCH   3  10
ATOM      9  N   UNL     1      43.437   7.002  11.378  0.00  0.00    +0.000 N 
ATOM     10  C   UNL     1      43.744   5.685  11.197  0.00  0.00    +0.000 C 
ATOM     11  O   UNL     1      43.225   5.033  10.304  0.00  0.00    +0.000 OA
ATOM     12  H   UNL     1      42.832   7.418  10.678  0.00  0.00    +0.000 HD
ATOM     13  H   UNL     1      44.025   7.630  11.910  0.00  0.00    +0.000 HD
ENDBRANCH   3  10
ENDBRANCH   2   6
ENDBRANCH   1   2
BRANCH   1  14
ATOM     14  C   UNL     1      48.251   2.727  16.732  0.00  0.00    +0.000 C 
BRANCH  14  15
ATOM     15  C   UNL     1      49.112   3.449  17.744  0.00  0.00    +0.000 A 
ATOM     16  C   UNL     1      50.485   3.608  17.525  0.00  0.00    +0.000 A 
ATOM     17  C   UNL     1      51.267   4.328  18.431  0.00  0.00    +0.000 A 
ATOM     18  C   UNL     1      50.686   4.900  19.568  0.00  0.00    +0.000 A 
ATOM     19  C   UNL     1      49.323   4.744  19.801  0.00  0.00    +0.000 A 
ATOM     20  C   UNL     1      48.540   4.030  18.886  0.00  0.00    +0.000 A 
BRANCH  19  21
ATOM     21  O   UNL     1      48.643   5.285  20.863  0.00  0.00    +0.000 OA
BRANCH  21  22
ATOM     22  C   UNL     1      47.614   6.271  20.616  0.00  0.00    +0.000 C 
ATOM     23  C   UNL     1      48.013   7.500  19.766  0.00  0.00    +0.000 C 
ATOM     24  C   UNL     1      47.390   8.418  20.825  0.00  0.00    +0.000 C 
ATOM     25  C   UNL     1      47.369   7.237  21.801  0.00  0.00    +0.000 C 
ENDBRANCH  21  22
ENDBRANCH  19  21
ENDBRANCH  14  15
ENDBRANCH   1  14
TORSDOF 7
ENDMDL
MODEL 9
REMARK VINA RESULT:    -6.086      2.089      2.708
REMARK INTER + INTRA:          -9.599
REMARK INTER:                  -8.920
REMARK INTRA:                  -0.679
REMARK UNBOUND:                -1.023
REMARK  Name = 
REMARK  7 active torsions:
REMARK  status: ('A' for Active; 'I' for Inactive)
REMARK    1  A    between atoms: C_2  and  C_4
REMARK    2  A    between atoms: C_7  and  O_8
REMARK    3  A    between atoms: O_8  and  C_9
REMARK    4  A    between atoms: C_9  and  C_10
REMARK    5  A    between atoms: C_10  and  C_11
REMARK    6  A    between atoms: C_15  and  O_16
REMARK    7  A    between atoms: O_16  and  C_17
REMARK                            x       y       z     vdW  Elec       q    Type
REMARK                         _______ _______ _______ _____ _____    ______ ____
ROOT
ATOM      1  C   UNL     1      44.881   4.735  11.656  0.00  0.00    +0.000 C 
ENDROOT
BRANCH   1   2
ATOM      2  O   UNL     1      44.207   4.655  10.392  0.00  0.00    +0.000 OA
BRANCH   2   6
ATOM      3  C   UNL     1      46.512   2.777   7.529  0.00  0.00    +0.000 A 
ATOM      4  C   UNL     1      45.806   2.009   8.456  0.00  0.00    +0.000 A 
ATOM      5  C   UNL     1      45.031   2.652   9.428  0.00  0.00    +0.000 A 
ATOM      6  C   UNL     1      44.995   4.040   9.432  0.00  0.00    +0.000 A 
ATOM      7  N   UNL     1      45.680   4.800   8.555  0.00  0.00    +0.000 NA
ATOM      8  C   UNL     1      46.431   4.160   7.632  0.00  0.00    +0.000 A 
BRANCH   3  10
ATOM      9  N   UNL     1      47.098   2.619   5.180  0.00  0.00    +0.000 N 
ATOM     10  C   UNL     1      47.353   2.211   6.456  0.00  0.00    +0.000 C 
ATOM     11  O   UNL     1      48.270   1.441   6.701  0.00  0.00    +0.000 OA
ATOM     12  H   UNL     1      47.763   2.320   4.476  0.00  0.00    +0.000 HD
ATOM     13  H   UNL     1      46.544   3.440   4.972  0.00  0.00    +0.000 HD
ENDBRANCH   3  10
ENDBRANCH   2   6
ENDBRANCH   1   2
BRANCH   1  14
ATOM     14  C   UNL     1      45.050   6.197  12.068  0.00  0.00    +0.000 C 
BRANCH  14  15
ATOM     15  C   UNL     1      46.500   6.528  12.338  0.00  0.00    +0.000 A 
ATOM     16  C   UNL     1      47.259   7.226  11.390  0.00  0.00    +0.000 A 
ATOM     17  C   UNL     1      48.579   7.585  11.668  0.00  0.00    +0.000 A 
ATOM     18  C   UNL     1      49.160   7.254  12.897  0.00  0.00    +0.000 A 
ATOM     19  C   UNL     1      48.419   6.554  13.845  0.00  0.00    +0.000 A 
ATOM     20  C   UNL     1      47.092   6.203  13.568  0.00  0.00    +0.000 A 
BRANCH  19  21
ATOM     21  O   UNL     1      48.874   6.203  15.092  0.00  0.00    +0.000 OA
BRANCH  21  22
ATOM     22  C   UNL     1      48.963   7.214  16.123  0.00  0.00    +0.000 C 
ATOM     23  C   UNL     1      48.471   8.634  15.754  0.00  0.00    +0.000 C 
ATOM     24  C   UNL     1      49.774   9.216  16.316  0.00  0.00    +0.000 C 
ATOM     25  C   UNL     1      50.381   7.809  16.300  0.00  0.00    +0.000 C 
ENDBRANCH  21  22
ENDBRANCH  19  21
ENDBRANCH  14  15
ENDBRANCH   1  14
TORSDOF 7
ENDMDL
