MODEL 1
REMARK VINA RESULT:    -8.416      0.000      0.000
REMARK INTER + INTRA:         -12.389
REMARK INTER:                 -11.368
REMARK INTRA:                  -1.021
REMARK UNBOUND:                -1.021
REMARK  Name = 
REMARK  7 active torsions:
REMARK  status: ('A' for Active; 'I' for Inactive)
REMARK    1  A    between atoms: C_1  and  C_2
REMARK    2  A    between atoms: C_2  and  C_3
REMARK    3  A    between atoms: C_2  and  C_24
REMARK    4  A    between atoms: C_3  and  N_4
REMARK    5  A    between atoms: C_7  and  C_8
REMARK    6  A    between atoms: C_8  and  N_9
REMARK    7  A    between atoms: C_10  and  C_12
REMARK                            x       y       z     vdW  Elec       q    Type
REMARK                         _______ _______ _______ _____ _____    ______ ____
ROOT
ATOM      1  C   UNL     1      45.652   5.804  12.819  0.00  0.00    +0.000 C 
ENDROOT
BRANCH   1   5
ATOM      2  N   UNL     1      43.971   3.701  10.336  0.00  0.00    +0.000 NA
ATOM      3  C   UNL     1      44.992   3.207  11.267  0.00  0.00    +0.000 C 
ATOM      4  C   UNL     1      44.582   3.469  12.710  0.00  0.00    +0.000 C 
ATOM      5  C   UNL     1      44.371   4.962  12.973  0.00  0.00    +0.000 C 
ATOM      6  C   UNL     1      43.292   5.442  11.993  0.00  0.00    +0.000 C 
ATOM      7  C   UNL     1      43.658   5.124  10.534  0.00  0.00    +0.000 C 
BRANCH   2   8
ATOM      8  C   UNL     1      44.337   3.425   8.929  0.00  0.00    +0.000 C 
BRANCH   8  10
ATOM      9  C   UNL     1      46.156   5.086   8.281  0.00  0.00    +0.000 C 
ATOM     10  C   UNL     1      45.849   3.621   8.608  0.00  0.00    +0.000 C 
BRANCH  10  11
ATOM     11  C   UNL     1      46.318   2.701   7.491  0.00  0.00    +0.000 A 
ATOM     12  C   UNL     1      46.468   3.195   6.186  0.00  0.00    +0.000 A 
ATOM     13  C   UNL     1      46.988   2.384   5.175  0.00  0.00    +0.000 A 
ATOM     14  C   UNL     1      47.357   1.071   5.455  0.00  0.00    +0.000 A 
ATOM     15  C   UNL     1      47.189   0.560   6.741  0.00  0.00    +0.000 A 
ATOM     16  C   UNL     1      46.672   1.370   7.751  0.00  0.00    +0.000 A 
ENDBRANCH  10  11
ENDBRANCH   8  10
ENDBRANCH   2   8
ENDBRANCH   1   5
BRANCH   1  17
ATOM     17  N   UNL     1      46.397   5.936  14.049  0.00  0.00    +0.000 N 
ATOM     18  C   UNL     1      47.772   5.969  14.036  0.00  0.00    +0.000 C 
ATOM     19  O   UNL     1      48.420   5.961  12.995  0.00  0.00    +0.000 OA
ATOM     20  H   UNL     1      45.942   5.662  14.912  0.00  0.00    +0.000 HD
BRANCH  18  21
ATOM     21  C   UNL     1      48.423   6.084  15.345  0.00  0.00    +0.000 A 
ATOM     22  C   UNL     1      49.344   7.097  15.567  0.00  0.00    +0.000 A 
ATOM     23  S   UNL     1      49.946   7.130  17.164  0.00  0.00    +0.000 S 
ATOM     24  C   UNL     1      49.036   5.759  17.596  0.00  0.00    +0.000 A 
ATOM     25  N   UNL     1      49.102   5.235  18.848  0.00  0.00    +0.000 NA
ATOM     26  C   UNL     1      48.368   4.185  19.028  0.00  0.00    +0.000 A 
ATOM     27  N   UNL     1      47.580   3.606  18.065  0.00  0.00    +0.000 N 
ATOM     28  C   UNL     1      47.489   4.100  16.788  0.00  0.00    +0.000 A 
ATOM     29  O   UNL     1      46.781   3.562  15.950  0.00  0.00    +0.000 OA
ATOM     30  C   UNL     1      48.278   5.289  16.538  0.00  0.00    +0.000 A 
ATOM     31  H   UNL     1      47.034   2.784  18.270  0.00  0.00    +0.000 HD
ENDBRANCH  18  21
ENDBRANCH   1  17
TORSDOF 6
ENDMDL
MODEL 2
REMARK VINA RESULT:    -8.404      1.283      2.155
REMARK INTER + INTRA:         -12.372
REMARK INTER:                 -11.400
REMARK INTRA:                  -0.973
REMARK UNBOUND:                -1.021
REMARK  Name = 
REMARK  7 active torsions:
REMARK  status: ('A' for Active; 'I' for Inactive)
REMARK    1  A    between atoms: C_1  and  C_2
REMARK    2  A    between atoms: C_2  and  C_3
REMARK    3  A    between atoms: C_2  and  C_24
REMARK    4  A    between atoms: C_3  and  N_4
REMARK    5  A    between atoms: C_7  and  C_8
REMARK    6  A    between atoms: C_8  and  N_9
REMARK    7  A    between atoms: C_10  and  C_12
REMARK                            x       y       z     vdW  Elec       q    Type
REMARK                         _______ _______ _______ _____ _____    ______ ____
ROOT
ATOM      1  C   UNL     1      45.423   5.369  12.930  0.00  0.00    +0.000 C 
ENDROOT
BRANCH   1   5
ATOM      2  N   UNL     1      43.847   3.541  10.176  0.00  0.00    +0.000 NA
ATOM      3  C   UNL     1      44.746   2.923  11.156  0.00  0.00    +0.000 C 
ATOM      4  C   UNL     1      44.226   3.122  12.573  0.00  0.00    +0.000 C 
ATOM      5  C   UNL     1      44.084   4.607  12.916  0.00  0.00    +0.000 C 
ATOM      6  C   UNL     1      43.129   5.218  11.882  0.00  0.00    +0.000 C 
ATOM      7  C   UNL     1      43.605   4.967  10.442  0.00  0.00    +0.000 C 
BRANCH   2   8
ATOM      8  C   UNL     1      44.320   3.327   8.791  0.00  0.00    +0.000 C 
BRANCH   8  10
ATOM      9  C   UNL     1      46.148   5.048   8.356  0.00  0.00    +0.000 C 
ATOM     10  C   UNL     1      45.847   3.564   8.590  0.00  0.00    +0.000 C 
BRANCH  10  11
ATOM     11  C   UNL     1      46.413   2.707   7.468  0.00  0.00    +0.000 A 
ATOM     12  C   UNL     1      46.743   1.363   7.704  0.00  0.00    +0.000 A 
ATOM     13  C   UNL     1      47.174   0.544   6.659  0.00  0.00    +0.000 A 
ATOM     14  C   UNL     1      47.287   1.059   5.370  0.00  0.00    +0.000 A 
ATOM     15  C   UNL     1      46.988   2.398   5.127  0.00  0.00    +0.000 A 
ATOM     16  C   UNL     1      46.555   3.216   6.169  0.00  0.00    +0.000 A 
ENDBRANCH  10  11
ENDBRANCH   8  10
ENDBRANCH   2   8
ENDBRANCH   1   5
BRANCH   1  17
ATOM     17  N   UNL     1      46.085   5.333  14.213  0.00  0.00    +0.000 N 
ATOM     18  C   UNL     1      47.013   4.358  14.496  0.00  0.00    +0.000 C 
ATOM     19  O   UNL     1      47.372   3.531  13.665  0.00  0.00    +0.000 OA
ATOM     20  H   UNL     1      45.630   5.790  14.995  0.00  0.00    +0.000 HD
BRANCH  18  21
ATOM     21  C   UNL     1      47.604   4.407  15.837  0.00  0.00    +0.000 A 
ATOM     22  C   UNL     1      47.398   3.355  16.717  0.00  0.00    +0.000 A 
ATOM     23  S   UNL     1      48.219   3.540  18.202  0.00  0.00    +0.000 S 
ATOM     24  C   UNL     1      48.834   5.057  17.738  0.00  0.00    +0.000 A 
ATOM     25  N   UNL     1      49.622   5.783  18.574  0.00  0.00    +0.000 NA
ATOM     26  C   UNL     1      50.004   6.923  18.094  0.00  0.00    +0.000 A 
ATOM     27  N   UNL     1      49.661   7.403  16.855  0.00  0.00    +0.000 N 
ATOM     28  C   UNL     1      48.865   6.704  15.983  0.00  0.00    +0.000 A 
ATOM     29  O   UNL     1      48.575   7.160  14.886  0.00  0.00    +0.000 OA
ATOM     30  C   UNL     1      48.425   5.411  16.465  0.00  0.00    +0.000 A 
ATOM     31  H   UNL     1      49.990   8.303  16.542  0.00  0.00    +0.000 HD
ENDBRANCH  18  21
ENDBRANCH   1  17
TORSDOF 6
ENDMDL
MODEL 3
REMARK VINA RESULT:    -7.525      1.804      2.568
REMARK INTER + INTRA:         -11.185
REMARK INTER:                 -11.550
REMARK INTRA:                   0.364
REMARK UNBOUND:                -1.021
REMARK  Name = 
REMARK  7 active torsions:
REMARK  status: ('A' for Active; 'I' for Inactive)
REMARK    1  A    between atoms: C_1  and  C_2
REMARK    2  A    between atoms: C_2  and  C_3
REMARK    3  A    between atoms: C_2  and  C_24
REMARK    4  A    between atoms: C_3  and  N_4
REMARK    5  A    between atoms: C_7  and  C_8
REMARK    6  A    between atoms: C_8  and  N_9
REMARK    7  A    between atoms: C_10  and  C_12
REMARK                            x       y       z     vdW  Elec       q    Type
REMARK                         _______ _______ _______ _____ _____    ______ ____
ROOT
ATOM      1  C   UNL     1      46.907   4.775  13.964  0.00  0.00    +0.000 C 
ENDROOT
BRANCH   1   5
ATOM      2  N   UNL     1      45.260   5.093  10.709  0.00  0.00    +0.000 NA
ATOM      3  C   UNL     1      45.292   3.851  11.490  0.00  0.00    +0.000 C 
ATOM      4  C   UNL     1      44.692   4.063  12.873  0.00  0.00    +0.000 C 
ATOM      5  C   UNL     1      45.445   5.144  13.653  0.00  0.00    +0.000 C 
ATOM      6  C   UNL     1      45.381   6.428  12.816  0.00  0.00    +0.000 C 
ATOM      7  C   UNL     1      45.921   6.215  11.393  0.00  0.00    +0.000 C 
BRANCH   2   8
ATOM      8  C   UNL     1      45.809   4.897   9.350  0.00  0.00    +0.000 C 
BRANCH   8  10
ATOM      9  C   UNL     1      44.133   2.978   9.371  0.00  0.00    +0.000 C 
ATOM     10  C   UNL     1      45.044   3.842   8.494  0.00  0.00    +0.000 C 
BRANCH  10  11
ATOM     11  C   UNL     1      45.990   2.981   7.672  0.00  0.00    +0.000 A 
ATOM     12  C   UNL     1      46.297   1.675   8.087  0.00  0.00    +0.000 A 
ATOM     13  C   UNL     1      47.088   0.844   7.291  0.00  0.00    +0.000 A 
ATOM     14  C   UNL     1      47.587   1.310   6.077  0.00  0.00    +0.000 A 
ATOM     15  C   UNL     1      47.313   2.613   5.666  0.00  0.00    +0.000 A 
ATOM     16  C   UNL     1      46.520   3.442   6.458  0.00  0.00    +0.000 A 
ENDBRANCH  10  11
ENDBRANCH   8  10
ENDBRANCH   2   8
ENDBRANCH   1   5
BRANCH   1  17
ATOM     17  N   UNL     1      47.327   5.180  15.286  0.00  0.00    +0.000 N 
ATOM     18  C   UNL     1      47.515   4.246  16.278  0.00  0.00    +0.000 C 
ATOM     19  O   UNL     1      47.409   3.042  16.076  0.00  0.00    +0.000 OA
ATOM     20  H   UNL     1      47.150   6.137  15.569  0.00  0.00    +0.000 HD
BRANCH  18  21
ATOM     21  C   UNL     1      47.920   4.773  17.585  0.00  0.00    +0.000 A 
ATOM     22  C   UNL     1      47.034   5.551  18.317  0.00  0.00    +0.000 A 
ATOM     23  S   UNL     1      47.639   6.015  19.844  0.00  0.00    +0.000 S 
ATOM     24  C   UNL     1      49.125   5.237  19.556  0.00  0.00    +0.000 A 
ATOM     25  N   UNL     1      50.124   5.262  20.477  0.00  0.00    +0.000 NA
ATOM     26  C   UNL     1      51.200   4.641  20.116  0.00  0.00    +0.000 A 
ATOM     27  N   UNL     1      51.369   4.005  18.912  0.00  0.00    +0.000 N 
ATOM     28  C   UNL     1      50.389   3.961  17.954  0.00  0.00    +0.000 A 
ATOM     29  O   UNL     1      50.569   3.388  16.889  0.00  0.00    +0.000 OA
ATOM     30  C   UNL     1      49.153   4.625  18.316  0.00  0.00    +0.000 A 
ATOM     31  H   UNL     1      52.237   3.542  18.691  0.00  0.00    +0.000 HD
ENDBRANCH  18  21
ENDBRANCH   1  17
TORSDOF 6
ENDMDL
MODEL 4
REMARK VINA RESULT:    -7.255      3.485     10.202
REMARK INTER + INTRA:         -10.820
REMARK INTER:                  -9.647
REMARK INTRA:                  -1.174
REMARK UNBOUND:                -1.021
REMARK  Name = 
REMARK  7 active torsions:
REMARK  status: ('A' for Active; 'I' for Inactive)
REMARK    1  A    between atoms: C_1  and  C_2
REMARK    2  A    between atoms: C_2  and  C_3
REMARK    3  A    between atoms: C_2  and  C_24
REMARK    4  A    between atoms: C_3  and  N_4
REMARK    5  A    between atoms: C_7  and  C_8
REMARK    6  A    between atoms: C_8  and  N_9
REMARK    7  A    between atoms: C_10  and  C_12
REMARK                            x       y       z     vdW  Elec       q    Type
REMARK                         _______ _______ _______ _____ _____    ______ ____
ROOT
ATOM      1  C   UNL     1      48.405   5.290  15.939  0.00  0.00    +0.000 C 
ENDROOT
BRANCH   1   5
ATOM      2  N   UNL     1      48.611   5.305  19.595  0.00  0.00    +0.000 NA
ATOM      3  C   UNL     1      47.363   5.496  18.847  0.00  0.00    +0.000 C 
ATOM      4  C   UNL     1      47.096   4.315  17.924  0.00  0.00    +0.000 C 
ATOM      5  C   UNL     1      48.235   4.116  16.921  0.00  0.00    +0.000 C 
ATOM      6  C   UNL     1      49.519   3.907  17.735  0.00  0.00    +0.000 C 
ATOM      7  C   UNL     1      49.768   5.059  18.722  0.00  0.00    +0.000 C 
BRANCH   2   8
ATOM      8  C   UNL     1      48.869   6.428  20.522  0.00  0.00    +0.000 C 
BRANCH   8  10
ATOM      9  C   UNL     1      50.212   8.523  19.976  0.00  0.00    +0.000 C 
ATOM     10  C   UNL     1      48.850   7.834  19.850  0.00  0.00    +0.000 C 
BRANCH  10  11
ATOM     11  C   UNL     1      47.738   8.714  20.400  0.00  0.00    +0.000 A 
ATOM     12  C   UNL     1      47.359   8.612  21.748  0.00  0.00    +0.000 A 
ATOM     13  C   UNL     1      46.407   9.481  22.285  0.00  0.00    +0.000 A 
ATOM     14  C   UNL     1      45.818  10.454  21.481  0.00  0.00    +0.000 A 
ATOM     15  C   UNL     1      46.165  10.548  20.135  0.00  0.00    +0.000 A 
ATOM     16  C   UNL     1      47.119   9.683  19.598  0.00  0.00    +0.000 A 
ENDBRANCH  10  11
ENDBRANCH   8  10
ENDBRANCH   2   8
ENDBRANCH   1   5
BRANCH   1  17
ATOM     17  N   UNL     1      47.307   5.418  15.009  0.00  0.00    +0.000 N 
ATOM     18  C   UNL     1      47.512   5.923  13.747  0.00  0.00    +0.000 C 
ATOM     19  O   UNL     1      48.627   6.217  13.330  0.00  0.00    +0.000 OA
ATOM     20  H   UNL     1      46.367   5.464  15.387  0.00  0.00    +0.000 HD
BRANCH  18  21
ATOM     21  C   UNL     1      46.322   6.028  12.897  0.00  0.00    +0.000 A 
ATOM     22  C   UNL     1      45.885   7.276  12.477  0.00  0.00    +0.000 A 
ATOM     23  S   UNL     1      44.535   7.207  11.435  0.00  0.00    +0.000 S 
ATOM     24  C   UNL     1      44.457   5.512  11.553  0.00  0.00    +0.000 A 
ATOM     25  N   UNL     1      43.498   4.803  10.902  0.00  0.00    +0.000 NA
ATOM     26  C   UNL     1      43.553   3.525  11.095  0.00  0.00    +0.000 A 
ATOM     27  N   UNL     1      44.477   2.893  11.889  0.00  0.00    +0.000 N 
ATOM     28  C   UNL     1      45.457   3.571  12.567  0.00  0.00    +0.000 A 
ATOM     29  O   UNL     1      46.266   2.981  13.269  0.00  0.00    +0.000 OA
ATOM     30  C   UNL     1      45.453   5.006  12.369  0.00  0.00    +0.000 A 
ATOM     31  H   UNL     1      44.461   1.892  12.001  0.00  0.00    +0.000 HD
ENDBRANCH  18  21
ENDBRANCH   1  17
TORSDOF 6
ENDMDL
MODEL 5
REMARK VINA RESULT:    -7.108      3.297      8.376
REMARK INTER + INTRA:         -10.622
REMARK INTER:                  -9.558
REMARK INTRA:                  -1.064
REMARK UNBOUND:                -1.021
REMARK  Name = 
REMARK  7 active torsions:
REMARK  status: ('A' for Active; 'I' for Inactive)
REMARK    1  A    between atoms: C_1  and  C_2
REMARK    2  A    between atoms: C_2  and  C_3
REMARK    3  A    between atoms: C_2  and  C_24
REMARK    4  A    between atoms: C_3  and  N_4
REMARK    5  A    between atoms: C_7  and  C_8
REMARK    6  A    between atoms: C_8  and  N_9
REMARK    7  A    between atoms: C_10  and  C_12
REMARK                            x       y       z     vdW  Elec       q    Type
REMARK                         _______ _______ _______ _____ _____    ______ ____
ROOT
ATOM      1  C   UNL     1      46.445   8.391  12.794  0.00  0.00    +0.000 C 
ENDROOT
BRANCH   1   5
ATOM      2  N   UNL     1      49.801   7.832  14.147  0.00  0.00    +0.000 NA
ATOM      3  C   UNL     1      49.097   6.874  13.288  0.00  0.00    +0.000 C 
ATOM      4  C   UNL     1      48.712   7.513  11.961  0.00  0.00    +0.000 C 
ATOM      5  C   UNL     1      47.809   8.732  12.166  0.00  0.00    +0.000 C 
ATOM      6  C   UNL     1      48.579   9.717  13.055  0.00  0.00    +0.000 C 
ATOM      7  C   UNL     1      49.035   9.067  14.372  0.00  0.00    +0.000 C 
BRANCH   2   8
ATOM      8  C   UNL     1      50.213   7.218  15.428  0.00  0.00    +0.000 C 
BRANCH   8  10
ATOM      9  C   UNL     1      49.202   7.700  17.716  0.00  0.00    +0.000 C 
ATOM     10  C   UNL     1      49.037   6.923  16.406  0.00  0.00    +0.000 C 
BRANCH  10  11
ATOM     11  C   UNL     1      48.875   5.434  16.670  0.00  0.00    +0.000 A 
ATOM     12  C   UNL     1      47.780   4.737  16.134  0.00  0.00    +0.000 A 
ATOM     13  C   UNL     1      47.673   3.354  16.290  0.00  0.00    +0.000 A 
ATOM     14  C   UNL     1      48.653   2.653  16.990  0.00  0.00    +0.000 A 
ATOM     15  C   UNL     1      49.730   3.336  17.551  0.00  0.00    +0.000 A 
ATOM     16  C   UNL     1      49.839   4.717  17.392  0.00  0.00    +0.000 A 
ENDBRANCH  10  11
ENDBRANCH   8  10
ENDBRANCH   2   8
ENDBRANCH   1   5
BRANCH   1  17
ATOM     17  N   UNL     1      46.024   7.033  12.539  0.00  0.00    +0.000 N 
ATOM     18  C   UNL     1      44.949   6.773  11.722  0.00  0.00    +0.000 C 
ATOM     19  O   UNL     1      44.351   7.659  11.121  0.00  0.00    +0.000 OA
ATOM     20  H   UNL     1      46.286   6.321  13.211  0.00  0.00    +0.000 HD
BRANCH  18  21
ATOM     21  C   UNL     1      44.599   5.360  11.553  0.00  0.00    +0.000 A 
ATOM     22  C   UNL     1      43.920   4.695  12.564  0.00  0.00    +0.000 A 
ATOM     23  S   UNL     1      43.527   3.081  12.171  0.00  0.00    +0.000 S 
ATOM     24  C   UNL     1      44.297   3.201  10.659  0.00  0.00    +0.000 A 
ATOM     25  N   UNL     1      44.344   2.145   9.805  0.00  0.00    +0.000 NA
ATOM     26  C   UNL     1      44.975   2.377   8.699  0.00  0.00    +0.000 A 
ATOM     27  N   UNL     1      45.570   3.570   8.375  0.00  0.00    +0.000 N 
ATOM     28  C   UNL     1      45.550   4.659   9.209  0.00  0.00    +0.000 A 
ATOM     29  O   UNL     1      46.091   5.709   8.893  0.00  0.00    +0.000 OA
ATOM     30  C   UNL     1      44.838   4.458  10.455  0.00  0.00    +0.000 A 
ATOM     31  H   UNL     1      46.050   3.684   7.496  0.00  0.00    +0.000 HD
ENDBRANCH  18  21
ENDBRANCH   1  17
TORSDOF 6
ENDMDL
MODEL 6
REMARK VINA RESULT:    -7.085      2.459      4.231
REMARK INTER + INTRA:         -10.591
REMARK INTER:                  -9.614
REMARK INTRA:                  -0.977
REMARK UNBOUND:                -1.021
REMARK  Name = 
REMARK  7 active torsions:
REMARK  status: ('A' for Active; 'I' for Inactive)
REMARK    1  A    between atoms: C_1  and  C_2
REMARK    2  A    between atoms: C_2  and  C_3
REMARK    3  A    between atoms: C_2  and  C_24
REMARK    4  A    between atoms: C_3  and  N_4
REMARK    5  A    between atoms: C_7  and  C_8
REMARK    6  A    between atoms: C_8  and  N_9
REMARK    7  A    between atoms: C_10  and  C_12
REMARK                            x       y       z     vdW  Elec       q    Type
REMARK                         _______ _______ _______ _____ _____    ______ ____
ROOT
ATOM      1  C   UNL     1      48.536   7.602  15.157  0.00  0.00    +0.000 C 
ENDROOT
BRANCH   1   5
ATOM      2  N   UNL     1      46.207   6.512  12.551  0.00  0.00    +0.000 NA
ATOM      3  C   UNL     1      46.133   7.816  13.218  0.00  0.00    +0.000 C 
ATOM      4  C   UNL     1      47.437   8.586  13.053  0.00  0.00    +0.000 C 
ATOM      5  C   UNL     1      48.623   7.813  13.634  0.00  0.00    +0.000 C 
ATOM      6  C   UNL     1      48.678   6.462  12.908  0.00  0.00    +0.000 C 
ATOM      7  C   UNL     1      47.346   5.701  13.006  0.00  0.00    +0.000 C 
BRANCH   2   8
ATOM      8  C   UNL     1      44.936   5.764  12.672  0.00  0.00    +0.000 C 
BRANCH   8  10
ATOM      9  C   UNL     1      42.595   5.489  11.704  0.00  0.00    +0.000 C 
ATOM     10  C   UNL     1      44.067   5.761  11.378  0.00  0.00    +0.000 C 
BRANCH  10  11
ATOM     11  C   UNL     1      44.590   4.775  10.344  0.00  0.00    +0.000 A 
ATOM     12  C   UNL     1      44.096   3.461  10.310  0.00  0.00    +0.000 A 
ATOM     13  C   UNL     1      44.498   2.578   9.306  0.00  0.00    +0.000 A 
ATOM     14  C   UNL     1      45.403   2.994   8.331  0.00  0.00    +0.000 A 
ATOM     15  C   UNL     1      45.921   4.287   8.370  0.00  0.00    +0.000 A 
ATOM     16  C   UNL     1      45.517   5.171   9.370  0.00  0.00    +0.000 A 
ENDBRANCH  10  11
ENDBRANCH   8  10
ENDBRANCH   2   8
ENDBRANCH   1   5
BRANCH   1  17
ATOM     17  N   UNL     1      49.600   6.775  15.679  0.00  0.00    +0.000 N 
ATOM     18  C   UNL     1      49.419   6.042  16.828  0.00  0.00    +0.000 C 
ATOM     19  O   UNL     1      48.344   5.996  17.416  0.00  0.00    +0.000 OA
ATOM     20  H   UNL     1      50.551   6.999  15.409  0.00  0.00    +0.000 HD
BRANCH  18  21
ATOM     21  C   UNL     1      50.574   5.258  17.276  0.00  0.00    +0.000 A 
ATOM     22  C   UNL     1      51.694   5.907  17.776  0.00  0.00    +0.000 A 
ATOM     23  S   UNL     1      52.910   4.841  18.321  0.00  0.00    +0.000 S 
ATOM     24  C   UNL     1      52.003   3.478  17.858  0.00  0.00    +0.000 A 
ATOM     25  N   UNL     1      52.483   2.219  18.034  0.00  0.00    +0.000 NA
ATOM     26  C   UNL     1      51.692   1.281  17.622  0.00  0.00    +0.000 A 
ATOM     27  N   UNL     1      50.466   1.492  17.043  0.00  0.00    +0.000 N 
ATOM     28  C   UNL     1      49.947   2.745  16.843  0.00  0.00    +0.000 A 
ATOM     29  O   UNL     1      48.852   2.902  16.321  0.00  0.00    +0.000 OA
ATOM     30  C   UNL     1      50.786   3.832  17.304  0.00  0.00    +0.000 A 
ATOM     31  H   UNL     1      49.899   0.716  16.740  0.00  0.00    +0.000 HD
ENDBRANCH  18  21
ENDBRANCH   1  17
TORSDOF 6
ENDMDL
MODEL 7
REMARK VINA RESULT:    -6.992      3.383      9.089
REMARK INTER + INTRA:         -10.466
REMARK INTER:                  -9.222
REMARK INTRA:                  -1.244
REMARK UNBOUND:                -1.021
REMARK  Name = 
REMARK  7 active torsions:
REMARK  status: ('A' for Active; 'I' for Inactive)
REMARK    1  A    between atoms: C_1  and  C_2
REMARK    2  A    between atoms: C_2  and  C_3
REMARK    3  A    between atoms: C_2  and  C_24
REMARK    4  A    between atoms: C_3  and  N_4
REMARK    5  A    between atoms: C_7  and  C_8
REMARK    6  A    between atoms: C_8  and  N_9
REMARK    7  A    between atoms: C_10  and  C_12
REMARK                            x       y       z     vdW  Elec       q    Type
REMARK                         _______ _______ _______ _____ _____    ______ ____
ROOT
ATOM      1  C   UNL     1      48.117   5.246  16.064  0.00  0.00    +0.000 C 
ENDROOT
BRANCH   1   5
ATOM      2  N   UNL     1      50.069   4.323  19.021  0.00  0.00    +0.000 NA
ATOM      3  C   UNL     1      49.376   5.607  18.869  0.00  0.00    +0.000 C 
ATOM      4  C   UNL     1      47.889   5.397  18.619  0.00  0.00    +0.000 C 
ATOM      5  C   UNL     1      47.643   4.563  17.360  0.00  0.00    +0.000 C 
ATOM      6  C   UNL     1      48.369   3.225  17.558  0.00  0.00    +0.000 C 
ATOM      7  C   UNL     1      49.859   3.422  17.879  0.00  0.00    +0.000 C 
BRANCH   2   8
ATOM      8  C   UNL     1      51.510   4.510  19.298  0.00  0.00    +0.000 C 
BRANCH   8  10
ATOM      9  C   UNL     1      53.473   2.944  18.869  0.00  0.00    +0.000 C 
ATOM     10  C   UNL     1      52.455   3.890  18.226  0.00  0.00    +0.000 C 
BRANCH  10  11
ATOM     11  C   UNL     1      53.150   4.958  17.394  0.00  0.00    +0.000 A 
ATOM     12  C   UNL     1      54.539   4.905  17.197  0.00  0.00    +0.000 A 
ATOM     13  C   UNL     1      55.172   5.825  16.358  0.00  0.00    +0.000 A 
ATOM     14  C   UNL     1      54.427   6.810  15.715  0.00  0.00    +0.000 A 
ATOM     15  C   UNL     1      53.052   6.891  15.924  0.00  0.00    +0.000 A 
ATOM     16  C   UNL     1      52.418   5.971  16.758  0.00  0.00    +0.000 A 
ENDBRANCH  10  11
ENDBRANCH   8  10
ENDBRANCH   2   8
ENDBRANCH   1   5
BRANCH   1  17
ATOM     17  N   UNL     1      47.079   5.356  15.065  0.00  0.00    +0.000 N 
ATOM     18  C   UNL     1      47.366   5.818  13.802  0.00  0.00    +0.000 C 
ATOM     19  O   UNL     1      48.508   6.084  13.444  0.00  0.00    +0.000 OA
ATOM     20  H   UNL     1      46.119   5.426  15.384  0.00  0.00    +0.000 HD
BRANCH  18  21
ATOM     21  C   UNL     1      46.231   5.909  12.879  0.00  0.00    +0.000 A 
ATOM     22  C   UNL     1      45.789   7.153  12.454  0.00  0.00    +0.000 A 
ATOM     23  S   UNL     1      44.511   7.071  11.325  0.00  0.00    +0.000 S 
ATOM     24  C   UNL     1      44.471   5.372  11.408  0.00  0.00    +0.000 A 
ATOM     25  N   UNL     1      43.574   4.652  10.684  0.00  0.00    +0.000 NA
ATOM     26  C   UNL     1      43.650   3.372  10.858  0.00  0.00    +0.000 A 
ATOM     27  N   UNL     1      44.538   2.748  11.699  0.00  0.00    +0.000 N 
ATOM     28  C   UNL     1      45.455   3.438  12.451  0.00  0.00    +0.000 A 
ATOM     29  O   UNL     1      46.231   2.855  13.193  0.00  0.00    +0.000 OA
ATOM     30  C   UNL     1      45.425   4.876  12.278  0.00  0.00    +0.000 A 
ATOM     31  H   UNL     1      44.542   1.745  11.792  0.00  0.00    +0.000 HD
ENDBRANCH  18  21
ENDBRANCH   1  17
TORSDOF 6
ENDMDL
MODEL 8
REMARK VINA RESULT:    -6.867      3.841      8.801
REMARK INTER + INTRA:         -10.296
REMARK INTER:                  -9.098
REMARK INTRA:                  -1.198
REMARK UNBOUND:                -1.021
REMARK  Name = 
REMARK  7 active torsions:
REMARK  status: ('A' for Active; 'I' for Inactive)
REMARK    1  A    between atoms: C_1  and  C_2
REMARK    2  A    between atoms: C_2  and  C_3
REMARK    3  A    between atoms: C_2  and  C_24
REMARK    4  A    between atoms: C_3  and  N_4
REMARK    5  A    between atoms: C_7  and  C_8
REMARK    6  A    between atoms: C_8  and  N_9
REMARK    7  A    between atoms: C_10  and  C_12
REMARK                            x       y       z     vdW  Elec       q    Type
REMARK                         _______ _______ _______ _____ _____    ______ ____
ROOT
ATOM      1  C   UNL     1      49.124   7.330  15.203  0.00  0.00    +0.000 C 
ENDROOT
BRANCH   1   5
ATOM      2  N   UNL     1      49.670   7.623  18.812  0.00  0.00    +0.000 NA
ATOM      3  C   UNL     1      50.741   7.720  17.814  0.00  0.00    +0.000 C 
ATOM      4  C   UNL     1      50.452   8.830  16.813  0.00  0.00    +0.000 C 
ATOM      5  C   UNL     1      49.129   8.596  16.080  0.00  0.00    +0.000 C 
ATOM      6  C   UNL     1      48.032   8.513  17.149  0.00  0.00    +0.000 C 
ATOM      7  C   UNL     1      48.341   7.442  18.208  0.00  0.00    +0.000 C 
BRANCH   2   8
ATOM      8  C   UNL     1      49.950   6.571  19.814  0.00  0.00    +0.000 C 
BRANCH   8  10
ATOM      9  C   UNL     1      48.681   4.798  21.132  0.00  0.00    +0.000 C 
ATOM     10  C   UNL     1      48.999   5.340  19.734  0.00  0.00    +0.000 C 
BRANCH  10  11
ATOM     11  C   UNL     1      49.558   4.246  18.838  0.00  0.00    +0.000 A 
ATOM     12  C   UNL     1      48.689   3.408  18.121  0.00  0.00    +0.000 A 
ATOM     13  C   UNL     1      49.191   2.464  17.223  0.00  0.00    +0.000 A 
ATOM     14  C   UNL     1      50.566   2.342  17.037  0.00  0.00    +0.000 A 
ATOM     15  C   UNL     1      51.441   3.148  17.762  0.00  0.00    +0.000 A 
ATOM     16  C   UNL     1      50.940   4.093  18.656  0.00  0.00    +0.000 A 
ENDBRANCH  10  11
ENDBRANCH   8  10
ENDBRANCH   2   8
ENDBRANCH   1   5
BRANCH   1  17
ATOM     17  N   UNL     1      47.862   7.103  14.537  0.00  0.00    +0.000 N 
ATOM     18  C   UNL     1      47.802   6.359  13.383  0.00  0.00    +0.000 C 
ATOM     19  O   UNL     1      48.785   5.798  12.910  0.00  0.00    +0.000 OA
ATOM     20  H   UNL     1      47.108   7.757  14.715  0.00  0.00    +0.000 HD
BRANCH  18  21
ATOM     21  C   UNL     1      46.472   6.213  12.783  0.00  0.00    +0.000 A 
ATOM     22  C   UNL     1      45.811   7.333  12.298  0.00  0.00    +0.000 A 
ATOM     23  S   UNL     1      44.312   6.972  11.565  0.00  0.00    +0.000 S 
ATOM     24  C   UNL     1      44.472   5.316  11.920  0.00  0.00    +0.000 A 
ATOM     25  N   UNL     1      43.507   4.425  11.574  0.00  0.00    +0.000 NA
ATOM     26  C   UNL     1      43.757   3.203  11.920  0.00  0.00    +0.000 A 
ATOM     27  N   UNL     1      44.883   2.795  12.589  0.00  0.00    +0.000 N 
ATOM     28  C   UNL     1      45.878   3.663  12.961  0.00  0.00    +0.000 A 
ATOM     29  O   UNL     1      46.870   3.270  13.559  0.00  0.00    +0.000 OA
ATOM     30  C   UNL     1      45.657   5.043  12.579  0.00  0.00    +0.000 A 
ATOM     31  H   UNL     1      45.015   1.826  12.833  0.00  0.00    +0.000 HD
ENDBRANCH  18  21
ENDBRANCH   1  17
TORSDOF 6
ENDMDL
MODEL 9
REMARK VINA RESULT:    -6.794      3.918      9.821
REMARK INTER + INTRA:         -10.198
REMARK INTER:                  -8.954
REMARK INTRA:                  -1.244
REMARK UNBOUND:                -1.021
REMARK  Name = 
REMARK  7 active torsions:
REMARK  status: ('A' for Active; 'I' for Inactive)
REMARK    1  A    between atoms: C_1  and  C_2
REMARK    2  A    between atoms: C_2  and  C_3
REMARK    3  A    between atoms: C_2  and  C_24
REMARK    4  A    between atoms: C_3  and  N_4
REMARK    5  A    between atoms: C_7  and  C_8
REMARK    6  A    between atoms: C_8  and  N_9
REMARK    7  A    between atoms: C_10  and  C_12
REMARK                            x       y       z     vdW  Elec       q    Type
REMARK                         _______ _______ _______ _____ _____    ______ ____
ROOT
ATOM      1  C   UNL     1      48.952   7.063  15.405  0.00  0.00    +0.000 C 
ENDROOT
BRANCH   1   5
ATOM      2  N   UNL     1      49.215   9.769  17.858  0.00  0.00    +0.000 NA
ATOM      3  C   UNL     1      50.279   8.791  17.604  0.00  0.00    +0.000 C 
ATOM      4  C   UNL     1      50.692   8.807  16.138  0.00  0.00    +0.000 C 
ATOM      5  C   UNL     1      49.512   8.485  15.218  0.00  0.00    +0.000 C 
ATOM      6  C   UNL     1      48.426   9.531  15.500  0.00  0.00    +0.000 C 
ATOM      7  C   UNL     1      48.044   9.577  16.989  0.00  0.00    +0.000 C 
BRANCH   2   8
ATOM      8  C   UNL     1      48.824   9.792  19.285  0.00  0.00    +0.000 C 
BRANCH   8  10
ATOM      9  C   UNL     1      46.554  10.115  20.395  0.00  0.00    +0.000 C 
ATOM     10  C   UNL     1      47.431   9.160  19.579  0.00  0.00    +0.000 C 
BRANCH  10  11
ATOM     11  C   UNL     1      47.552   7.807  20.264  0.00  0.00    +0.000 A 
ATOM     12  C   UNL     1      47.884   6.665  19.517  0.00  0.00    +0.000 A 
ATOM     13  C   UNL     1      48.091   5.438  20.151  0.00  0.00    +0.000 A 
ATOM     14  C   UNL     1      47.960   5.337  21.534  0.00  0.00    +0.000 A 
ATOM     15  C   UNL     1      47.604   6.456  22.284  0.00  0.00    +0.000 A 
ATOM     16  C   UNL     1      47.401   7.682  21.652  0.00  0.00    +0.000 A 
ENDBRANCH  10  11
ENDBRANCH   8  10
ENDBRANCH   2   8
ENDBRANCH   1   5
BRANCH   1  17
ATOM     17  N   UNL     1      47.713   6.842  14.696  0.00  0.00    +0.000 N 
ATOM     18  C   UNL     1      47.711   6.246  13.457  0.00  0.00    +0.000 C 
ATOM     19  O   UNL     1      48.732   5.814  12.933  0.00  0.00    +0.000 OA
ATOM     20  H   UNL     1      46.916   7.417  14.942  0.00  0.00    +0.000 HD
BRANCH  18  21
ATOM     21  C   UNL     1      46.398   6.092  12.822  0.00  0.00    +0.000 A 
ATOM     22  C   UNL     1      45.730   7.211  12.345  0.00  0.00    +0.000 A 
ATOM     23  S   UNL     1      44.254   6.842  11.570  0.00  0.00    +0.000 S 
ATOM     24  C   UNL     1      44.434   5.182  11.893  0.00  0.00    +0.000 A 
ATOM     25  N   UNL     1      43.492   4.282  11.505  0.00  0.00    +0.000 NA
ATOM     26  C   UNL     1      43.754   3.058  11.831  0.00  0.00    +0.000 A 
ATOM     27  N   UNL     1      44.871   2.654  12.518  0.00  0.00    +0.000 N 
ATOM     28  C   UNL     1      45.843   3.529  12.932  0.00  0.00    +0.000 A 
ATOM     29  O   UNL     1      46.827   3.140  13.544  0.00  0.00    +0.000 OA
ATOM     30  C   UNL     1      45.607   4.913  12.575  0.00  0.00    +0.000 A 
ATOM     31  H   UNL     1      45.014   1.682  12.744  0.00  0.00    +0.000 HD
ENDBRANCH  18  21
ENDBRANCH   1  17
TORSDOF 6
ENDMDL
