MODEL 1
REMARK VINA RESULT:    -7.314      0.000      0.000
REMARK INTER + INTRA:         -11.055
REMARK INTER:                  -9.879
REMARK INTRA:                  -1.175
REMARK UNBOUND:                -1.175
REMARK  Name = 
REMARK  7 active torsions:
REMARK  status: ('A' for Active; 'I' for Inactive)
REMARK    1  A    between atoms: C_1  and  C_2
REMARK    2  A    between atoms: C_2  and  N_3
REMARK    3  A    between atoms: N_3  and  C_4
REMARK    4  A    between atoms: C_4  and  C_5
REMARK    5  A    between atoms: C_8  and  C_9
REMARK    6  A    between atoms: C_9  and  N_10
REMARK    7  A    between atoms: C_18  and  C_20
REMARK                            x       y       z     vdW  Elec       q    Type
REMARK                         _______ _______ _______ _____ _____    ______ ____
ROOT
ATOM      1  N   UNL     1      45.932   7.124  12.062  0.00  0.00    +0.000 N 
ATOM      2  C   UNL     1      44.659   6.672  11.681  0.00  0.00    +0.000 C 
ATOM      3  O   UNL     1      43.725   7.452  11.502  0.00  0.00    +0.000 OA
ENDROOT
BRANCH   2   4
ATOM      4  C   UNL     1      44.420   5.233  11.533  0.00  0.00    +0.000 A 
ATOM      5  C   UNL     1      43.665   4.468  12.406  0.00  0.00    +0.000 A 
ATOM      6  S   UNL     1      43.487   2.845  11.904  0.00  0.00    +0.000 S 
ATOM      7  C   UNL     1      44.298   3.154  10.442  0.00  0.00    +0.000 A 
ATOM      8  N   UNL     1      44.404   2.200   9.480  0.00  0.00    +0.000 NA
ATOM      9  C   UNL     1      44.985   2.605   8.398  0.00  0.00    +0.000 A 
ATOM     10  N   UNL     1      45.500   3.862   8.206  0.00  0.00    +0.000 N 
ATOM     11  C   UNL     1      45.538   4.815   9.202  0.00  0.00    +0.000 A 
ATOM     12  O   UNL     1      46.217   5.828   9.085  0.00  0.00    +0.000 OA
ATOM     13  C   UNL     1      44.785   4.448  10.384  0.00  0.00    +0.000 A 
ATOM     14  H   UNL     1      46.001   4.091   7.361  0.00  0.00    +0.000 HD
ENDBRANCH   2   4
BRANCH   1  16
ATOM     15  C   UNL     1      47.438   9.109  11.960  0.00  0.00    +0.000 C 
ATOM     16  C   UNL     1      46.058   8.568  12.315  0.00  0.00    +0.000 C 
ENDBRANCH   1  16
BRANCH   1  17
ATOM     17  C   UNL     1      47.088   6.231  12.262  0.00  0.00    +0.000 C 
BRANCH  17  18
ATOM     18  C   UNL     1      47.399   5.854  13.686  0.00  0.00    +0.000 A 
ATOM     19  C   UNL     1      48.299   6.621  14.443  0.00  0.00    +0.000 A 
ATOM     20  C   UNL     1      48.737   6.167  15.687  0.00  0.00    +0.000 A 
ATOM     21  C   UNL     1      48.274   4.948  16.192  0.00  0.00    +0.000 A 
ATOM     22  C   UNL     1      47.305   4.231  15.475  0.00  0.00    +0.000 A 
ATOM     23  C   UNL     1      46.865   4.684  14.233  0.00  0.00    +0.000 A 
BRANCH  21  24
ATOM     24  C   UNL     1      48.894   4.339  17.427  0.00  0.00    +0.000 C 
BRANCH  24  25
ATOM     25  N   UNL     1      50.261   3.813  17.253  0.00  0.00    +0.000 NA
ATOM     26  C   UNL     1      51.178   4.412  18.236  0.00  0.00    +0.000 C 
ATOM     27  C   UNL     1      52.574   3.788  18.183  0.00  0.00    +0.000 C 
ATOM     28  C   UNL     1      52.502   2.280  18.376  0.00  0.00    +0.000 C 
ATOM     29  C   UNL     1      51.572   1.678  17.335  0.00  0.00    +0.000 C 
ATOM     30  C   UNL     1      50.200   2.345  17.377  0.00  0.00    +0.000 C 
ENDBRANCH  24  25
ENDBRANCH  21  24
ENDBRANCH  17  18
ENDBRANCH   1  17
TORSDOF 6
ENDMDL
MODEL 2
REMARK VINA RESULT:    -7.274      1.755      2.466
REMARK INTER + INTRA:         -11.001
REMARK INTER:                  -9.754
REMARK INTRA:                  -1.247
REMARK UNBOUND:                -1.175
REMARK  Name = 
REMARK  7 active torsions:
REMARK  status: ('A' for Active; 'I' for Inactive)
REMARK    1  A    between atoms: C_1  and  C_2
REMARK    2  A    between atoms: C_2  and  N_3
REMARK    3  A    between atoms: N_3  and  C_4
REMARK    4  A    between atoms: C_4  and  C_5
REMARK    5  A    between atoms: C_8  and  C_9
REMARK    6  A    between atoms: C_9  and  N_10
REMARK    7  A    between atoms: C_18  and  C_20
REMARK                            x       y       z     vdW  Elec       q    Type
REMARK                         _______ _______ _______ _____ _____    ______ ____
ROOT
ATOM      1  N   UNL     1      46.503   7.170  12.219  0.00  0.00    +0.000 N 
ATOM      2  C   UNL     1      45.198   6.878  11.791  0.00  0.00    +0.000 C 
ATOM      3  O   UNL     1      44.405   7.768  11.488  0.00  0.00    +0.000 OA
ENDROOT
BRANCH   2   4
ATOM      4  C   UNL     1      44.750   5.483  11.743  0.00  0.00    +0.000 A 
ATOM      5  C   UNL     1      44.016   4.858  12.738  0.00  0.00    +0.000 A 
ATOM      6  S   UNL     1      43.559   3.261  12.340  0.00  0.00    +0.000 S 
ATOM      7  C   UNL     1      44.211   3.409  10.777  0.00  0.00    +0.000 A 
ATOM      8  N   UNL     1      44.064   2.419   9.856  0.00  0.00    +0.000 NA
ATOM      9  C   UNL     1      44.550   2.705   8.693  0.00  0.00    +0.000 A 
ATOM     10  N   UNL     1      45.201   3.872   8.379  0.00  0.00    +0.000 N 
ATOM     11  C   UNL     1      45.495   4.841   9.316  0.00  0.00    +0.000 A 
ATOM     12  O   UNL     1      46.283   5.745   9.067  0.00  0.00    +0.000 OA
ATOM     13  C   UNL     1      44.856   4.619  10.597  0.00  0.00    +0.000 A 
ATOM     14  H   UNL     1      45.617   4.002   7.469  0.00  0.00    +0.000 HD
ENDBRANCH   2   4
BRANCH   1  16
ATOM     15  C   UNL     1      48.277   8.906  11.983  0.00  0.00    +0.000 C 
ATOM     16  C   UNL     1      46.833   8.596  12.363  0.00  0.00    +0.000 C 
ENDBRANCH   1  16
BRANCH   1  17
ATOM     17  C   UNL     1      47.496   6.137  12.567  0.00  0.00    +0.000 C 
BRANCH  17  18
ATOM     18  C   UNL     1      47.616   5.796  14.028  0.00  0.00    +0.000 A 
ATOM     19  C   UNL     1      48.459   6.545  14.865  0.00  0.00    +0.000 A 
ATOM     20  C   UNL     1      48.724   6.114  16.164  0.00  0.00    +0.000 A 
ATOM     21  C   UNL     1      48.142   4.937  16.646  0.00  0.00    +0.000 A 
ATOM     22  C   UNL     1      47.229   4.242  15.839  0.00  0.00    +0.000 A 
ATOM     23  C   UNL     1      46.963   4.672  14.541  0.00  0.00    +0.000 A 
BRANCH  21  24
ATOM     24  C   UNL     1      48.580   4.342  17.964  0.00  0.00    +0.000 C 
BRANCH  24  25
ATOM     25  N   UNL     1      48.629   5.286  19.095  0.00  0.00    +0.000 NA
ATOM     26  C   UNL     1      47.313   5.910  19.310  0.00  0.00    +0.000 C 
ATOM     27  C   UNL     1      47.284   6.787  20.563  0.00  0.00    +0.000 C 
ATOM     28  C   UNL     1      47.700   5.992  21.793  0.00  0.00    +0.000 C 
ATOM     29  C   UNL     1      49.073   5.379  21.561  0.00  0.00    +0.000 C 
ATOM     30  C   UNL     1      49.089   4.544  20.283  0.00  0.00    +0.000 C 
ENDBRANCH  24  25
ENDBRANCH  21  24
ENDBRANCH  17  18
ENDBRANCH   1  17
TORSDOF 6
ENDMDL
MODEL 3
REMARK VINA RESULT:    -6.983      1.344      2.026
REMARK INTER + INTRA:         -10.608
REMARK INTER:                  -9.271
REMARK INTRA:                  -1.336
REMARK UNBOUND:                -1.175
REMARK  Name = 
REMARK  7 active torsions:
REMARK  status: ('A' for Active; 'I' for Inactive)
REMARK    1  A    between atoms: C_1  and  C_2
REMARK    2  A    between atoms: C_2  and  N_3
REMARK    3  A    between atoms: N_3  and  C_4
REMARK    4  A    between atoms: C_4  and  C_5
REMARK    5  A    between atoms: C_8  and  C_9
REMARK    6  A    between atoms: C_9  and  N_10
REMARK    7  A    between atoms: C_18  and  C_20
REMARK                            x       y       z     vdW  Elec       q    Type
REMARK                         _______ _______ _______ _____ _____    ______ ____
ROOT
ATOM      1  N   UNL     1      46.218   7.580  12.200  0.00  0.00    +0.000 N 
ATOM      2  C   UNL     1      45.080   7.338  11.413  0.00  0.00    +0.000 C 
ATOM      3  O   UNL     1      44.187   8.175  11.299  0.00  0.00    +0.000 OA
ENDROOT
BRANCH   2   4
ATOM      4  C   UNL     1      44.928   6.041  10.746  0.00  0.00    +0.000 A 
ATOM      5  C   UNL     1      45.490   5.715   9.523  0.00  0.00    +0.000 A 
ATOM      6  S   UNL     1      45.217   4.094   9.063  0.00  0.00    +0.000 S 
ATOM      7  C   UNL     1      44.458   3.747  10.543  0.00  0.00    +0.000 A 
ATOM      8  N   UNL     1      44.067   2.483  10.856  0.00  0.00    +0.000 NA
ATOM      9  C   UNL     1      43.571   2.363  12.044  0.00  0.00    +0.000 A 
ATOM     10  N   UNL     1      43.396   3.396  12.930  0.00  0.00    +0.000 N 
ATOM     11  C   UNL     1      43.648   4.712  12.604  0.00  0.00    +0.000 A 
ATOM     12  O   UNL     1      43.255   5.628  13.317  0.00  0.00    +0.000 OA
ATOM     13  C   UNL     1      44.325   4.874  11.333  0.00  0.00    +0.000 A 
ATOM     14  H   UNL     1      42.939   3.243  13.816  0.00  0.00    +0.000 HD
ENDBRANCH   2   4
BRANCH   1  16
ATOM     15  C   UNL     1      47.249   9.843  12.379  0.00  0.00    +0.000 C 
ATOM     16  C   UNL     1      46.236   8.851  12.939  0.00  0.00    +0.000 C 
ENDBRANCH   1  16
BRANCH   1  17
ATOM     17  C   UNL     1      47.326   6.618  12.347  0.00  0.00    +0.000 C 
BRANCH  17  18
ATOM     18  C   UNL     1      47.590   6.116  13.740  0.00  0.00    +0.000 A 
ATOM     19  C   UNL     1      48.523   6.764  14.565  0.00  0.00    +0.000 A 
ATOM     20  C   UNL     1      48.913   6.190  15.774  0.00  0.00    +0.000 A 
ATOM     21  C   UNL     1      48.367   4.967  16.179  0.00  0.00    +0.000 A 
ATOM     22  C   UNL     1      47.367   4.370  15.397  0.00  0.00    +0.000 A 
ATOM     23  C   UNL     1      46.977   4.943  14.190  0.00  0.00    +0.000 A 
BRANCH  21  24
ATOM     24  C   UNL     1      48.929   4.228  17.371  0.00  0.00    +0.000 C 
BRANCH  24  25
ATOM     25  N   UNL     1      50.283   3.673  17.187  0.00  0.00    +0.000 NA
ATOM     26  C   UNL     1      51.231   4.294  18.128  0.00  0.00    +0.000 C 
ATOM     27  C   UNL     1      52.615   3.645  18.069  0.00  0.00    +0.000 C 
ATOM     28  C   UNL     1      52.523   2.146  18.321  0.00  0.00    +0.000 C 
ATOM     29  C   UNL     1      51.561   1.521  17.323  0.00  0.00    +0.000 C 
ATOM     30  C   UNL     1      50.201   2.213  17.369  0.00  0.00    +0.000 C 
ENDBRANCH  24  25
ENDBRANCH  21  24
ENDBRANCH  17  18
ENDBRANCH   1  17
TORSDOF 6
ENDMDL
MODEL 4
REMARK VINA RESULT:    -6.788      3.643      8.088
REMARK INTER + INTRA:         -10.344
REMARK INTER:                  -9.317
REMARK INTRA:                  -1.027
REMARK UNBOUND:                -1.175
REMARK  Name = 
REMARK  7 active torsions:
REMARK  status: ('A' for Active; 'I' for Inactive)
REMARK    1  A    between atoms: C_1  and  C_2
REMARK    2  A    between atoms: C_2  and  N_3
REMARK    3  A    between atoms: N_3  and  C_4
REMARK    4  A    between atoms: C_4  and  C_5
REMARK    5  A    between atoms: C_8  and  C_9
REMARK    6  A    between atoms: C_9  and  N_10
REMARK    7  A    between atoms: C_18  and  C_20
REMARK                            x       y       z     vdW  Elec       q    Type
REMARK                         _______ _______ _______ _____ _____    ______ ____
ROOT
ATOM      1  N   UNL     1      49.070   7.687  13.924  0.00  0.00    +0.000 N 
ATOM      2  C   UNL     1      49.933   7.755  15.029  0.00  0.00    +0.000 C 
ATOM      3  O   UNL     1      51.144   7.577  14.913  0.00  0.00    +0.000 OA
ENDROOT
BRANCH   2   4
ATOM      4  C   UNL     1      49.376   8.001  16.363  0.00  0.00    +0.000 A 
ATOM      5  C   UNL     1      49.332   9.240  16.981  0.00  0.00    +0.000 A 
ATOM      6  S   UNL     1      48.528   9.217  18.488  0.00  0.00    +0.000 S 
ATOM      7  C   UNL     1      48.100   7.583  18.293  0.00  0.00    +0.000 A 
ATOM      8  N   UNL     1      47.296   6.954  19.190  0.00  0.00    +0.000 NA
ATOM      9  C   UNL     1      47.001   5.736  18.871  0.00  0.00    +0.000 A 
ATOM     10  N   UNL     1      47.465   5.082  17.758  0.00  0.00    +0.000 N 
ATOM     11  C   UNL     1      48.391   5.634  16.897  0.00  0.00    +0.000 A 
ATOM     12  O   UNL     1      48.969   4.947  16.063  0.00  0.00    +0.000 OA
ATOM     13  C   UNL     1      48.648   7.038  17.146  0.00  0.00    +0.000 A 
ATOM     14  H   UNL     1      47.250   4.109  17.604  0.00  0.00    +0.000 HD
ENDBRANCH   2   4
BRANCH   1  16
ATOM     15  C   UNL     1      49.777   8.477  11.667  0.00  0.00    +0.000 C 
ATOM     16  C   UNL     1      49.688   7.309  12.643  0.00  0.00    +0.000 C 
ENDBRANCH   1  16
BRANCH   1  17
ATOM     17  C   UNL     1      47.617   7.918  14.009  0.00  0.00    +0.000 C 
BRANCH  17  18
ATOM     18  C   UNL     1      46.757   7.098  13.085  0.00  0.00    +0.000 A 
ATOM     19  C   UNL     1      46.032   7.717  12.054  0.00  0.00    +0.000 A 
ATOM     20  C   UNL     1      45.088   6.994  11.326  0.00  0.00    +0.000 A 
ATOM     21  C   UNL     1      44.865   5.643  11.612  0.00  0.00    +0.000 A 
ATOM     22  C   UNL     1      45.658   5.006  12.578  0.00  0.00    +0.000 A 
ATOM     23  C   UNL     1      46.601   5.727  13.306  0.00  0.00    +0.000 A 
BRANCH  21  24
ATOM     24  C   UNL     1      43.707   4.902  10.987  0.00  0.00    +0.000 C 
BRANCH  24  25
ATOM     25  N   UNL     1      44.035   4.125   9.777  0.00  0.00    +0.000 NA
ATOM     26  C   UNL     1      45.241   4.661   9.124  0.00  0.00    +0.000 C 
ATOM     27  C   UNL     1      45.698   3.797   7.949  0.00  0.00    +0.000 C 
ATOM     28  C   UNL     1      45.931   2.359   8.390  0.00  0.00    +0.000 C 
ATOM     29  C   UNL     1      44.666   1.815   9.036  0.00  0.00    +0.000 C 
ATOM     30  C   UNL     1      44.205   2.716  10.178  0.00  0.00    +0.000 C 
ENDBRANCH  24  25
ENDBRANCH  21  24
ENDBRANCH  17  18
ENDBRANCH   1  17
TORSDOF 6
ENDMDL
MODEL 5
REMARK VINA RESULT:    -6.514      3.189      8.114
REMARK INTER + INTRA:          -9.974
REMARK INTER:                  -8.777
REMARK INTRA:                  -1.197
REMARK UNBOUND:                -1.175
REMARK  Name = 
REMARK  7 active torsions:
REMARK  status: ('A' for Active; 'I' for Inactive)
REMARK    1  A    between atoms: C_1  and  C_2
REMARK    2  A    between atoms: C_2  and  N_3
REMARK    3  A    between atoms: N_3  and  C_4
REMARK    4  A    between atoms: C_4  and  C_5
REMARK    5  A    between atoms: C_8  and  C_9
REMARK    6  A    between atoms: C_9  and  N_10
REMARK    7  A    between atoms: C_18  and  C_20
REMARK                            x       y       z     vdW  Elec       q    Type
REMARK                         _______ _______ _______ _____ _____    ______ ____
ROOT
ATOM      1  N   UNL     1      48.817   7.406  16.283  0.00  0.00    +0.000 N 
ATOM      2  C   UNL     1      48.509   6.795  17.508  0.00  0.00    +0.000 C 
ATOM      3  O   UNL     1      48.320   7.455  18.528  0.00  0.00    +0.000 OA
ENDROOT
BRANCH   2   4
ATOM      4  C   UNL     1      48.452   5.332  17.590  0.00  0.00    +0.000 A 
ATOM      5  C   UNL     1      47.292   4.583  17.482  0.00  0.00    +0.000 A 
ATOM      6  S   UNL     1      47.568   2.898  17.514  0.00  0.00    +0.000 S 
ATOM      7  C   UNL     1      49.253   3.123  17.537  0.00  0.00    +0.000 A 
ATOM      8  N   UNL     1      50.106   2.067  17.461  0.00  0.00    +0.000 NA
ATOM      9  C   UNL     1      51.355   2.399  17.417  0.00  0.00    +0.000 A 
ATOM     10  N   UNL     1      51.827   3.686  17.479  0.00  0.00    +0.000 N 
ATOM     11  C   UNL     1      51.008   4.775  17.696  0.00  0.00    +0.000 A 
ATOM     12  O   UNL     1      51.473   5.869  17.992  0.00  0.00    +0.000 OA
ATOM     13  C   UNL     1      49.596   4.460  17.622  0.00  0.00    +0.000 A 
ATOM     14  H   UNL     1      52.818   3.871  17.509  0.00  0.00    +0.000 HD
ENDBRANCH   2   4
BRANCH   1  16
ATOM     15  C   UNL     1      50.438   9.291  16.480  0.00  0.00    +0.000 C 
ATOM     16  C   UNL     1      48.983   8.867  16.312  0.00  0.00    +0.000 C 
ENDBRANCH   1  16
BRANCH   1  17
ATOM     17  C   UNL     1      49.027   6.658  15.030  0.00  0.00    +0.000 C 
BRANCH  17  18
ATOM     18  C   UNL     1      47.814   6.468  14.158  0.00  0.00    +0.000 A 
ATOM     19  C   UNL     1      47.116   5.250  14.168  0.00  0.00    +0.000 A 
ATOM     20  C   UNL     1      46.120   5.002  13.224  0.00  0.00    +0.000 A 
ATOM     21  C   UNL     1      45.802   5.972  12.268  0.00  0.00    +0.000 A 
ATOM     22  C   UNL     1      46.437   7.222  12.321  0.00  0.00    +0.000 A 
ATOM     23  C   UNL     1      47.432   7.471  13.263  0.00  0.00    +0.000 A 
BRANCH  21  24
ATOM     24  C   UNL     1      44.884   5.646  11.114  0.00  0.00    +0.000 C 
BRANCH  24  25
ATOM     25  N   UNL     1      45.313   4.516  10.268  0.00  0.00    +0.000 NA
ATOM     26  C   UNL     1      44.245   3.508  10.166  0.00  0.00    +0.000 C 
ATOM     27  C   UNL     1      44.593   2.390   9.183  0.00  0.00    +0.000 C 
ATOM     28  C   UNL     1      44.918   2.957   7.808  0.00  0.00    +0.000 C 
ATOM     29  C   UNL     1      46.041   3.975   7.931  0.00  0.00    +0.000 C 
ATOM     30  C   UNL     1      45.689   5.056   8.949  0.00  0.00    +0.000 C 
ENDBRANCH  24  25
ENDBRANCH  21  24
ENDBRANCH  17  18
ENDBRANCH   1  17
TORSDOF 6
ENDMDL
MODEL 6
REMARK VINA RESULT:    -6.343      3.430      7.777
REMARK INTER + INTRA:          -9.743
REMARK INTER:                  -8.174
REMARK INTRA:                  -1.569
REMARK UNBOUND:                -1.175
REMARK  Name = 
REMARK  7 active torsions:
REMARK  status: ('A' for Active; 'I' for Inactive)
REMARK    1  A    between atoms: C_1  and  C_2
REMARK    2  A    between atoms: C_2  and  N_3
REMARK    3  A    between atoms: N_3  and  C_4
REMARK    4  A    between atoms: C_4  and  C_5
REMARK    5  A    between atoms: C_8  and  C_9
REMARK    6  A    between atoms: C_9  and  N_10
REMARK    7  A    between atoms: C_18  and  C_20
REMARK                            x       y       z     vdW  Elec       q    Type
REMARK                         _______ _______ _______ _____ _____    ______ ____
ROOT
ATOM      1  N   UNL     1      48.671   8.090  17.190  0.00  0.00    +0.000 N 
ATOM      2  C   UNL     1      48.828   7.067  18.138  0.00  0.00    +0.000 C 
ATOM      3  O   UNL     1      48.195   7.063  19.192  0.00  0.00    +0.000 OA
ENDROOT
BRANCH   2   4
ATOM      4  C   UNL     1      49.799   5.997  17.891  0.00  0.00    +0.000 A 
ATOM      5  C   UNL     1      51.131   6.042  18.267  0.00  0.00    +0.000 A 
ATOM      6  S   UNL     1      51.979   4.598  17.931  0.00  0.00    +0.000 S 
ATOM      7  C   UNL     1      50.561   3.828  17.398  0.00  0.00    +0.000 A 
ATOM      8  N   UNL     1      50.558   2.512  17.059  0.00  0.00    +0.000 NA
ATOM      9  C   UNL     1      49.392   2.051  16.742  0.00  0.00    +0.000 A 
ATOM     10  N   UNL     1      48.239   2.794  16.699  0.00  0.00    +0.000 N 
ATOM     11  C   UNL     1      48.220   4.158  16.899  0.00  0.00    +0.000 A 
ATOM     12  O   UNL     1      47.234   4.827  16.614  0.00  0.00    +0.000 OA
ATOM     13  C   UNL     1      49.479   4.690  17.381  0.00  0.00    +0.000 A 
ATOM     14  H   UNL     1      47.375   2.386  16.377  0.00  0.00    +0.000 HD
ENDBRANCH   2   4
BRANCH   1  16
ATOM     15  C   UNL     1      48.458  10.554  17.506  0.00  0.00    +0.000 C 
ATOM     16  C   UNL     1      47.775   9.193  17.569  0.00  0.00    +0.000 C 
ENDBRANCH   1  16
BRANCH   1  17
ATOM     17  C   UNL     1      49.388   8.124  15.902  0.00  0.00    +0.000 C 
BRANCH  17  18
ATOM     18  C   UNL     1      48.566   7.831  14.676  0.00  0.00    +0.000 A 
ATOM     19  C   UNL     1      47.628   8.766  14.210  0.00  0.00    +0.000 A 
ATOM     20  C   UNL     1      46.731   8.420  13.200  0.00  0.00    +0.000 A 
ATOM     21  C   UNL     1      46.770   7.141  12.635  0.00  0.00    +0.000 A 
ATOM     22  C   UNL     1      47.769   6.242  13.038  0.00  0.00    +0.000 A 
ATOM     23  C   UNL     1      48.665   6.587  14.047  0.00  0.00    +0.000 A 
BRANCH  21  24
ATOM     24  C   UNL     1      45.679   6.678  11.698  0.00  0.00    +0.000 C 
BRANCH  24  25
ATOM     25  N   UNL     1      45.298   5.259  11.827  0.00  0.00    +0.000 NA
ATOM     26  C   UNL     1      44.238   5.094  12.836  0.00  0.00    +0.000 C 
ATOM     27  C   UNL     1      43.714   3.659  12.898  0.00  0.00    +0.000 C 
ATOM     28  C   UNL     1      43.220   3.202  11.533  0.00  0.00    +0.000 C 
ATOM     29  C   UNL     1      44.337   3.354  10.512  0.00  0.00    +0.000 C 
ATOM     30  C   UNL     1      44.873   4.783  10.498  0.00  0.00    +0.000 C 
ENDBRANCH  24  25
ENDBRANCH  21  24
ENDBRANCH  17  18
ENDBRANCH   1  17
TORSDOF 6
ENDMDL
MODEL 7
REMARK VINA RESULT:    -6.237      3.590      8.451
REMARK INTER + INTRA:          -9.600
REMARK INTER:                  -8.279
REMARK INTRA:                  -1.321
REMARK UNBOUND:                -1.175
REMARK  Name = 
REMARK  7 active torsions:
REMARK  status: ('A' for Active; 'I' for Inactive)
REMARK    1  A    between atoms: C_1  and  C_2
REMARK    2  A    between atoms: C_2  and  N_3
REMARK    3  A    between atoms: N_3  and  C_4
REMARK    4  A    between atoms: C_4  and  C_5
REMARK    5  A    between atoms: C_8  and  C_9
REMARK    6  A    between atoms: C_9  and  N_10
REMARK    7  A    between atoms: C_18  and  C_20
REMARK                            x       y       z     vdW  Elec       q    Type
REMARK                         _______ _______ _______ _____ _____    ______ ____
ROOT
ATOM      1  N   UNL     1      49.721   7.764  15.043  0.00  0.00    +0.000 N 
ATOM      2  C   UNL     1      50.068   6.781  15.983  0.00  0.00    +0.000 C 
ATOM      3  O   UNL     1      51.221   6.367  16.087  0.00  0.00    +0.000 OA
ENDROOT
BRANCH   2   4
ATOM      4  C   UNL     1      49.026   6.199  16.835  0.00  0.00    +0.000 A 
ATOM      5  C   UNL     1      48.402   4.986  16.596  0.00  0.00    +0.000 A 
ATOM      6  S   UNL     1      47.307   4.534  17.827  0.00  0.00    +0.000 S 
ATOM      7  C   UNL     1      47.738   5.878  18.775  0.00  0.00    +0.000 A 
ATOM      8  N   UNL     1      47.241   6.044  20.030  0.00  0.00    +0.000 NA
ATOM      9  C   UNL     1      47.715   7.073  20.653  0.00  0.00    +0.000 A 
ATOM     10  N   UNL     1      48.608   7.969  20.123  0.00  0.00    +0.000 N 
ATOM     11  C   UNL     1      49.030   7.918  18.810  0.00  0.00    +0.000 A 
ATOM     12  O   UNL     1      49.625   8.859  18.299  0.00  0.00    +0.000 OA
ATOM     13  C   UNL     1      48.626   6.711  18.119  0.00  0.00    +0.000 A 
ATOM     14  H   UNL     1      48.885   8.789  20.641  0.00  0.00    +0.000 HD
ENDBRANCH   2   4
BRANCH   1  16
ATOM     15  C   UNL     1      51.014   9.712  14.176  0.00  0.00    +0.000 C 
ATOM     16  C   UNL     1      50.796   8.204  14.139  0.00  0.00    +0.000 C 
ENDBRANCH   1  16
BRANCH   1  17
ATOM     17  C   UNL     1      48.359   8.310  14.899  0.00  0.00    +0.000 C 
BRANCH  17  18
ATOM     18  C   UNL     1      47.533   7.749  13.773  0.00  0.00    +0.000 A 
ATOM     19  C   UNL     1      46.487   8.502  13.216  0.00  0.00    +0.000 A 
ATOM     20  C   UNL     1      45.600   7.915  12.314  0.00  0.00    +0.000 A 
ATOM     21  C   UNL     1      45.754   6.573  11.951  0.00  0.00    +0.000 A 
ATOM     22  C   UNL     1      46.855   5.852  12.437  0.00  0.00    +0.000 A 
ATOM     23  C   UNL     1      47.742   6.437  13.337  0.00  0.00    +0.000 A 
BRANCH  21  24
ATOM     24  C   UNL     1      44.689   5.863  11.149  0.00  0.00    +0.000 C 
BRANCH  24  25
ATOM     25  N   UNL     1      45.143   4.665  10.419  0.00  0.00    +0.000 NA
ATOM     26  C   UNL     1      44.076   3.652  10.368  0.00  0.00    +0.000 C 
ATOM     27  C   UNL     1      44.455   2.453   9.498  0.00  0.00    +0.000 C 
ATOM     28  C   UNL     1      44.830   2.899   8.091  0.00  0.00    +0.000 C 
ATOM     29  C   UNL     1      45.951   3.924   8.165  0.00  0.00    +0.000 C 
ATOM     30  C   UNL     1      45.566   5.089   9.072  0.00  0.00    +0.000 C 
ENDBRANCH  24  25
ENDBRANCH  21  24
ENDBRANCH  17  18
ENDBRANCH   1  17
TORSDOF 6
ENDMDL
MODEL 8
REMARK VINA RESULT:    -5.971      3.847      8.793
REMARK INTER + INTRA:          -9.241
REMARK INTER:                  -8.041
REMARK INTRA:                  -1.200
REMARK UNBOUND:                -1.175
REMARK  Name = 
REMARK  7 active torsions:
REMARK  status: ('A' for Active; 'I' for Inactive)
REMARK    1  A    between atoms: C_1  and  C_2
REMARK    2  A    between atoms: C_2  and  N_3
REMARK    3  A    between atoms: N_3  and  C_4
REMARK    4  A    between atoms: C_4  and  C_5
REMARK    5  A    between atoms: C_8  and  C_9
REMARK    6  A    between atoms: C_9  and  N_10
REMARK    7  A    between atoms: C_18  and  C_20
REMARK                            x       y       z     vdW  Elec       q    Type
REMARK                         _______ _______ _______ _____ _____    ______ ____
ROOT
ATOM      1  N   UNL     1      49.293   6.465  18.190  0.00  0.00    +0.000 N 
ATOM      2  C   UNL     1      49.893   5.593  19.112  0.00  0.00    +0.000 C 
ATOM      3  O   UNL     1      49.407   5.397  20.224  0.00  0.00    +0.000 OA
ENDROOT
BRANCH   2   4
ATOM      4  C   UNL     1      51.152   4.929  18.761  0.00  0.00    +0.000 A 
ATOM      5  C   UNL     1      52.411   5.409  19.084  0.00  0.00    +0.000 A 
ATOM      6  S   UNL     1      53.675   4.356  18.628  0.00  0.00    +0.000 S 
ATOM      7  C   UNL     1      52.572   3.172  18.110  0.00  0.00    +0.000 A 
ATOM      8  N   UNL     1      52.994   1.948  17.694  0.00  0.00    +0.000 NA
ATOM      9  C   UNL     1      52.036   1.131  17.400  0.00  0.00    +0.000 A 
ATOM     10  N   UNL     1      50.700   1.438  17.448  0.00  0.00    +0.000 N 
ATOM     11  C   UNL     1      50.232   2.705  17.729  0.00  0.00    +0.000 A 
ATOM     12  O   UNL     1      49.063   3.009  17.525  0.00  0.00    +0.000 OA
ATOM     13  C   UNL     1      51.263   3.613  18.189  0.00  0.00    +0.000 A 
ATOM     14  H   UNL     1      50.007   0.774  17.139  0.00  0.00    +0.000 HD
ENDBRANCH   2   4
BRANCH   1  16
ATOM     15  C   UNL     1      48.310   8.700  18.696  0.00  0.00    +0.000 C 
ATOM     16  C   UNL     1      48.104   7.190  18.664  0.00  0.00    +0.000 C 
ENDBRANCH   1  16
BRANCH   1  17
ATOM     17  C   UNL     1      49.824   6.711  16.837  0.00  0.00    +0.000 C 
BRANCH  17  18
ATOM     18  C   UNL     1      48.832   6.630  15.708  0.00  0.00    +0.000 A 
ATOM     19  C   UNL     1      48.128   5.440  15.465  0.00  0.00    +0.000 A 
ATOM     20  C   UNL     1      47.361   5.299  14.309  0.00  0.00    +0.000 A 
ATOM     21  C   UNL     1      47.280   6.349  13.389  0.00  0.00    +0.000 A 
ATOM     22  C   UNL     1      47.908   7.569  13.681  0.00  0.00    +0.000 A 
ATOM     23  C   UNL     1      48.674   7.711  14.836  0.00  0.00    +0.000 A 
BRANCH  21  24
ATOM     24  C   UNL     1      46.635   6.143  12.038  0.00  0.00    +0.000 C 
BRANCH  24  25
ATOM     25  N   UNL     1      45.411   5.321  12.043  0.00  0.00    +0.000 NA
ATOM     26  C   UNL     1      44.391   5.910  12.927  0.00  0.00    +0.000 C 
ATOM     27  C   UNL     1      43.057   5.168  12.850  0.00  0.00    +0.000 C 
ATOM     28  C   UNL     1      42.547   5.114  11.416  0.00  0.00    +0.000 C 
ATOM     29  C   UNL     1      43.603   4.477  10.525  0.00  0.00    +0.000 C 
ATOM     30  C   UNL     1      44.937   5.208  10.652  0.00  0.00    +0.000 C 
ENDBRANCH  24  25
ENDBRANCH  21  24
ENDBRANCH  17  18
ENDBRANCH   1  17
TORSDOF 6
ENDMDL
MODEL 9
REMARK VINA RESULT:    -5.655      4.537      8.255
REMARK INTER + INTRA:          -8.813
REMARK INTER:                  -6.976
REMARK INTRA:                  -1.838
REMARK UNBOUND:                -1.175
REMARK  Name = 
REMARK  7 active torsions:
REMARK  status: ('A' for Active; 'I' for Inactive)
REMARK    1  A    between atoms: C_1  and  C_2
REMARK    2  A    between atoms: C_2  and  N_3
REMARK    3  A    between atoms: N_3  and  C_4
REMARK    4  A    between atoms: C_4  and  C_5
REMARK    5  A    between atoms: C_8  and  C_9
REMARK    6  A    between atoms: C_9  and  N_10
REMARK    7  A    between atoms: C_18  and  C_20
REMARK                            x       y       z     vdW  Elec       q    Type
REMARK                         _______ _______ _______ _____ _____    ______ ____
ROOT
ATOM      1  N   UNL     1      51.674   8.917  12.103  0.00  0.00    +0.000 N 
ATOM      2  C   UNL     1      52.127   8.902  13.431  0.00  0.00    +0.000 C 
ATOM      3  O   UNL     1      53.086   8.215  13.778  0.00  0.00    +0.000 OA
ENDROOT
BRANCH   2   4
ATOM      4  C   UNL     1      51.416   9.689  14.443  0.00  0.00    +0.000 A 
ATOM      5  C   UNL     1      51.670  11.021  14.725  0.00  0.00    +0.000 A 
ATOM      6  S   UNL     1      50.603  11.684  15.882  0.00  0.00    +0.000 S 
ATOM      7  C   UNL     1      49.690  10.252  15.937  0.00  0.00    +0.000 A 
ATOM      8  N   UNL     1      48.544  10.174  16.665  0.00  0.00    +0.000 NA
ATOM      9  C   UNL     1      47.923   9.046  16.552  0.00  0.00    +0.000 A 
ATOM     10  N   UNL     1      48.362   7.979  15.808  0.00  0.00    +0.000 N 
ATOM     11  C   UNL     1      49.583   7.965  15.168  0.00  0.00    +0.000 A 
ATOM     12  O   UNL     1      50.054   6.924  14.724  0.00  0.00    +0.000 OA
ATOM     13  C   UNL     1      50.249   9.251  15.163  0.00  0.00    +0.000 A 
ATOM     14  H   UNL     1      47.862   7.103  15.818  0.00  0.00    +0.000 HD
ENDBRANCH   2   4
BRANCH   1  16
ATOM     15  C   UNL     1      52.607   8.629   9.808  0.00  0.00    +0.000 C 
ATOM     16  C   UNL     1      52.359   8.002  11.175  0.00  0.00    +0.000 C 
ENDBRANCH   1  16
BRANCH   1  17
ATOM     17  C   UNL     1      50.547   9.743  11.635  0.00  0.00    +0.000 C 
BRANCH  17  18
ATOM     18  C   UNL     1      49.179   9.125  11.745  0.00  0.00    +0.000 A 
ATOM     19  C   UNL     1      48.096   9.877  12.228  0.00  0.00    +0.000 A 
ATOM     20  C   UNL     1      46.881   9.257  12.515  0.00  0.00    +0.000 A 
ATOM     21  C   UNL     1      46.730   7.881  12.314  0.00  0.00    +0.000 A 
ATOM     22  C   UNL     1      47.784   7.151  11.745  0.00  0.00    +0.000 A 
ATOM     23  C   UNL     1      48.998   7.769  11.456  0.00  0.00    +0.000 A 
BRANCH  21  24
ATOM     24  C   UNL     1      45.503   7.157  12.817  0.00  0.00    +0.000 C 
BRANCH  24  25
ATOM     25  N   UNL     1      45.172   5.908  12.106  0.00  0.00    +0.000 NA
ATOM     26  C   UNL     1      45.163   4.767  13.035  0.00  0.00    +0.000 C 
ATOM     27  C   UNL     1      44.684   3.477  12.367  0.00  0.00    +0.000 C 
ATOM     28  C   UNL     1      43.307   3.666  11.745  0.00  0.00    +0.000 C 
ATOM     29  C   UNL     1      43.346   4.831  10.769  0.00  0.00    +0.000 C 
ATOM     30  C   UNL     1      43.867   6.095  11.447  0.00  0.00    +0.000 C 
ENDBRANCH  24  25
ENDBRANCH  21  24
ENDBRANCH  17  18
ENDBRANCH   1  17
TORSDOF 6
ENDMDL
