MODEL 1
REMARK VINA RESULT:    -8.027      0.000      0.000
REMARK INTER + INTRA:         -11.101
REMARK INTER:                 -10.373
REMARK INTRA:                  -0.728
REMARK UNBOUND:                -0.728
REMARK  Name = 
REMARK  6 active torsions:
REMARK  status: ('A' for Active; 'I' for Inactive)
REMARK    1  A    between atoms: C_1  and  O_2
REMARK    2  A    between atoms: O_2  and  C_3
REMARK    3  A    between atoms: C_6  and  N_7
REMARK    4  A    between atoms: N_7  and  C_8
REMARK    5  A    between atoms: C_8  and  C_9
REMARK    6  A    between atoms: C_13  and  C_14
REMARK                            x       y       z     vdW  Elec       q    Type
REMARK                         _______ _______ _______ _____ _____    ______ ____
ROOT
ATOM      1  C   UNL     1      44.041   4.631  11.131  0.00  0.00    +0.000 C 
ATOM      2  C   UNL     1      43.244   3.633  11.952  0.00  0.00    +0.000 C 
ATOM      3  C   UNL     1      42.783   5.050  11.886  0.00  0.00    +0.000 C 
ENDROOT
BRANCH   1   4
ATOM      4  C   UNL     1      45.328   5.235  11.678  0.00  0.00    +0.000 A 
ATOM      5  C   UNL     1      45.928   6.346  11.063  0.00  0.00    +0.000 A 
ATOM      6  C   UNL     1      47.038   6.973  11.626  0.00  0.00    +0.000 A 
ATOM      7  C   UNL     1      47.562   6.504  12.831  0.00  0.00    +0.000 A 
ATOM      8  C   UNL     1      47.004   5.394  13.484  0.00  0.00    +0.000 A 
ATOM      9  C   UNL     1      45.915   4.755  12.862  0.00  0.00    +0.000 A 
BRANCH   8  10
ATOM     10  C   UNL     1      47.462   4.963  14.824  0.00  0.00    +0.000 A 
ATOM     11  C   UNL     1      47.242   3.653  15.273  0.00  0.00    +0.000 A 
ATOM     12  C   UNL     1      47.740   3.205  16.498  0.00  0.00    +0.000 A 
ATOM     13  C   UNL     1      48.480   4.064  17.302  0.00  0.00    +0.000 A 
ATOM     14  C   UNL     1      48.710   5.373  16.887  0.00  0.00    +0.000 A 
ATOM     15  C   UNL     1      48.198   5.820  15.666  0.00  0.00    +0.000 A 
ENDBRANCH   8  10
ENDBRANCH   1   4
BRANCH   1  16
ATOM     16  N   UNL     1      43.994   4.558   9.658  0.00  0.00    +0.000 N 
ATOM     17  H   UNL     1      43.068   4.421   9.266  0.00  0.00    +0.000 HD
BRANCH  16  21
ATOM     18  C   UNL     1      46.592   2.032   7.682  0.00  0.00    +0.000 A 
ATOM     19  C   UNL     1      46.576   3.387   7.389  0.00  0.00    +0.000 A 
ATOM     20  N   UNL     1      45.746   4.268   8.012  0.00  0.00    +0.000 NA
ATOM     21  C   UNL     1      44.930   3.754   8.960  0.00  0.00    +0.000 A 
ATOM     22  C   UNL     1      44.967   2.382   9.237  0.00  0.00    +0.000 A 
ATOM     23  N   UNL     1      45.793   1.497   8.627  0.00  0.00    +0.000 NA
BRANCH  18  25
ATOM     24  C   UNL     1      47.687   1.702   5.649  0.00  0.00    +0.000 C 
ATOM     25  O   UNL     1      47.454   1.221   6.971  0.00  0.00    +0.000 OA
ENDBRANCH  18  25
ENDBRANCH  16  21
ENDBRANCH   1  16
TORSDOF 5
ENDMDL
MODEL 2
REMARK VINA RESULT:    -8.007      1.534      3.465
REMARK INTER + INTRA:         -11.075
REMARK INTER:                 -10.451
REMARK INTRA:                  -0.624
REMARK UNBOUND:                -0.728
REMARK  Name = 
REMARK  6 active torsions:
REMARK  status: ('A' for Active; 'I' for Inactive)
REMARK    1  A    between atoms: C_1  and  O_2
REMARK    2  A    between atoms: O_2  and  C_3
REMARK    3  A    between atoms: C_6  and  N_7
REMARK    4  A    between atoms: N_7  and  C_8
REMARK    5  A    between atoms: C_8  and  C_9
REMARK    6  A    between atoms: C_13  and  C_14
REMARK                            x       y       z     vdW  Elec       q    Type
REMARK                         _______ _______ _______ _____ _____    ______ ____
ROOT
ATOM      1  C   UNL     1      44.058   4.719  10.972  0.00  0.00    +0.000 C 
ATOM      2  C   UNL     1      43.077   3.637  11.387  0.00  0.00    +0.000 C 
ATOM      3  C   UNL     1      42.685   5.068  11.540  0.00  0.00    +0.000 C 
ENDROOT
BRANCH   1   4
ATOM      4  C   UNL     1      45.223   5.100  11.878  0.00  0.00    +0.000 A 
ATOM      5  C   UNL     1      45.680   4.227  12.880  0.00  0.00    +0.000 A 
ATOM      6  C   UNL     1      46.816   4.520  13.631  0.00  0.00    +0.000 A 
ATOM      7  C   UNL     1      47.528   5.693  13.383  0.00  0.00    +0.000 A 
ATOM      8  C   UNL     1      47.112   6.602  12.398  0.00  0.00    +0.000 A 
ATOM      9  C   UNL     1      45.932   6.299  11.692  0.00  0.00    +0.000 A 
BRANCH   8  10
ATOM     10  C   UNL     1      47.924   7.784  12.031  0.00  0.00    +0.000 A 
ATOM     11  C   UNL     1      47.372   9.074  12.061  0.00  0.00    +0.000 A 
ATOM     12  C   UNL     1      48.145  10.207  11.800  0.00  0.00    +0.000 A 
ATOM     13  C   UNL     1      49.498  10.072  11.508  0.00  0.00    +0.000 A 
ATOM     14  C   UNL     1      50.072   8.805  11.464  0.00  0.00    +0.000 A 
ATOM     15  C   UNL     1      49.291   7.673  11.713  0.00  0.00    +0.000 A 
ENDBRANCH   8  10
ENDBRANCH   1   4
BRANCH   1  16
ATOM     16  N   UNL     1      44.314   4.953   9.539  0.00  0.00    +0.000 N 
ATOM     17  H   UNL     1      43.489   5.150   8.983  0.00  0.00    +0.000 HD
BRANCH  16  21
ATOM     18  C   UNL     1      46.671   2.239   7.509  0.00  0.00    +0.000 A 
ATOM     19  C   UNL     1      46.773   3.595   7.237  0.00  0.00    +0.000 A 
ATOM     20  N   UNL     1      46.028   4.536   7.879  0.00  0.00    +0.000 NA
ATOM     21  C   UNL     1      45.173   4.081   8.823  0.00  0.00    +0.000 A 
ATOM     22  C   UNL     1      45.090   2.707   9.078  0.00  0.00    +0.000 A 
ATOM     23  N   UNL     1      45.832   1.762   8.450  0.00  0.00    +0.000 NA
BRANCH  18  25
ATOM     24  C   UNL     1      47.385   1.615   5.378  0.00  0.00    +0.000 C 
ATOM     25  O   UNL     1      47.455   1.368   6.780  0.00  0.00    +0.000 OA
ENDBRANCH  18  25
ENDBRANCH  16  21
ENDBRANCH   1  16
TORSDOF 5
ENDMDL
MODEL 3
REMARK VINA RESULT:    -7.360      2.665      4.810
REMARK INTER + INTRA:         -10.239
REMARK INTER:                  -9.719
REMARK INTRA:                  -0.520
REMARK UNBOUND:                -0.728
REMARK  Name = 
REMARK  6 active torsions:
REMARK  status: ('A' for Active; 'I' for Inactive)
REMARK    1  A    between atoms: C_1  and  O_2
REMARK    2  A    between atoms: O_2  and  C_3
REMARK    3  A    between atoms: C_6  and  N_7
REMARK    4  A    between atoms: N_7  and  C_8
REMARK    5  A    between atoms: C_8  and  C_9
REMARK    6  A    between atoms: C_13  and  C_14
REMARK                            x       y       z     vdW  Elec       q    Type
REMARK                         _______ _______ _______ _____ _____    ______ ____
ROOT
ATOM      1  C   UNL     1      44.293   4.519  11.032  0.00  0.00    +0.000 C 
ATOM      2  C   UNL     1      44.362   3.256  11.873  0.00  0.00    +0.000 C 
ATOM      3  C   UNL     1      43.126   4.089  11.917  0.00  0.00    +0.000 C 
ENDROOT
BRANCH   1   4
ATOM      4  C   UNL     1      44.986   5.796  11.491  0.00  0.00    +0.000 A 
ATOM      5  C   UNL     1      46.299   5.770  11.992  0.00  0.00    +0.000 A 
ATOM      6  C   UNL     1      46.977   6.947  12.301  0.00  0.00    +0.000 A 
ATOM      7  C   UNL     1      46.356   8.179  12.102  0.00  0.00    +0.000 A 
ATOM      8  C   UNL     1      45.044   8.261  11.608  0.00  0.00    +0.000 A 
ATOM      9  C   UNL     1      44.371   7.052  11.353  0.00  0.00    +0.000 A 
BRANCH   8  10
ATOM     10  C   UNL     1      44.416   9.557  11.267  0.00  0.00    +0.000 A 
ATOM     11  C   UNL     1      43.145   9.608  10.676  0.00  0.00    +0.000 A 
ATOM     12  C   UNL     1      42.503  10.821  10.423  0.00  0.00    +0.000 A 
ATOM     13  C   UNL     1      43.121  12.019  10.767  0.00  0.00    +0.000 A 
ATOM     14  C   UNL     1      44.386  12.001  11.348  0.00  0.00    +0.000 A 
ATOM     15  C   UNL     1      45.030  10.784  11.586  0.00  0.00    +0.000 A 
ENDBRANCH   8  10
ENDBRANCH   1   4
BRANCH   1  16
ATOM     16  N   UNL     1      44.153   4.407   9.568  0.00  0.00    +0.000 N 
ATOM     17  H   UNL     1      43.238   4.108   9.247  0.00  0.00    +0.000 HD
BRANCH  16  21
ATOM     18  C   UNL     1      46.967   2.314   7.391  0.00  0.00    +0.000 A 
ATOM     19  C   UNL     1      46.865   3.691   7.261  0.00  0.00    +0.000 A 
ATOM     20  N   UNL     1      45.962   4.434   7.957  0.00  0.00    +0.000 NA
ATOM     21  C   UNL     1      45.159   3.756   8.810  0.00  0.00    +0.000 A 
ATOM     22  C   UNL     1      45.284   2.366   8.922  0.00  0.00    +0.000 A 
ATOM     23  N   UNL     1      46.184   1.618   8.238  0.00  0.00    +0.000 NA
BRANCH  18  25
ATOM     24  C   UNL     1      47.386   1.287   5.338  0.00  0.00    +0.000 C 
ATOM     25  O   UNL     1      47.900   1.655   6.616  0.00  0.00    +0.000 OA
ENDBRANCH  18  25
ENDBRANCH  16  21
ENDBRANCH   1  16
TORSDOF 5
ENDMDL
MODEL 4
REMARK VINA RESULT:    -7.319      2.120      2.840
REMARK INTER + INTRA:         -10.187
REMARK INTER:                  -9.476
REMARK INTRA:                  -0.710
REMARK UNBOUND:                -0.728
REMARK  Name = 
REMARK  6 active torsions:
REMARK  status: ('A' for Active; 'I' for Inactive)
REMARK    1  A    between atoms: C_1  and  O_2
REMARK    2  A    between atoms: O_2  and  C_3
REMARK    3  A    between atoms: C_6  and  N_7
REMARK    4  A    between atoms: N_7  and  C_8
REMARK    5  A    between atoms: C_8  and  C_9
REMARK    6  A    between atoms: C_13  and  C_14
REMARK                            x       y       z     vdW  Elec       q    Type
REMARK                         _______ _______ _______ _____ _____    ______ ____
ROOT
ATOM      1  C   UNL     1      44.380   4.229  11.096  0.00  0.00    +0.000 C 
ATOM      2  C   UNL     1      44.780   3.148  12.085  0.00  0.00    +0.000 C 
ATOM      3  C   UNL     1      43.423   3.759  12.188  0.00  0.00    +0.000 C 
ENDROOT
BRANCH   1   4
ATOM      4  C   UNL     1      44.871   5.661  11.271  0.00  0.00    +0.000 A 
ATOM      5  C   UNL     1      43.978   6.745  11.230  0.00  0.00    +0.000 A 
ATOM      6  C   UNL     1      44.404   8.043  11.505  0.00  0.00    +0.000 A 
ATOM      7  C   UNL     1      45.737   8.279  11.842  0.00  0.00    +0.000 A 
ATOM      8  C   UNL     1      46.671   7.232  11.893  0.00  0.00    +0.000 A 
ATOM      9  C   UNL     1      46.217   5.942  11.561  0.00  0.00    +0.000 A 
BRANCH   8  10
ATOM     10  C   UNL     1      48.055   7.441  12.374  0.00  0.00    +0.000 A 
ATOM     11  C   UNL     1      49.064   7.873  11.500  0.00  0.00    +0.000 A 
ATOM     12  C   UNL     1      50.353   8.156  11.953  0.00  0.00    +0.000 A 
ATOM     13  C   UNL     1      50.661   8.018  13.302  0.00  0.00    +0.000 A 
ATOM     14  C   UNL     1      49.683   7.585  14.193  0.00  0.00    +0.000 A 
ATOM     15  C   UNL     1      48.397   7.291  13.732  0.00  0.00    +0.000 A 
ENDBRANCH   8  10
ENDBRANCH   1   4
BRANCH   1  16
ATOM     16  N   UNL     1      44.096   3.861   9.696  0.00  0.00    +0.000 N 
ATOM     17  H   UNL     1      43.278   3.275   9.565  0.00  0.00    +0.000 HD
BRANCH  16  21
ATOM     18  C   UNL     1      47.064   2.326   7.273  0.00  0.00    +0.000 A 
ATOM     19  C   UNL     1      46.786   3.685   7.263  0.00  0.00    +0.000 A 
ATOM     20  N   UNL     1      45.824   4.248   8.045  0.00  0.00    +0.000 NA
ATOM     21  C   UNL     1      45.146   3.407   8.858  0.00  0.00    +0.000 A 
ATOM     22  C   UNL     1      45.447   2.040   8.849  0.00  0.00    +0.000 A 
ATOM     23  N   UNL     1      46.406   1.470   8.079  0.00  0.00    +0.000 NA
BRANCH  18  25
ATOM     24  C   UNL     1      47.504   1.352   5.199  0.00  0.00    +0.000 C 
ATOM     25  O   UNL     1      48.042   1.856   6.420  0.00  0.00    +0.000 OA
ENDBRANCH  18  25
ENDBRANCH  16  21
ENDBRANCH   1  16
TORSDOF 5
ENDMDL
MODEL 5
REMARK VINA RESULT:    -7.257      3.220      7.361
REMARK INTER + INTRA:         -10.106
REMARK INTER:                  -9.491
REMARK INTRA:                  -0.616
REMARK UNBOUND:                -0.728
REMARK  Name = 
REMARK  6 active torsions:
REMARK  status: ('A' for Active; 'I' for Inactive)
REMARK    1  A    between atoms: C_1  and  O_2
REMARK    2  A    between atoms: O_2  and  C_3
REMARK    3  A    between atoms: C_6  and  N_7
REMARK    4  A    between atoms: N_7  and  C_8
REMARK    5  A    between atoms: C_8  and  C_9
REMARK    6  A    between atoms: C_13  and  C_14
REMARK                            x       y       z     vdW  Elec       q    Type
REMARK                         _______ _______ _______ _____ _____    ______ ____
ROOT
ATOM      1  C   UNL     1      44.875   3.561  12.402  0.00  0.00    +0.000 C 
ATOM      2  C   UNL     1      43.713   4.115  13.207  0.00  0.00    +0.000 C 
ATOM      3  C   UNL     1      43.560   2.796  12.529  0.00  0.00    +0.000 C 
ENDROOT
BRANCH   1   4
ATOM      4  C   UNL     1      45.163   4.077  10.998  0.00  0.00    +0.000 A 
ATOM      5  C   UNL     1      45.261   5.454  10.736  0.00  0.00    +0.000 A 
ATOM      6  C   UNL     1      45.639   5.926   9.481  0.00  0.00    +0.000 A 
ATOM      7  C   UNL     1      45.942   5.023   8.462  0.00  0.00    +0.000 A 
ATOM      8  C   UNL     1      45.855   3.637   8.669  0.00  0.00    +0.000 A 
ATOM      9  C   UNL     1      45.422   3.196   9.934  0.00  0.00    +0.000 A 
BRANCH   8  10
ATOM     10  C   UNL     1      46.296   2.664   7.645  0.00  0.00    +0.000 A 
ATOM     11  C   UNL     1      46.612   3.083   6.343  0.00  0.00    +0.000 A 
ATOM     12  C   UNL     1      47.109   2.194   5.389  0.00  0.00    +0.000 A 
ATOM     13  C   UNL     1      47.309   0.859   5.721  0.00  0.00    +0.000 A 
ATOM     14  C   UNL     1      46.999   0.412   7.002  0.00  0.00    +0.000 A 
ATOM     15  C   UNL     1      46.489   1.303   7.950  0.00  0.00    +0.000 A 
ENDBRANCH   8  10
ENDBRANCH   1   4
BRANCH   1  16
ATOM     16  N   UNL     1      46.065   3.049  13.107  0.00  0.00    +0.000 N 
ATOM     17  H   UNL     1      45.949   2.138  13.538  0.00  0.00    +0.000 HD
BRANCH  16  21
ATOM     18  C   UNL     1      48.144   5.696  15.497  0.00  0.00    +0.000 A 
ATOM     19  C   UNL     1      47.597   4.544  16.041  0.00  0.00    +0.000 A 
ATOM     20  N   UNL     1      46.908   3.633  15.302  0.00  0.00    +0.000 NA
ATOM     21  C   UNL     1      46.788   3.900  13.981  0.00  0.00    +0.000 A 
ATOM     22  C   UNL     1      47.351   5.070  13.457  0.00  0.00    +0.000 A 
ATOM     23  N   UNL     1      48.044   5.981  14.184  0.00  0.00    +0.000 NA
BRANCH  18  25
ATOM     24  C   UNL     1      49.991   7.096  15.764  0.00  0.00    +0.000 C 
ATOM     25  O   UNL     1      48.800   6.568  16.343  0.00  0.00    +0.000 OA
ENDBRANCH  18  25
ENDBRANCH  16  21
ENDBRANCH   1  16
TORSDOF 5
ENDMDL
MODEL 6
REMARK VINA RESULT:    -6.742      3.315      7.198
REMARK INTER + INTRA:          -9.440
REMARK INTER:                  -9.629
REMARK INTRA:                   0.189
REMARK UNBOUND:                -0.728
REMARK  Name = 
REMARK  6 active torsions:
REMARK  status: ('A' for Active; 'I' for Inactive)
REMARK    1  A    between atoms: C_1  and  O_2
REMARK    2  A    between atoms: O_2  and  C_3
REMARK    3  A    between atoms: C_6  and  N_7
REMARK    4  A    between atoms: N_7  and  C_8
REMARK    5  A    between atoms: C_8  and  C_9
REMARK    6  A    between atoms: C_13  and  C_14
REMARK                            x       y       z     vdW  Elec       q    Type
REMARK                         _______ _______ _______ _____ _____    ______ ____
ROOT
ATOM      1  C   UNL     1      46.400   7.365  12.267  0.00  0.00    +0.000 C 
ATOM      2  C   UNL     1      46.392   8.833  11.877  0.00  0.00    +0.000 C 
ATOM      3  C   UNL     1      45.734   8.417  13.149  0.00  0.00    +0.000 C 
ENDROOT
BRANCH   1   4
ATOM      4  C   UNL     1      45.428   6.385  11.622  0.00  0.00    +0.000 A 
ATOM      5  C   UNL     1      44.042   6.500  11.820  0.00  0.00    +0.000 A 
ATOM      6  C   UNL     1      43.144   5.681  11.139  0.00  0.00    +0.000 A 
ATOM      7  C   UNL     1      43.618   4.733  10.233  0.00  0.00    +0.000 A 
ATOM      8  C   UNL     1      44.994   4.573  10.001  0.00  0.00    +0.000 A 
ATOM      9  C   UNL     1      45.875   5.384  10.742  0.00  0.00    +0.000 A 
BRANCH   8  10
ATOM     10  C   UNL     1      45.511   3.668   8.951  0.00  0.00    +0.000 A 
ATOM     11  C   UNL     1      46.120   4.179   7.795  0.00  0.00    +0.000 A 
ATOM     12  C   UNL     1      46.687   3.341   6.834  0.00  0.00    +0.000 A 
ATOM     13  C   UNL     1      46.662   1.962   7.014  0.00  0.00    +0.000 A 
ATOM     14  C   UNL     1      46.058   1.424   8.147  0.00  0.00    +0.000 A 
ATOM     15  C   UNL     1      45.481   2.268   9.099  0.00  0.00    +0.000 A 
ENDBRANCH   8  10
ENDBRANCH   1   4
BRANCH   1  16
ATOM     16  N   UNL     1      47.657   6.745  12.727  0.00  0.00    +0.000 N 
ATOM     17  H   UNL     1      48.151   6.206  12.024  0.00  0.00    +0.000 HD
BRANCH  16  21
ATOM     18  C   UNL     1      47.681   4.556  16.226  0.00  0.00    +0.000 A 
ATOM     19  C   UNL     1      48.456   5.700  16.111  0.00  0.00    +0.000 A 
ATOM     20  N   UNL     1      48.484   6.465  14.986  0.00  0.00    +0.000 NA
ATOM     21  C   UNL     1      47.694   6.058  13.966  0.00  0.00    +0.000 A 
ATOM     22  C   UNL     1      46.920   4.899  14.109  0.00  0.00    +0.000 A 
ATOM     23  N   UNL     1      46.881   4.134  15.227  0.00  0.00    +0.000 NA
BRANCH  18  25
ATOM     24  C   UNL     1      48.741   2.816  17.362  0.00  0.00    +0.000 C 
ATOM     25  O   UNL     1      47.748   3.839  17.404  0.00  0.00    +0.000 OA
ENDBRANCH  18  25
ENDBRANCH  16  21
ENDBRANCH   1  16
TORSDOF 5
ENDMDL
MODEL 7
REMARK VINA RESULT:    -6.648      3.881      7.456
REMARK INTER + INTRA:          -9.319
REMARK INTER:                  -8.519
REMARK INTRA:                  -0.800
REMARK UNBOUND:                -0.728
REMARK  Name = 
REMARK  6 active torsions:
REMARK  status: ('A' for Active; 'I' for Inactive)
REMARK    1  A    between atoms: C_1  and  O_2
REMARK    2  A    between atoms: O_2  and  C_3
REMARK    3  A    between atoms: C_6  and  N_7
REMARK    4  A    between atoms: N_7  and  C_8
REMARK    5  A    between atoms: C_8  and  C_9
REMARK    6  A    between atoms: C_13  and  C_14
REMARK                            x       y       z     vdW  Elec       q    Type
REMARK                         _______ _______ _______ _____ _____    ______ ____
ROOT
ATOM      1  C   UNL     1      48.239   7.429  13.498  0.00  0.00    +0.000 C 
ATOM      2  C   UNL     1      49.509   7.000  12.783  0.00  0.00    +0.000 C 
ATOM      3  C   UNL     1      49.172   8.451  12.854  0.00  0.00    +0.000 C 
ENDROOT
BRANCH   1   4
ATOM      4  C   UNL     1      46.884   7.303  12.815  0.00  0.00    +0.000 A 
ATOM      5  C   UNL     1      45.957   8.359  12.840  0.00  0.00    +0.000 A 
ATOM      6  C   UNL     1      44.766   8.293  12.120  0.00  0.00    +0.000 A 
ATOM      7  C   UNL     1      44.486   7.168  11.344  0.00  0.00    +0.000 A 
ATOM      8  C   UNL     1      45.375   6.083  11.288  0.00  0.00    +0.000 A 
ATOM      9  C   UNL     1      46.544   6.162  12.067  0.00  0.00    +0.000 A 
BRANCH   8  10
ATOM     10  C   UNL     1      45.159   4.941  10.372  0.00  0.00    +0.000 A 
ATOM     11  C   UNL     1      45.666   4.961   9.064  0.00  0.00    +0.000 A 
ATOM     12  C   UNL     1      45.543   3.861   8.214  0.00  0.00    +0.000 A 
ATOM     13  C   UNL     1      44.912   2.705   8.661  0.00  0.00    +0.000 A 
ATOM     14  C   UNL     1      44.393   2.657   9.952  0.00  0.00    +0.000 A 
ATOM     15  C   UNL     1      44.506   3.767  10.794  0.00  0.00    +0.000 A 
ENDBRANCH   8  10
ENDBRANCH   1   4
BRANCH   1  16
ATOM     16  N   UNL     1      48.177   7.353  14.970  0.00  0.00    +0.000 N 
ATOM     17  H   UNL     1      48.639   8.113  15.458  0.00  0.00    +0.000 HD
BRANCH  16  21
ATOM     18  C   UNL     1      49.117   3.904  17.033  0.00  0.00    +0.000 A 
ATOM     19  C   UNL     1      48.005   3.943  16.205  0.00  0.00    +0.000 A 
ATOM     20  N   UNL     1      47.650   5.049  15.496  0.00  0.00    +0.000 NA
ATOM     21  C   UNL     1      48.455   6.128  15.627  0.00  0.00    +0.000 A 
ATOM     22  C   UNL     1      49.572   6.062  16.469  0.00  0.00    +0.000 A 
ATOM     23  N   UNL     1      49.938   4.964  17.175  0.00  0.00    +0.000 NA
BRANCH  18  25
ATOM     24  C   UNL     1      50.498   2.032  17.215  0.00  0.00    +0.000 C 
ATOM     25  O   UNL     1      49.371   2.739  17.729  0.00  0.00    +0.000 OA
ENDBRANCH  18  25
ENDBRANCH  16  21
ENDBRANCH   1  16
TORSDOF 5
ENDMDL
MODEL 8
REMARK VINA RESULT:    -6.361      4.476      7.479
REMARK INTER + INTRA:          -8.948
REMARK INTER:                  -8.494
REMARK INTRA:                  -0.454
REMARK UNBOUND:                -0.728
REMARK  Name = 
REMARK  6 active torsions:
REMARK  status: ('A' for Active; 'I' for Inactive)
REMARK    1  A    between atoms: C_1  and  O_2
REMARK    2  A    between atoms: O_2  and  C_3
REMARK    3  A    between atoms: C_6  and  N_7
REMARK    4  A    between atoms: N_7  and  C_8
REMARK    5  A    between atoms: C_8  and  C_9
REMARK    6  A    between atoms: C_13  and  C_14
REMARK                            x       y       z     vdW  Elec       q    Type
REMARK                         _______ _______ _______ _____ _____    ______ ____
ROOT
ATOM      1  C   UNL     1      48.836   6.683  15.600  0.00  0.00    +0.000 C 
ATOM      2  C   UNL     1      50.269   7.104  15.871  0.00  0.00    +0.000 C 
ATOM      3  C   UNL     1      49.159   8.025  16.251  0.00  0.00    +0.000 C 
ENDROOT
BRANCH   1   4
ATOM      4  C   UNL     1      48.245   6.795  14.200  0.00  0.00    +0.000 A 
ATOM      5  C   UNL     1      48.943   7.444  13.167  0.00  0.00    +0.000 A 
ATOM      6  C   UNL     1      48.461   7.446  11.860  0.00  0.00    +0.000 A 
ATOM      7  C   UNL     1      47.271   6.785  11.557  0.00  0.00    +0.000 A 
ATOM      8  C   UNL     1      46.532   6.126  12.553  0.00  0.00    +0.000 A 
ATOM      9  C   UNL     1      47.022   6.186  13.870  0.00  0.00    +0.000 A 
BRANCH   8  10
ATOM     10  C   UNL     1      45.340   5.311  12.231  0.00  0.00    +0.000 A 
ATOM     11  C   UNL     1      44.282   5.846  11.480  0.00  0.00    +0.000 A 
ATOM     12  C   UNL     1      43.189   5.068  11.096  0.00  0.00    +0.000 A 
ATOM     13  C   UNL     1      43.134   3.725  11.451  0.00  0.00    +0.000 A 
ATOM     14  C   UNL     1      44.165   3.166  12.202  0.00  0.00    +0.000 A 
ATOM     15  C   UNL     1      45.250   3.953  12.595  0.00  0.00    +0.000 A 
ENDBRANCH   8  10
ENDBRANCH   1   4
BRANCH   1  16
ATOM     16  N   UNL     1      48.225   5.623  16.423  0.00  0.00    +0.000 N 
ATOM     17  H   UNL     1      47.768   5.947  17.269  0.00  0.00    +0.000 HD
BRANCH  16  21
ATOM     18  C   UNL     1      50.235   2.072  17.045  0.00  0.00    +0.000 A 
ATOM     19  C   UNL     1      50.707   3.250  17.603  0.00  0.00    +0.000 A 
ATOM     20  N   UNL     1      50.084   4.448  17.438  0.00  0.00    +0.000 NA
ATOM     21  C   UNL     1      48.950   4.436  16.700  0.00  0.00    +0.000 A 
ATOM     22  C   UNL     1      48.495   3.233  16.149  0.00  0.00    +0.000 A 
ATOM     23  N   UNL     1      49.105   2.033  16.312  0.00  0.00    +0.000 NA
BRANCH  18  25
ATOM     24  C   UNL     1      52.340   1.175  17.502  0.00  0.00    +0.000 C 
ATOM     25  O   UNL     1      50.960   0.916  17.253  0.00  0.00    +0.000 OA
ENDBRANCH  18  25
ENDBRANCH  16  21
ENDBRANCH   1  16
TORSDOF 5
ENDMDL
MODEL 9
REMARK VINA RESULT:    -6.234      4.163      7.732
REMARK INTER + INTRA:          -8.784
REMARK INTER:                  -7.973
REMARK INTRA:                  -0.812
REMARK UNBOUND:                -0.728
REMARK  Name = 
REMARK  6 active torsions:
REMARK  status: ('A' for Active; 'I' for Inactive)
REMARK    1  A    between atoms: C_1  and  O_2
REMARK    2  A    between atoms: O_2  and  C_3
REMARK    3  A    between atoms: C_6  and  N_7
REMARK    4  A    between atoms: N_7  and  C_8
REMARK    5  A    between atoms: C_8  and  C_9
REMARK    6  A    between atoms: C_13  and  C_14
REMARK                            x       y       z     vdW  Elec       q    Type
REMARK                         _______ _______ _______ _____ _____    ______ ____
ROOT
ATOM      1  C   UNL     1      48.905   8.198  12.671  0.00  0.00    +0.000 C 
ATOM      2  C   UNL     1      49.999   7.628  11.785  0.00  0.00    +0.000 C 
ATOM      3  C   UNL     1      49.566   9.040  11.583  0.00  0.00    +0.000 C 
ENDROOT
BRANCH   1   4
ATOM      4  C   UNL     1      47.442   7.871  12.404  0.00  0.00    +0.000 A 
ATOM      5  C   UNL     1      46.423   8.782  12.731  0.00  0.00    +0.000 A 
ATOM      6  C   UNL     1      45.096   8.537  12.382  0.00  0.00    +0.000 A 
ATOM      7  C   UNL     1      44.764   7.377  11.684  0.00  0.00    +0.000 A 
ATOM      8  C   UNL     1      45.743   6.431  11.337  0.00  0.00    +0.000 A 
ATOM      9  C   UNL     1      47.065   6.686  11.748  0.00  0.00    +0.000 A 
BRANCH   8  10
ATOM     10  C   UNL     1      45.433   5.261  10.485  0.00  0.00    +0.000 A 
ATOM     11  C   UNL     1      44.686   4.184  10.985  0.00  0.00    +0.000 A 
ATOM     12  C   UNL     1      44.314   3.112  10.173  0.00  0.00    +0.000 A 
ATOM     13  C   UNL     1      44.678   3.098   8.831  0.00  0.00    +0.000 A 
ATOM     14  C   UNL     1      45.425   4.150   8.307  0.00  0.00    +0.000 A 
ATOM     15  C   UNL     1      45.807   5.214   9.128  0.00  0.00    +0.000 A 
ENDBRANCH   8  10
ENDBRANCH   1   4
BRANCH   1  16
ATOM     16  N   UNL     1      49.203   8.502  14.083  0.00  0.00    +0.000 N 
ATOM     17  H   UNL     1      49.911   9.214  14.228  0.00  0.00    +0.000 HD
BRANCH  16  21
ATOM     18  C   UNL     1      49.962   5.523  16.837  0.00  0.00    +0.000 A 
ATOM     19  C   UNL     1      48.670   5.745  16.385  0.00  0.00    +0.000 A 
ATOM     20  N   UNL     1      48.361   6.708  15.474  0.00  0.00    +0.000 NA
ATOM     21  C   UNL     1      49.394   7.446  15.009  0.00  0.00    +0.000 A 
ATOM     22  C   UNL     1      50.689   7.200  15.480  0.00  0.00    +0.000 A 
ATOM     23  N   UNL     1      51.009   6.240  16.383  0.00  0.00    +0.000 NA
BRANCH  18  25
ATOM     24  C   UNL     1      48.971   3.806  18.066  0.00  0.00    +0.000 C 
ATOM     25  O   UNL     1      50.161   4.538  17.783  0.00  0.00    +0.000 OA
ENDBRANCH  18  25
ENDBRANCH  16  21
ENDBRANCH   1  16
TORSDOF 5
ENDMDL
