MODEL 1
REMARK VINA RESULT:    -8.643      0.000      0.000
REMARK INTER + INTRA:         -12.892
REMARK INTER:                 -11.675
REMARK INTRA:                  -1.217
REMARK UNBOUND:                -1.217
REMARK  Name = 
REMARK  7 active torsions:
REMARK  status: ('A' for Active; 'I' for Inactive)
REMARK    1  A    between atoms: C_1  and  C_2
REMARK    2  A    between atoms: C_5  and  N_6
REMARK    3  A    between atoms: N_6  and  C_7
REMARK    4  A    between atoms: C_7  and  C_8
REMARK    5  A    between atoms: C_11  and  C_12
REMARK    6  A    between atoms: C_12  and  N_13
REMARK    7  A    between atoms: C_14  and  C_16
REMARK                            x       y       z     vdW  Elec       q    Type
REMARK                         _______ _______ _______ _____ _____    ______ ____
ROOT
ATOM      1  C   UNL     1      44.618   5.709  11.245  0.00  0.00    +0.000 A 
ATOM      2  C   UNL     1      45.874   5.231  11.642  0.00  0.00    +0.000 A 
ATOM      3  C   UNL     1      46.785   6.066  12.302  0.00  0.00    +0.000 A 
ATOM      4  C   UNL     1      46.455   7.397  12.590  0.00  0.00    +0.000 A 
ATOM      5  C   UNL     1      45.253   7.910  12.087  0.00  0.00    +0.000 A 
ATOM      6  C   UNL     1      44.339   7.072  11.429  0.00  0.00    +0.000 A 
ENDROOT
BRANCH   1   7
ATOM      7  C   UNL     1      43.559   4.751  10.725  0.00  0.00    +0.000 C 
BRANCH   7   8
ATOM      8  N   UNL     1      43.694   4.624   9.272  0.00  0.00    +0.000 N 
ATOM      9  H   UNL     1      43.643   5.527   8.804  0.00  0.00    +0.000 HD
BRANCH   8  14
ATOM     10  C   UNL     1      47.607   1.117   6.954  0.00  0.00    +0.000 C 
ATOM     11  C   UNL     1      46.636   2.056   7.607  0.00  0.00    +0.000 A 
ATOM     12  C   UNL     1      46.685   3.430   7.356  0.00  0.00    +0.000 A 
ATOM     13  C   UNL     1      45.732   4.298   7.915  0.00  0.00    +0.000 A 
ATOM     14  C   UNL     1      44.688   3.815   8.710  0.00  0.00    +0.000 A 
ATOM     15  C   UNL     1      44.728   2.455   9.054  0.00  0.00    +0.000 A 
ATOM     16  C   UNL     1      45.681   1.583   8.508  0.00  0.00    +0.000 A 
ENDBRANCH   8  14
ENDBRANCH   7   8
ENDBRANCH   1   7
BRANCH   4  17
ATOM     17  C   UNL     1      47.324   8.217  13.513  0.00  0.00    +0.000 C 
BRANCH  17  18
ATOM     18  N   UNL     1      47.651   7.564  14.753  0.00  0.00    +0.000 N 
ATOM     19  C   UNL     1      48.871   6.940  14.891  0.00  0.00    +0.000 C 
ATOM     20  O   UNL     1      49.731   6.997  14.014  0.00  0.00    +0.000 OA
ATOM     21  H   UNL     1      46.885   7.309  15.369  0.00  0.00    +0.000 HD
BRANCH  19  22
ATOM     22  C   UNL     1      49.130   6.241  16.156  0.00  0.00    +0.000 A 
ATOM     23  C   UNL     1      50.153   6.682  16.987  0.00  0.00    +0.000 A 
ATOM     24  S   UNL     1      50.296   5.787  18.431  0.00  0.00    +0.000 S 
ATOM     25  C   UNL     1      49.036   4.741  17.970  0.00  0.00    +0.000 A 
ATOM     26  N   UNL     1      48.664   3.702  18.765  0.00  0.00    +0.000 NA
ATOM     27  C   UNL     1      47.728   2.963  18.272  0.00  0.00    +0.000 A 
ATOM     28  N   UNL     1      47.123   3.174  17.060  0.00  0.00    +0.000 N 
ATOM     29  C   UNL     1      47.432   4.234  16.245  0.00  0.00    +0.000 A 
ATOM     30  O   UNL     1      46.833   4.433  15.194  0.00  0.00    +0.000 OA
ATOM     31  C   UNL     1      48.497   5.085  16.742  0.00  0.00    +0.000 A 
ATOM     32  H   UNL     1      46.391   2.561  16.736  0.00  0.00    +0.000 HD
ENDBRANCH  19  22
ENDBRANCH  17  18
ENDBRANCH   4  17
TORSDOF 6
ENDMDL
MODEL 2
REMARK VINA RESULT:    -8.339      1.623      2.066
REMARK INTER + INTRA:         -12.481
REMARK INTER:                 -11.576
REMARK INTRA:                  -0.906
REMARK UNBOUND:                -1.217
REMARK  Name = 
REMARK  7 active torsions:
REMARK  status: ('A' for Active; 'I' for Inactive)
REMARK    1  A    between atoms: C_1  and  C_2
REMARK    2  A    between atoms: C_5  and  N_6
REMARK    3  A    between atoms: N_6  and  C_7
REMARK    4  A    between atoms: C_7  and  C_8
REMARK    5  A    between atoms: C_11  and  C_12
REMARK    6  A    between atoms: C_12  and  N_13
REMARK    7  A    between atoms: C_14  and  C_16
REMARK                            x       y       z     vdW  Elec       q    Type
REMARK                         _______ _______ _______ _____ _____    ______ ____
ROOT
ATOM      1  C   UNL     1      44.822   4.437  11.242  0.00  0.00    +0.000 A 
ATOM      2  C   UNL     1      45.256   5.706  10.834  0.00  0.00    +0.000 A 
ATOM      3  C   UNL     1      46.200   6.417  11.585  0.00  0.00    +0.000 A 
ATOM      4  C   UNL     1      46.741   5.870  12.756  0.00  0.00    +0.000 A 
ATOM      5  C   UNL     1      46.219   4.660  13.229  0.00  0.00    +0.000 A 
ATOM      6  C   UNL     1      45.277   3.945  12.475  0.00  0.00    +0.000 A 
ENDROOT
BRANCH   1   7
ATOM      7  C   UNL     1      43.965   3.584  10.321  0.00  0.00    +0.000 C 
BRANCH   7   8
ATOM      8  N   UNL     1      44.726   2.405   9.905  0.00  0.00    +0.000 N 
ATOM      9  H   UNL     1      44.186   1.547  10.004  0.00  0.00    +0.000 HD
BRANCH   8  14
ATOM     10  C   UNL     1      47.686   2.171   4.988  0.00  0.00    +0.000 C 
ATOM     11  C   UNL     1      46.969   2.270   6.302  0.00  0.00    +0.000 A 
ATOM     12  C   UNL     1      46.353   3.461   6.699  0.00  0.00    +0.000 A 
ATOM     13  C   UNL     1      45.624   3.529   7.898  0.00  0.00    +0.000 A 
ATOM     14  C   UNL     1      45.463   2.407   8.714  0.00  0.00    +0.000 A 
ATOM     15  C   UNL     1      46.190   1.258   8.367  0.00  0.00    +0.000 A 
ATOM     16  C   UNL     1      46.927   1.182   7.177  0.00  0.00    +0.000 A 
ENDBRANCH   8  14
ENDBRANCH   7   8
ENDBRANCH   1   7
BRANCH   4  17
ATOM     17  C   UNL     1      47.930   6.517  13.424  0.00  0.00    +0.000 C 
BRANCH  17  18
ATOM     18  N   UNL     1      47.803   6.659  14.851  0.00  0.00    +0.000 N 
ATOM     19  C   UNL     1      48.929   6.609  15.642  0.00  0.00    +0.000 C 
ATOM     20  O   UNL     1      50.057   6.533  15.159  0.00  0.00    +0.000 OA
ATOM     21  H   UNL     1      46.893   6.482  15.264  0.00  0.00    +0.000 HD
BRANCH  19  22
ATOM     22  C   UNL     1      48.736   6.703  17.094  0.00  0.00    +0.000 A 
ATOM     23  C   UNL     1      48.486   7.940  17.675  0.00  0.00    +0.000 A 
ATOM     24  S   UNL     1      48.250   7.869  19.362  0.00  0.00    +0.000 S 
ATOM     25  C   UNL     1      48.531   6.192  19.385  0.00  0.00    +0.000 A 
ATOM     26  N   UNL     1      48.509   5.495  20.553  0.00  0.00    +0.000 NA
ATOM     27  C   UNL     1      48.786   4.241  20.429  0.00  0.00    +0.000 A 
ATOM     28  N   UNL     1      49.073   3.616  19.243  0.00  0.00    +0.000 N 
ATOM     29  C   UNL     1      49.061   4.268  18.035  0.00  0.00    +0.000 A 
ATOM     30  O   UNL     1      49.263   3.673  16.982  0.00  0.00    +0.000 OA
ATOM     31  C   UNL     1      48.779   5.689  18.119  0.00  0.00    +0.000 A 
ATOM     32  H   UNL     1      49.274   2.629  19.215  0.00  0.00    +0.000 HD
ENDBRANCH  19  22
ENDBRANCH  17  18
ENDBRANCH   4  17
TORSDOF 6
ENDMDL
MODEL 3
REMARK VINA RESULT:    -8.188      2.133      2.730
REMARK INTER + INTRA:         -12.277
REMARK INTER:                 -11.099
REMARK INTRA:                  -1.178
REMARK UNBOUND:                -1.217
REMARK  Name = 
REMARK  7 active torsions:
REMARK  status: ('A' for Active; 'I' for Inactive)
REMARK    1  A    between atoms: C_1  and  C_2
REMARK    2  A    between atoms: C_5  and  N_6
REMARK    3  A    between atoms: N_6  and  C_7
REMARK    4  A    between atoms: C_7  and  C_8
REMARK    5  A    between atoms: C_11  and  C_12
REMARK    6  A    between atoms: C_12  and  N_13
REMARK    7  A    between atoms: C_14  and  C_16
REMARK                            x       y       z     vdW  Elec       q    Type
REMARK                         _______ _______ _______ _____ _____    ______ ____
ROOT
ATOM      1  C   UNL     1      45.049   5.121  11.676  0.00  0.00    +0.000 A 
ATOM      2  C   UNL     1      45.559   4.485  12.816  0.00  0.00    +0.000 A 
ATOM      3  C   UNL     1      46.655   5.019  13.506  0.00  0.00    +0.000 A 
ATOM      4  C   UNL     1      47.259   6.208  13.077  0.00  0.00    +0.000 A 
ATOM      5  C   UNL     1      46.831   6.776  11.871  0.00  0.00    +0.000 A 
ATOM      6  C   UNL     1      45.730   6.244  11.182  0.00  0.00    +0.000 A 
ENDROOT
BRANCH   1   7
ATOM      7  C   UNL     1      43.738   4.659  11.059  0.00  0.00    +0.000 C 
BRANCH   7   8
ATOM      8  N   UNL     1      43.866   4.653   9.600  0.00  0.00    +0.000 N 
ATOM      9  H   UNL     1      43.941   5.595   9.220  0.00  0.00    +0.000 HD
BRANCH   8  14
ATOM     10  C   UNL     1      47.649   1.227   6.968  0.00  0.00    +0.000 C 
ATOM     11  C   UNL     1      46.609   2.096   7.610  0.00  0.00    +0.000 A 
ATOM     12  C   UNL     1      45.664   1.559   8.489  0.00  0.00    +0.000 A 
ATOM     13  C   UNL     1      44.735   2.387   9.141  0.00  0.00    +0.000 A 
ATOM     14  C   UNL     1      44.746   3.773   8.959  0.00  0.00    +0.000 A 
ATOM     15  C   UNL     1      45.614   4.280   7.980  0.00  0.00    +0.000 A 
ATOM     16  C   UNL     1      46.539   3.460   7.318  0.00  0.00    +0.000 A 
ENDBRANCH   8  14
ENDBRANCH   7   8
ENDBRANCH   1   7
BRANCH   4  17
ATOM     17  C   UNL     1      48.268   6.912  13.952  0.00  0.00    +0.000 C 
BRANCH  17  18
ATOM     18  N   UNL     1      48.061   6.721  15.364  0.00  0.00    +0.000 N 
ATOM     19  C   UNL     1      49.132   6.406  16.170  0.00  0.00    +0.000 C 
ATOM     20  O   UNL     1      50.282   6.368  15.736  0.00  0.00    +0.000 OA
ATOM     21  H   UNL     1      47.119   6.516  15.680  0.00  0.00    +0.000 HD
BRANCH  19  22
ATOM     22  C   UNL     1      48.856   6.167  17.592  0.00  0.00    +0.000 A 
ATOM     23  C   UNL     1      49.101   4.913  18.139  0.00  0.00    +0.000 A 
ATOM     24  S   UNL     1      48.763   4.814  19.806  0.00  0.00    +0.000 S 
ATOM     25  C   UNL     1      48.220   6.426  19.846  0.00  0.00    +0.000 A 
ATOM     26  N   UNL     1      47.748   6.977  20.996  0.00  0.00    +0.000 NA
ATOM     27  C   UNL     1      47.326   8.190  20.872  0.00  0.00    +0.000 A 
ATOM     28  N   UNL     1      47.342   8.907  19.703  0.00  0.00    +0.000 N 
ATOM     29  C   UNL     1      47.851   8.410  18.529  0.00  0.00    +0.000 A 
ATOM     30  O   UNL     1      47.908   9.094  17.513  0.00  0.00    +0.000 OA
ATOM     31  C   UNL     1      48.318   7.038  18.608  0.00  0.00    +0.000 A 
ATOM     32  H   UNL     1      47.003   9.856  19.676  0.00  0.00    +0.000 HD
ENDBRANCH  19  22
ENDBRANCH  17  18
ENDBRANCH   4  17
TORSDOF 6
ENDMDL
MODEL 4
REMARK VINA RESULT:    -7.571      2.143      3.522
REMARK INTER + INTRA:         -11.443
REMARK INTER:                 -10.491
REMARK INTRA:                  -0.953
REMARK UNBOUND:                -1.217
REMARK  Name = 
REMARK  7 active torsions:
REMARK  status: ('A' for Active; 'I' for Inactive)
REMARK    1  A    between atoms: C_1  and  C_2
REMARK    2  A    between atoms: C_5  and  N_6
REMARK    3  A    between atoms: N_6  and  C_7
REMARK    4  A    between atoms: C_7  and  C_8
REMARK    5  A    between atoms: C_11  and  C_12
REMARK    6  A    between atoms: C_12  and  N_13
REMARK    7  A    between atoms: C_14  and  C_16
REMARK                            x       y       z     vdW  Elec       q    Type
REMARK                         _______ _______ _______ _____ _____    ______ ____
ROOT
ATOM      1  C   UNL     1      45.117   4.824  11.726  0.00  0.00    +0.000 A 
ATOM      2  C   UNL     1      45.371   3.534  12.211  0.00  0.00    +0.000 A 
ATOM      3  C   UNL     1      46.174   3.337  13.341  0.00  0.00    +0.000 A 
ATOM      4  C   UNL     1      46.733   4.428  14.020  0.00  0.00    +0.000 A 
ATOM      5  C   UNL     1      46.582   5.706  13.466  0.00  0.00    +0.000 A 
ATOM      6  C   UNL     1      45.773   5.904  12.336  0.00  0.00    +0.000 A 
ENDROOT
BRANCH   1   7
ATOM      7  C   UNL     1      44.080   5.046  10.636  0.00  0.00    +0.000 C 
BRANCH   7   8
ATOM      8  N   UNL     1      43.871   3.794   9.906  0.00  0.00    +0.000 N 
ATOM      9  H   UNL     1      42.947   3.753   9.477  0.00  0.00    +0.000 HD
BRANCH   8  14
ATOM     10  C   UNL     1      48.027   1.938   6.404  0.00  0.00    +0.000 C 
ATOM     11  C   UNL     1      46.892   2.394   7.272  0.00  0.00    +0.000 A 
ATOM     12  C   UNL     1      46.201   1.492   8.086  0.00  0.00    +0.000 A 
ATOM     13  C   UNL     1      45.184   1.934   8.949  0.00  0.00    +0.000 A 
ATOM     14  C   UNL     1      44.853   3.289   9.047  0.00  0.00    +0.000 A 
ATOM     15  C   UNL     1      45.467   4.161   8.134  0.00  0.00    +0.000 A 
ATOM     16  C   UNL     1      46.476   3.727   7.263  0.00  0.00    +0.000 A 
ENDBRANCH   8  14
ENDBRANCH   7   8
ENDBRANCH   1   7
BRANCH   4  17
ATOM     17  C   UNL     1      47.384   4.238  15.369  0.00  0.00    +0.000 C 
BRANCH  17  18
ATOM     18  N   UNL     1      47.564   5.457  16.115  0.00  0.00    +0.000 N 
ATOM     19  C   UNL     1      48.758   5.685  16.762  0.00  0.00    +0.000 C 
ATOM     20  O   UNL     1      49.713   4.918  16.651  0.00  0.00    +0.000 OA
ATOM     21  H   UNL     1      46.733   5.961  16.405  0.00  0.00    +0.000 HD
BRANCH  19  22
ATOM     22  C   UNL     1      48.869   6.916  17.554  0.00  0.00    +0.000 A 
ATOM     23  C   UNL     1      49.097   6.835  18.923  0.00  0.00    +0.000 A 
ATOM     24  S   UNL     1      49.236   8.353  19.686  0.00  0.00    +0.000 S 
ATOM     25  C   UNL     1      48.938   9.173  18.226  0.00  0.00    +0.000 A 
ATOM     26  N   UNL     1      48.886  10.532  18.185  0.00  0.00    +0.000 NA
ATOM     27  C   UNL     1      48.606  11.019  17.024  0.00  0.00    +0.000 A 
ATOM     28  N   UNL     1      48.381  10.273  15.896  0.00  0.00    +0.000 N 
ATOM     29  C   UNL     1      48.468   8.903  15.878  0.00  0.00    +0.000 A 
ATOM     30  O   UNL     1      48.321   8.264  14.842  0.00  0.00    +0.000 OA
ATOM     31  C   UNL     1      48.758   8.301  17.166  0.00  0.00    +0.000 A 
ATOM     32  H   UNL     1      48.173  10.718  15.016  0.00  0.00    +0.000 HD
ENDBRANCH  19  22
ENDBRANCH  17  18
ENDBRANCH   4  17
TORSDOF 6
ENDMDL
MODEL 5
REMARK VINA RESULT:    -7.481      1.437      1.963
REMARK INTER + INTRA:         -11.323
REMARK INTER:                 -10.325
REMARK INTRA:                  -0.998
REMARK UNBOUND:                -1.217
REMARK  Name = 
REMARK  7 active torsions:
REMARK  status: ('A' for Active; 'I' for Inactive)
REMARK    1  A    between atoms: C_1  and  C_2
REMARK    2  A    between atoms: C_5  and  N_6
REMARK    3  A    between atoms: N_6  and  C_7
REMARK    4  A    between atoms: C_7  and  C_8
REMARK    5  A    between atoms: C_11  and  C_12
REMARK    6  A    between atoms: C_12  and  N_13
REMARK    7  A    between atoms: C_14  and  C_16
REMARK                            x       y       z     vdW  Elec       q    Type
REMARK                         _______ _______ _______ _____ _____    ______ ____
ROOT
ATOM      1  C   UNL     1      44.728   4.386  12.115  0.00  0.00    +0.000 A 
ATOM      2  C   UNL     1      44.274   5.668  11.776  0.00  0.00    +0.000 A 
ATOM      3  C   UNL     1      44.929   6.810  12.254  0.00  0.00    +0.000 A 
ATOM      4  C   UNL     1      46.061   6.696  13.073  0.00  0.00    +0.000 A 
ATOM      5  C   UNL     1      46.440   5.420  13.511  0.00  0.00    +0.000 A 
ATOM      6  C   UNL     1      45.787   4.276  13.029  0.00  0.00    +0.000 A 
ENDROOT
BRANCH   1   7
ATOM      7  C   UNL     1      44.148   3.159  11.428  0.00  0.00    +0.000 C 
BRANCH   7   8
ATOM      8  N   UNL     1      43.958   3.446  10.005  0.00  0.00    +0.000 N 
ATOM      9  H   UNL     1      43.567   4.374   9.852  0.00  0.00    +0.000 HD
BRANCH   8  14
ATOM     10  C   UNL     1      47.960   2.046   6.130  0.00  0.00    +0.000 C 
ATOM     11  C   UNL     1      46.969   2.435   7.187  0.00  0.00    +0.000 A 
ATOM     12  C   UNL     1      46.631   3.775   7.399  0.00  0.00    +0.000 A 
ATOM     13  C   UNL     1      45.652   4.130   8.342  0.00  0.00    +0.000 A 
ATOM     14  C   UNL     1      44.962   3.158   9.072  0.00  0.00    +0.000 A 
ATOM     15  C   UNL     1      45.400   1.831   8.939  0.00  0.00    +0.000 A 
ATOM     16  C   UNL     1      46.383   1.469   8.007  0.00  0.00    +0.000 A 
ENDBRANCH   8  14
ENDBRANCH   7   8
ENDBRANCH   1   7
BRANCH   4  17
ATOM     17  C   UNL     1      46.909   7.906  13.380  0.00  0.00    +0.000 C 
BRANCH  17  18
ATOM     18  N   UNL     1      47.892   7.694  14.411  0.00  0.00    +0.000 N 
ATOM     19  C   UNL     1      49.184   7.374  14.060  0.00  0.00    +0.000 C 
ATOM     20  O   UNL     1      49.551   7.348  12.887  0.00  0.00    +0.000 OA
ATOM     21  H   UNL     1      47.558   7.478  15.345  0.00  0.00    +0.000 HD
BRANCH  19  22
ATOM     22  C   UNL     1      50.132   7.113  15.151  0.00  0.00    +0.000 A 
ATOM     23  C   UNL     1      51.379   7.727  15.140  0.00  0.00    +0.000 A 
ATOM     24  S   UNL     1      52.341   7.348  16.495  0.00  0.00    +0.000 S 
ATOM     25  C   UNL     1      51.151   6.304  17.115  0.00  0.00    +0.000 A 
ATOM     26  N   UNL     1      51.358   5.614  18.269  0.00  0.00    +0.000 NA
ATOM     27  C   UNL     1      50.392   4.824  18.598  0.00  0.00    +0.000 A 
ATOM     28  N   UNL     1      49.232   4.668  17.884  0.00  0.00    +0.000 N 
ATOM     29  C   UNL     1      48.958   5.376  16.740  0.00  0.00    +0.000 A 
ATOM     30  O   UNL     1      47.888   5.261  16.154  0.00  0.00    +0.000 OA
ATOM     31  C   UNL     1      50.024   6.263  16.312  0.00  0.00    +0.000 A 
ATOM     32  H   UNL     1      48.512   4.038  18.201  0.00  0.00    +0.000 HD
ENDBRANCH  19  22
ENDBRANCH  17  18
ENDBRANCH   4  17
TORSDOF 6
ENDMDL
MODEL 6
REMARK VINA RESULT:    -7.065      2.957      8.112
REMARK INTER + INTRA:         -10.761
REMARK INTER:                  -9.431
REMARK INTRA:                  -1.330
REMARK UNBOUND:                -1.217
REMARK  Name = 
REMARK  7 active torsions:
REMARK  status: ('A' for Active; 'I' for Inactive)
REMARK    1  A    between atoms: C_1  and  C_2
REMARK    2  A    between atoms: C_5  and  N_6
REMARK    3  A    between atoms: N_6  and  C_7
REMARK    4  A    between atoms: C_7  and  C_8
REMARK    5  A    between atoms: C_11  and  C_12
REMARK    6  A    between atoms: C_12  and  N_13
REMARK    7  A    between atoms: C_14  and  C_16
REMARK                            x       y       z     vdW  Elec       q    Type
REMARK                         _______ _______ _______ _____ _____    ______ ____
ROOT
ATOM      1  C   UNL     1      49.541   7.993  15.764  0.00  0.00    +0.000 A 
ATOM      2  C   UNL     1      48.315   8.626  15.517  0.00  0.00    +0.000 A 
ATOM      3  C   UNL     1      47.795   8.702  14.219  0.00  0.00    +0.000 A 
ATOM      4  C   UNL     1      48.486   8.137  13.138  0.00  0.00    +0.000 A 
ATOM      5  C   UNL     1      49.765   7.615  13.364  0.00  0.00    +0.000 A 
ATOM      6  C   UNL     1      50.284   7.534  14.666  0.00  0.00    +0.000 A 
ENDROOT
BRANCH   1   7
ATOM      7  C   UNL     1      49.996   7.727  17.190  0.00  0.00    +0.000 C 
BRANCH   7   8
ATOM      8  N   UNL     1      49.232   6.605  17.740  0.00  0.00    +0.000 N 
ATOM      9  H   UNL     1      48.246   6.656  17.488  0.00  0.00    +0.000 HD
BRANCH   8  14
ATOM     10  C   UNL     1      51.392   1.288  17.526  0.00  0.00    +0.000 C 
ATOM     11  C   UNL     1      50.818   2.674  17.509  0.00  0.00    +0.000 A 
ATOM     12  C   UNL     1      49.441   2.881  17.384  0.00  0.00    +0.000 A 
ATOM     13  C   UNL     1      48.901   4.177  17.437  0.00  0.00    +0.000 A 
ATOM     14  C   UNL     1      49.713   5.294  17.650  0.00  0.00    +0.000 A 
ATOM     15  C   UNL     1      51.100   5.082  17.646  0.00  0.00    +0.000 A 
ATOM     16  C   UNL     1      51.650   3.793  17.584  0.00  0.00    +0.000 A 
ENDBRANCH   8  14
ENDBRANCH   7   8
ENDBRANCH   1   7
BRANCH   4  17
ATOM     17  C   UNL     1      47.817   7.998  11.792  0.00  0.00    +0.000 C 
BRANCH  17  18
ATOM     18  N   UNL     1      47.092   6.766  11.616  0.00  0.00    +0.000 N 
ATOM     19  C   UNL     1      45.727   6.750  11.800  0.00  0.00    +0.000 C 
ATOM     20  O   UNL     1      45.091   7.778  12.024  0.00  0.00    +0.000 OA
ATOM     21  H   UNL     1      47.615   5.898  11.671  0.00  0.00    +0.000 HD
BRANCH  19  22
ATOM     22  C   UNL     1      45.046   5.456  11.663  0.00  0.00    +0.000 A 
ATOM     23  C   UNL     1      44.357   4.925  12.747  0.00  0.00    +0.000 A 
ATOM     24  S   UNL     1      43.593   3.439  12.410  0.00  0.00    +0.000 S 
ATOM     25  C   UNL     1      44.204   3.422  10.823  0.00  0.00    +0.000 A 
ATOM     26  N   UNL     1      43.945   2.384   9.984  0.00  0.00    +0.000 NA
ATOM     27  C   UNL     1      44.510   2.479   8.828  0.00  0.00    +0.000 A 
ATOM     28  N   UNL     1      45.304   3.524   8.430  0.00  0.00    +0.000 N 
ATOM     29  C   UNL     1      45.555   4.615   9.223  0.00  0.00    +0.000 A 
ATOM     30  O   UNL     1      46.219   5.564   8.820  0.00  0.00    +0.000 OA
ATOM     31  C   UNL     1      44.962   4.548  10.546  0.00  0.00    +0.000 A 
ATOM     32  H   UNL     1      45.710   3.540   7.507  0.00  0.00    +0.000 HD
ENDBRANCH  19  22
ENDBRANCH  17  18
ENDBRANCH   4  17
TORSDOF 6
ENDMDL
MODEL 7
REMARK VINA RESULT:    -6.905      3.917      9.847
REMARK INTER + INTRA:         -10.544
REMARK INTER:                  -9.698
REMARK INTRA:                  -0.846
REMARK UNBOUND:                -1.217
REMARK  Name = 
REMARK  7 active torsions:
REMARK  status: ('A' for Active; 'I' for Inactive)
REMARK    1  A    between atoms: C_1  and  C_2
REMARK    2  A    between atoms: C_5  and  N_6
REMARK    3  A    between atoms: N_6  and  C_7
REMARK    4  A    between atoms: C_7  and  C_8
REMARK    5  A    between atoms: C_11  and  C_12
REMARK    6  A    between atoms: C_12  and  N_13
REMARK    7  A    between atoms: C_14  and  C_16
REMARK                            x       y       z     vdW  Elec       q    Type
REMARK                         _______ _______ _______ _____ _____    ______ ____
ROOT
ATOM      1  C   UNL     1      49.088   5.780  19.972  0.00  0.00    +0.000 A 
ATOM      2  C   UNL     1      49.947   4.942  19.249  0.00  0.00    +0.000 A 
ATOM      3  C   UNL     1      49.478   4.206  18.153  0.00  0.00    +0.000 A 
ATOM      4  C   UNL     1      48.140   4.302  17.748  0.00  0.00    +0.000 A 
ATOM      5  C   UNL     1      47.255   5.042  18.542  0.00  0.00    +0.000 A 
ATOM      6  C   UNL     1      47.725   5.782  19.637  0.00  0.00    +0.000 A 
ENDROOT
BRANCH   1   7
ATOM      7  C   UNL     1      49.643   6.732  21.020  0.00  0.00    +0.000 C 
BRANCH   7   8
ATOM      8  N   UNL     1      49.567   8.104  20.516  0.00  0.00    +0.000 N 
ATOM      9  H   UNL     1      49.954   8.188  19.578  0.00  0.00    +0.000 HD
BRANCH   8  14
ATOM     10  C   UNL     1      44.814  11.228  21.312  0.00  0.00    +0.000 C 
ATOM     11  C   UNL     1      46.015  10.364  21.066  0.00  0.00    +0.000 A 
ATOM     12  C   UNL     1      46.646  10.345  19.819  0.00  0.00    +0.000 A 
ATOM     13  C   UNL     1      47.810   9.587  19.613  0.00  0.00    +0.000 A 
ATOM     14  C   UNL     1      48.394   8.856  20.651  0.00  0.00    +0.000 A 
ATOM     15  C   UNL     1      47.680   8.784  21.858  0.00  0.00    +0.000 A 
ATOM     16  C   UNL     1      46.512   9.530  22.070  0.00  0.00    +0.000 A 
ENDBRANCH   8  14
ENDBRANCH   7   8
ENDBRANCH   1   7
BRANCH   4  17
ATOM     17  C   UNL     1      47.696   3.714  16.431  0.00  0.00    +0.000 C 
BRANCH  17  18
ATOM     18  N   UNL     1      46.989   4.636  15.579  0.00  0.00    +0.000 N 
ATOM     19  C   UNL     1      46.832   4.341  14.243  0.00  0.00    +0.000 C 
ATOM     20  O   UNL     1      47.201   3.269  13.768  0.00  0.00    +0.000 OA
ATOM     21  H   UNL     1      46.900   5.596  15.894  0.00  0.00    +0.000 HD
BRANCH  19  22
ATOM     22  C   UNL     1      46.154   5.341  13.409  0.00  0.00    +0.000 A 
ATOM     23  C   UNL     1      46.768   6.564  13.166  0.00  0.00    +0.000 A 
ATOM     24  S   UNL     1      45.865   7.594  12.151  0.00  0.00    +0.000 S 
ATOM     25  C   UNL     1      44.595   6.468  12.049  0.00  0.00    +0.000 A 
ATOM     26  N   UNL     1      43.468   6.746  11.339  0.00  0.00    +0.000 NA
ATOM     27  C   UNL     1      42.567   5.824  11.386  0.00  0.00    +0.000 A 
ATOM     28  N   UNL     1      42.694   4.642  12.070  0.00  0.00    +0.000 N 
ATOM     29  C   UNL     1      43.828   4.296  12.760  0.00  0.00    +0.000 A 
ATOM     30  O   UNL     1      43.938   3.208  13.313  0.00  0.00    +0.000 OA
ATOM     31  C   UNL     1      44.866   5.311  12.760  0.00  0.00    +0.000 A 
ATOM     32  H   UNL     1      41.952   3.958  12.059  0.00  0.00    +0.000 HD
ENDBRANCH  19  22
ENDBRANCH  17  18
ENDBRANCH   4  17
TORSDOF 6
ENDMDL
MODEL 8
REMARK VINA RESULT:    -6.688      1.830      2.403
REMARK INTER + INTRA:         -10.252
REMARK INTER:                  -9.309
REMARK INTRA:                  -0.942
REMARK UNBOUND:                -1.217
REMARK  Name = 
REMARK  7 active torsions:
REMARK  status: ('A' for Active; 'I' for Inactive)
REMARK    1  A    between atoms: C_1  and  C_2
REMARK    2  A    between atoms: C_5  and  N_6
REMARK    3  A    between atoms: N_6  and  C_7
REMARK    4  A    between atoms: C_7  and  C_8
REMARK    5  A    between atoms: C_11  and  C_12
REMARK    6  A    between atoms: C_12  and  N_13
REMARK    7  A    between atoms: C_14  and  C_16
REMARK                            x       y       z     vdW  Elec       q    Type
REMARK                         _______ _______ _______ _____ _____    ______ ____
ROOT
ATOM      1  C   UNL     1      45.007   5.380  13.028  0.00  0.00    +0.000 A 
ATOM      2  C   UNL     1      46.018   4.587  13.586  0.00  0.00    +0.000 A 
ATOM      3  C   UNL     1      47.286   5.121  13.852  0.00  0.00    +0.000 A 
ATOM      4  C   UNL     1      47.567   6.465  13.575  0.00  0.00    +0.000 A 
ATOM      5  C   UNL     1      46.600   7.224  12.905  0.00  0.00    +0.000 A 
ATOM      6  C   UNL     1      45.328   6.691  12.643  0.00  0.00    +0.000 A 
ENDROOT
BRANCH   1   7
ATOM      7  C   UNL     1      43.582   4.859  12.939  0.00  0.00    +0.000 C 
BRANCH   7   8
ATOM      8  N   UNL     1      43.578   3.575  12.236  0.00  0.00    +0.000 N 
ATOM      9  H   UNL     1      42.668   3.120  12.279  0.00  0.00    +0.000 HD
BRANCH   8  14
ATOM     10  C   UNL     1      46.008   3.297   7.040  0.00  0.00    +0.000 C 
ATOM     11  C   UNL     1      45.315   3.335   8.369  0.00  0.00    +0.000 A 
ATOM     12  C   UNL     1      45.227   2.192   9.168  0.00  0.00    +0.000 A 
ATOM     13  C   UNL     1      44.637   2.248  10.442  0.00  0.00    +0.000 A 
ATOM     14  C   UNL     1      44.151   3.450  10.965  0.00  0.00    +0.000 A 
ATOM     15  C   UNL     1      44.132   4.557  10.103  0.00  0.00    +0.000 A 
ATOM     16  C   UNL     1      44.710   4.508   8.826  0.00  0.00    +0.000 A 
ENDBRANCH   8  14
ENDBRANCH   7   8
ENDBRANCH   1   7
BRANCH   4  17
ATOM     17  C   UNL     1      48.837   7.102  14.086  0.00  0.00    +0.000 C 
BRANCH  17  18
ATOM     18  N   UNL     1      49.132   6.807  15.464  0.00  0.00    +0.000 N 
ATOM     19  C   UNL     1      48.954   7.782  16.420  0.00  0.00    +0.000 C 
ATOM     20  O   UNL     1      48.464   8.876  16.147  0.00  0.00    +0.000 OA
ATOM     21  H   UNL     1      49.745   6.021  15.658  0.00  0.00    +0.000 HD
BRANCH  19  22
ATOM     22  C   UNL     1      49.324   7.446  17.801  0.00  0.00    +0.000 A 
ATOM     23  C   UNL     1      50.133   8.312  18.526  0.00  0.00    +0.000 A 
ATOM     24  S   UNL     1      50.437   7.793  20.121  0.00  0.00    +0.000 S 
ATOM     25  C   UNL     1      49.547   6.363  19.881  0.00  0.00    +0.000 A 
ATOM     26  N   UNL     1      49.434   5.436  20.870  0.00  0.00    +0.000 NA
ATOM     27  C   UNL     1      48.772   4.380  20.536  0.00  0.00    +0.000 A 
ATOM     28  N   UNL     1      48.203   4.170  19.306  0.00  0.00    +0.000 N 
ATOM     29  C   UNL     1      48.251   5.095  18.294  0.00  0.00    +0.000 A 
ATOM     30  O   UNL     1      47.683   4.907  17.224  0.00  0.00    +0.000 OA
ATOM     31  C   UNL     1      49.006   6.294  18.608  0.00  0.00    +0.000 A 
ATOM     32  H   UNL     1      47.691   3.323  19.113  0.00  0.00    +0.000 HD
ENDBRANCH  19  22
ENDBRANCH  17  18
ENDBRANCH   4  17
TORSDOF 6
ENDMDL
MODEL 9
REMARK VINA RESULT:    -6.628      3.613      4.685
REMARK INTER + INTRA:         -10.170
REMARK INTER:                  -8.900
REMARK INTRA:                  -1.270
REMARK UNBOUND:                -1.217
REMARK  Name = 
REMARK  7 active torsions:
REMARK  status: ('A' for Active; 'I' for Inactive)
REMARK    1  A    between atoms: C_1  and  C_2
REMARK    2  A    between atoms: C_5  and  N_6
REMARK    3  A    between atoms: N_6  and  C_7
REMARK    4  A    between atoms: C_7  and  C_8
REMARK    5  A    between atoms: C_11  and  C_12
REMARK    6  A    between atoms: C_12  and  N_13
REMARK    7  A    between atoms: C_14  and  C_16
REMARK                            x       y       z     vdW  Elec       q    Type
REMARK                         _______ _______ _______ _____ _____    ______ ____
ROOT
ATOM      1  C   UNL     1      45.041   4.648  12.296  0.00  0.00    +0.000 A 
ATOM      2  C   UNL     1      44.177   5.752  12.295  0.00  0.00    +0.000 A 
ATOM      3  C   UNL     1      44.662   7.044  12.534  0.00  0.00    +0.000 A 
ATOM      4  C   UNL     1      46.027   7.263  12.769  0.00  0.00    +0.000 A 
ATOM      5  C   UNL     1      46.868   6.151  12.892  0.00  0.00    +0.000 A 
ATOM      6  C   UNL     1      46.383   4.857  12.649  0.00  0.00    +0.000 A 
ENDROOT
BRANCH   1   7
ATOM      7  C   UNL     1      44.551   3.287  11.830  0.00  0.00    +0.000 C 
BRANCH   7   8
ATOM      8  N   UNL     1      44.065   3.393  10.453  0.00  0.00    +0.000 N 
ATOM      9  H   UNL     1      43.477   4.214  10.318  0.00  0.00    +0.000 HD
BRANCH   8  14
ATOM     10  C   UNL     1      47.501   2.399   5.959  0.00  0.00    +0.000 C 
ATOM     11  C   UNL     1      46.663   2.682   7.171  0.00  0.00    +0.000 A 
ATOM     12  C   UNL     1      46.310   3.991   7.512  0.00  0.00    +0.000 A 
ATOM     13  C   UNL     1      45.468   4.246   8.608  0.00  0.00    +0.000 A 
ATOM     14  C   UNL     1      44.930   3.205   9.369  0.00  0.00    +0.000 A 
ATOM     15  C   UNL     1      45.394   1.909   9.092  0.00  0.00    +0.000 A 
ATOM     16  C   UNL     1      46.242   1.645   8.006  0.00  0.00    +0.000 A 
ENDBRANCH   8  14
ENDBRANCH   7   8
ENDBRANCH   1   7
BRANCH   4  17
ATOM     17  C   UNL     1      46.585   8.665  12.776  0.00  0.00    +0.000 C 
BRANCH  17  18
ATOM     18  N   UNL     1      48.004   8.736  13.015  0.00  0.00    +0.000 N 
ATOM     19  C   UNL     1      48.651   9.946  12.908  0.00  0.00    +0.000 C 
ATOM     20  O   UNL     1      48.039  10.992  12.700  0.00  0.00    +0.000 OA
ATOM     21  H   UNL     1      48.537   7.875  12.948  0.00  0.00    +0.000 HD
BRANCH  19  22
ATOM     22  C   UNL     1      50.105   9.951  13.107  0.00  0.00    +0.000 A 
ATOM     23  C   UNL     1      50.679  10.883  13.964  0.00  0.00    +0.000 A 
ATOM     24  S   UNL     1      52.370  10.729  14.110  0.00  0.00    +0.000 S 
ATOM     25  C   UNL     1      52.405   9.451  12.988  0.00  0.00    +0.000 A 
ATOM     26  N   UNL     1      53.580   8.868  12.628  0.00  0.00    +0.000 NA
ATOM     27  C   UNL     1      53.464   7.944  11.735  0.00  0.00    +0.000 A 
ATOM     28  N   UNL     1      52.278   7.543  11.175  0.00  0.00    +0.000 N 
ATOM     29  C   UNL     1      51.064   8.068  11.540  0.00  0.00    +0.000 A 
ATOM     30  O   UNL     1      50.014   7.649  11.066  0.00  0.00    +0.000 OA
ATOM     31  C   UNL     1      51.139   9.130  12.526  0.00  0.00    +0.000 A 
ATOM     32  H   UNL     1      52.257   6.808  10.485  0.00  0.00    +0.000 HD
ENDBRANCH  19  22
ENDBRANCH  17  18
ENDBRANCH   4  17
TORSDOF 6
ENDMDL
