MODEL 1
REMARK VINA RESULT:    -8.126      0.000      0.000
REMARK INTER + INTRA:         -12.812
REMARK INTER:                 -11.451
REMARK INTRA:                  -1.360
REMARK UNBOUND:                -1.360
REMARK  Name = 
REMARK  7 active torsions:
REMARK  status: ('A' for Active; 'I' for Inactive)
REMARK    1  A    between atoms: C_2  and  C_20
REMARK    2  A    between atoms: N_3  and  C_4
REMARK    3  A    between atoms: C_4  and  C_5
REMARK    4  A    between atoms: C_9  and  C_10
REMARK    5  A    between atoms: C_10  and  N_11
REMARK    6  A    between atoms: N_11  and  C_12
REMARK    7  A    between atoms: C_12  and  C_13
REMARK                            x       y       z     vdW  Elec       q    Type
REMARK                         _______ _______ _______ _____ _____    ______ ____
ROOT
ATOM      1  C   UNL     1      47.525   6.795  11.789  0.00  0.00    +0.000 C 
ENDROOT
BRANCH   1   2
ATOM      2  C   UNL     1      46.049   6.539  11.647  0.00  0.00    +0.000 A 
ATOM      3  C   UNL     1      45.152   7.616  11.612  0.00  0.00    +0.000 A 
ATOM      4  C   UNL     1      43.788   7.394  11.435  0.00  0.00    +0.000 A 
ATOM      5  C   UNL     1      43.309   6.093  11.286  0.00  0.00    +0.000 A 
ATOM      6  C   UNL     1      44.185   4.997  11.321  0.00  0.00    +0.000 A 
ATOM      7  C   UNL     1      45.553   5.231  11.531  0.00  0.00    +0.000 A 
BRANCH   6   8
ATOM      8  C   UNL     1      43.665   3.601  11.061  0.00  0.00    +0.000 C 
BRANCH   8   9
ATOM      9  N   UNL     1      43.891   3.250   9.661  0.00  0.00    +0.000 NA
ATOM     10  H   UNL     1      44.393   4.015   9.209  0.00  0.00    +0.000 HD
BRANCH   9  11
ATOM     11  C   UNL     1      44.687   2.029   9.514  0.00  0.00    +0.000 C 
BRANCH  11  12
ATOM     12  C   UNL     1      45.716   2.170   8.405  0.00  0.00    +0.000 A 
ATOM     13  C   UNL     1      45.891   3.398   7.766  0.00  0.00    +0.000 A 
ATOM     14  C   UNL     1      46.861   3.513   6.775  0.00  0.00    +0.000 A 
ATOM     15  C   UNL     1      47.628   2.403   6.444  0.00  0.00    +0.000 A 
ATOM     16  C   UNL     1      47.390   1.220   7.123  0.00  0.00    +0.000 A 
ATOM     17  N   UNL     1      46.459   1.077   8.092  0.00  0.00    +0.000 NA
ENDBRANCH  11  12
ENDBRANCH   9  11
ENDBRANCH   8   9
ENDBRANCH   6   8
ENDBRANCH   1   2
BRANCH   1  20
ATOM     18  O   UNL     1      47.754   8.259  14.184  0.00  0.00    +0.000 OA
ATOM     19  C   UNL     1      48.087   7.076  14.173  0.00  0.00    +0.000 C 
ATOM     20  N   UNL     1      48.032   6.305  13.043  0.00  0.00    +0.000 N 
ATOM     21  H   UNL     1      48.141   5.300  13.119  0.00  0.00    +0.000 HD
BRANCH  19  22
ATOM     22  C   UNL     1      48.631   6.427  15.371  0.00  0.00    +0.000 A 
ATOM     23  C   UNL     1      49.718   6.990  16.026  0.00  0.00    +0.000 A 
ATOM     24  S   UNL     1      50.232   6.101  17.387  0.00  0.00    +0.000 S 
ATOM     25  C   UNL     1      48.993   4.954  17.174  0.00  0.00    +0.000 A 
ATOM     26  N   UNL     1      48.842   3.918  18.043  0.00  0.00    +0.000 NA
ATOM     27  C   UNL     1      47.837   3.150  17.786  0.00  0.00    +0.000 A 
ATOM     28  N   UNL     1      46.977   3.312  16.732  0.00  0.00    +0.000 N 
ATOM     29  C   UNL     1      47.140   4.294  15.784  0.00  0.00    +0.000 A 
ATOM     30  O   UNL     1      46.441   4.324  14.778  0.00  0.00    +0.000 OA
ATOM     31  C   UNL     1      48.220   5.227  16.059  0.00  0.00    +0.000 A 
ATOM     32  H   UNL     1      46.231   2.655  16.567  0.00  0.00    +0.000 HD
ENDBRANCH  19  22
ENDBRANCH   1  20
TORSDOF 7
ENDMDL
MODEL 2
REMARK VINA RESULT:    -8.097      1.961      2.934
REMARK INTER + INTRA:         -12.771
REMARK INTER:                 -11.919
REMARK INTRA:                  -0.852
REMARK UNBOUND:                -1.360
REMARK  Name = 
REMARK  7 active torsions:
REMARK  status: ('A' for Active; 'I' for Inactive)
REMARK    1  A    between atoms: C_2  and  C_20
REMARK    2  A    between atoms: N_3  and  C_4
REMARK    3  A    between atoms: C_4  and  C_5
REMARK    4  A    between atoms: C_9  and  C_10
REMARK    5  A    between atoms: C_10  and  N_11
REMARK    6  A    between atoms: N_11  and  C_12
REMARK    7  A    between atoms: C_12  and  C_13
REMARK                            x       y       z     vdW  Elec       q    Type
REMARK                         _______ _______ _______ _____ _____    ______ ____
ROOT
ATOM      1  C   UNL     1      46.822   3.530  14.277  0.00  0.00    +0.000 C 
ENDROOT
BRANCH   1   2
ATOM      2  C   UNL     1      46.364   4.553  13.271  0.00  0.00    +0.000 A 
ATOM      3  C   UNL     1      47.100   5.731  13.087  0.00  0.00    +0.000 A 
ATOM      4  C   UNL     1      46.712   6.663  12.128  0.00  0.00    +0.000 A 
ATOM      5  C   UNL     1      45.587   6.423  11.340  0.00  0.00    +0.000 A 
ATOM      6  C   UNL     1      44.831   5.253  11.506  0.00  0.00    +0.000 A 
ATOM      7  C   UNL     1      45.213   4.336  12.498  0.00  0.00    +0.000 A 
BRANCH   6   8
ATOM      8  C   UNL     1      43.671   4.959  10.580  0.00  0.00    +0.000 C 
BRANCH   8   9
ATOM      9  N   UNL     1      44.179   4.432   9.317  0.00  0.00    +0.000 NA
ATOM     10  H   UNL     1      45.089   4.855   9.127  0.00  0.00    +0.000 HD
BRANCH   9  11
ATOM     11  C   UNL     1      44.347   2.978   9.346  0.00  0.00    +0.000 C 
BRANCH  11  12
ATOM     12  C   UNL     1      45.489   2.534   8.447  0.00  0.00    +0.000 A 
ATOM     13  C   UNL     1      46.149   3.465   7.645  0.00  0.00    +0.000 A 
ATOM     14  C   UNL     1      47.213   3.043   6.852  0.00  0.00    +0.000 A 
ATOM     15  C   UNL     1      47.587   1.706   6.877  0.00  0.00    +0.000 A 
ATOM     16  C   UNL     1      46.879   0.844   7.698  0.00  0.00    +0.000 A 
ATOM     17  N   UNL     1      45.845   1.224   8.481  0.00  0.00    +0.000 NA
ENDBRANCH  11  12
ENDBRANCH   9  11
ENDBRANCH   8   9
ENDBRANCH   6   8
ENDBRANCH   1   2
BRANCH   1  20
ATOM     18  O   UNL     1      46.581   3.208  17.065  0.00  0.00    +0.000 OA
ATOM     19  C   UNL     1      47.504   3.887  16.620  0.00  0.00    +0.000 C 
ATOM     20  N   UNL     1      47.673   4.114  15.280  0.00  0.00    +0.000 N 
ATOM     21  H   UNL     1      48.540   4.522  14.948  0.00  0.00    +0.000 HD
BRANCH  19  22
ATOM     22  C   UNL     1      48.456   4.558  17.513  0.00  0.00    +0.000 A 
ATOM     23  C   UNL     1      48.097   5.745  18.135  0.00  0.00    +0.000 A 
ATOM     24  S   UNL     1      49.324   6.396  19.125  0.00  0.00    +0.000 S 
ATOM     25  C   UNL     1      50.364   5.092  18.788  0.00  0.00    +0.000 A 
ATOM     26  N   UNL     1      51.595   5.013  19.360  0.00  0.00    +0.000 NA
ATOM     27  C   UNL     1      52.260   3.951  19.051  0.00  0.00    +0.000 A 
ATOM     28  N   UNL     1      51.813   2.967  18.209  0.00  0.00    +0.000 N 
ATOM     29  C   UNL     1      50.613   3.044  17.545  0.00  0.00    +0.000 A 
ATOM     30  O   UNL     1      50.309   2.219  16.691  0.00  0.00    +0.000 OA
ATOM     31  C   UNL     1      49.796   4.190  17.905  0.00  0.00    +0.000 A 
ATOM     32  H   UNL     1      52.398   2.178  17.980  0.00  0.00    +0.000 HD
ENDBRANCH  19  22
ENDBRANCH   1  20
TORSDOF 7
ENDMDL
MODEL 3
REMARK VINA RESULT:    -7.724      1.959      3.151
REMARK INTER + INTRA:         -12.245
REMARK INTER:                 -11.100
REMARK INTRA:                  -1.146
REMARK UNBOUND:                -1.360
REMARK  Name = 
REMARK  7 active torsions:
REMARK  status: ('A' for Active; 'I' for Inactive)
REMARK    1  A    between atoms: C_2  and  C_20
REMARK    2  A    between atoms: N_3  and  C_4
REMARK    3  A    between atoms: C_4  and  C_5
REMARK    4  A    between atoms: C_9  and  C_10
REMARK    5  A    between atoms: C_10  and  N_11
REMARK    6  A    between atoms: N_11  and  C_12
REMARK    7  A    between atoms: C_12  and  C_13
REMARK                            x       y       z     vdW  Elec       q    Type
REMARK                         _______ _______ _______ _____ _____    ______ ____
ROOT
ATOM      1  C   UNL     1      46.764   4.089  14.571  0.00  0.00    +0.000 C 
ENDROOT
BRANCH   1   2
ATOM      2  C   UNL     1      46.346   4.861  13.348  0.00  0.00    +0.000 A 
ATOM      3  C   UNL     1      47.169   5.880  12.848  0.00  0.00    +0.000 A 
ATOM      4  C   UNL     1      46.816   6.570  11.691  0.00  0.00    +0.000 A 
ATOM      5  C   UNL     1      45.639   6.244  11.020  0.00  0.00    +0.000 A 
ATOM      6  C   UNL     1      44.794   5.232  11.501  0.00  0.00    +0.000 A 
ATOM      7  C   UNL     1      45.145   4.564  12.685  0.00  0.00    +0.000 A 
BRANCH   6   8
ATOM      8  C   UNL     1      43.571   4.823  10.710  0.00  0.00    +0.000 C 
BRANCH   8   9
ATOM      9  N   UNL     1      43.983   4.312   9.406  0.00  0.00    +0.000 NA
ATOM     10  H   UNL     1      44.803   4.834   9.093  0.00  0.00    +0.000 HD
BRANCH   9  11
ATOM     11  C   UNL     1      44.333   2.891   9.448  0.00  0.00    +0.000 C 
BRANCH  11  12
ATOM     12  C   UNL     1      45.446   2.565   8.466  0.00  0.00    +0.000 A 
ATOM     13  C   UNL     1      45.946   3.558   7.622  0.00  0.00    +0.000 A 
ATOM     14  C   UNL     1      46.986   3.246   6.751  0.00  0.00    +0.000 A 
ATOM     15  C   UNL     1      47.498   1.955   6.742  0.00  0.00    +0.000 A 
ATOM     16  C   UNL     1      46.944   1.027   7.608  0.00  0.00    +0.000 A 
ATOM     17  N   UNL     1      45.937   1.300   8.467  0.00  0.00    +0.000 NA
ENDBRANCH  11  12
ENDBRANCH   9  11
ENDBRANCH   8   9
ENDBRANCH   6   8
ENDBRANCH   1   2
BRANCH   1  20
ATOM     18  O   UNL     1      48.570   3.331  16.595  0.00  0.00    +0.000 OA
ATOM     19  C   UNL     1      48.224   4.507  16.514  0.00  0.00    +0.000 C 
ATOM     20  N   UNL     1      47.329   4.950  15.576  0.00  0.00    +0.000 N 
ATOM     21  H   UNL     1      47.212   5.946  15.429  0.00  0.00    +0.000 HD
BRANCH  19  22
ATOM     22  C   UNL     1      48.706   5.511  17.470  0.00  0.00    +0.000 A 
ATOM     23  C   UNL     1      48.365   5.403  18.811  0.00  0.00    +0.000 A 
ATOM     24  S   UNL     1      48.994   6.658  19.779  0.00  0.00    +0.000 S 
ATOM     25  C   UNL     1      49.780   7.367  18.446  0.00  0.00    +0.000 A 
ATOM     26  N   UNL     1      50.543   8.483  18.595  0.00  0.00    +0.000 NA
ATOM     27  C   UNL     1      51.113   8.887  17.511  0.00  0.00    +0.000 A 
ATOM     28  N   UNL     1      50.979   8.288  16.286  0.00  0.00    +0.000 N 
ATOM     29  C   UNL     1      50.155   7.210  16.071  0.00  0.00    +0.000 A 
ATOM     30  O   UNL     1      49.946   6.790  14.940  0.00  0.00    +0.000 OA
ATOM     31  C   UNL     1      49.536   6.675  17.272  0.00  0.00    +0.000 A 
ATOM     32  H   UNL     1      51.425   8.676  15.469  0.00  0.00    +0.000 HD
ENDBRANCH  19  22
ENDBRANCH   1  20
TORSDOF 7
ENDMDL
MODEL 4
REMARK VINA RESULT:    -7.594      2.396      3.006
REMARK INTER + INTRA:         -12.061
REMARK INTER:                 -10.990
REMARK INTRA:                  -1.071
REMARK UNBOUND:                -1.360
REMARK  Name = 
REMARK  7 active torsions:
REMARK  status: ('A' for Active; 'I' for Inactive)
REMARK    1  A    between atoms: C_2  and  C_20
REMARK    2  A    between atoms: N_3  and  C_4
REMARK    3  A    between atoms: C_4  and  C_5
REMARK    4  A    between atoms: C_9  and  C_10
REMARK    5  A    between atoms: C_10  and  N_11
REMARK    6  A    between atoms: N_11  and  C_12
REMARK    7  A    between atoms: C_12  and  C_13
REMARK                            x       y       z     vdW  Elec       q    Type
REMARK                         _______ _______ _______ _____ _____    ______ ____
ROOT
ATOM      1  C   UNL     1      47.345   4.396  14.872  0.00  0.00    +0.000 C 
ENDROOT
BRANCH   1   2
ATOM      2  C   UNL     1      46.823   5.208  13.716  0.00  0.00    +0.000 A 
ATOM      3  C   UNL     1      47.675   6.094  13.042  0.00  0.00    +0.000 A 
ATOM      4  C   UNL     1      47.217   6.816  11.943  0.00  0.00    +0.000 A 
ATOM      5  C   UNL     1      45.903   6.656  11.504  0.00  0.00    +0.000 A 
ATOM      6  C   UNL     1      45.028   5.779  12.164  0.00  0.00    +0.000 A 
ATOM      7  C   UNL     1      45.492   5.080  13.289  0.00  0.00    +0.000 A 
BRANCH   6   8
ATOM      8  C   UNL     1      43.637   5.542  11.619  0.00  0.00    +0.000 C 
BRANCH   8   9
ATOM      9  N   UNL     1      43.729   5.021  10.258  0.00  0.00    +0.000 NA
ATOM     10  H   UNL     1      44.508   5.481   9.783  0.00  0.00    +0.000 HD
BRANCH   9  11
ATOM     11  C   UNL     1      43.964   3.576  10.228  0.00  0.00    +0.000 C 
BRANCH  11  12
ATOM     12  C   UNL     1      44.975   3.201   9.158  0.00  0.00    +0.000 A 
ATOM     13  C   UNL     1      45.535   4.190   8.348  0.00  0.00    +0.000 A 
ATOM     14  C   UNL     1      46.482   3.829   7.395  0.00  0.00    +0.000 A 
ATOM     15  C   UNL     1      46.843   2.493   7.270  0.00  0.00    +0.000 A 
ATOM     16  C   UNL     1      46.238   1.572   8.109  0.00  0.00    +0.000 A 
ATOM     17  N   UNL     1      45.319   1.892   9.047  0.00  0.00    +0.000 NA
ENDBRANCH  11  12
ENDBRANCH   9  11
ENDBRANCH   8   9
ENDBRANCH   6   8
ENDBRANCH   1   2
BRANCH   1  20
ATOM     18  O   UNL     1      49.615   5.746  15.850  0.00  0.00    +0.000 OA
ATOM     19  C   UNL     1      48.559   5.825  16.474  0.00  0.00    +0.000 C 
ATOM     20  N   UNL     1      47.419   5.176  16.079  0.00  0.00    +0.000 N 
ATOM     21  H   UNL     1      46.534   5.412  16.514  0.00  0.00    +0.000 HD
BRANCH  19  22
ATOM     22  C   UNL     1      48.470   6.577  17.730  0.00  0.00    +0.000 A 
ATOM     23  C   UNL     1      48.475   7.966  17.704  0.00  0.00    +0.000 A 
ATOM     24  S   UNL     1      48.380   8.679  19.250  0.00  0.00    +0.000 S 
ATOM     25  C   UNL     1      48.286   7.157  20.007  0.00  0.00    +0.000 A 
ATOM     26  N   UNL     1      48.151   7.054  21.356  0.00  0.00    +0.000 NA
ATOM     27  C   UNL     1      48.050   5.844  21.791  0.00  0.00    +0.000 A 
ATOM     28  N   UNL     1      48.086   4.724  21.002  0.00  0.00    +0.000 N 
ATOM     29  C   UNL     1      48.303   4.776  19.646  0.00  0.00    +0.000 A 
ATOM     30  O   UNL     1      48.474   3.753  18.993  0.00  0.00    +0.000 OA
ATOM     31  C   UNL     1      48.362   6.119  19.095  0.00  0.00    +0.000 A 
ATOM     32  H   UNL     1      48.036   3.803  21.409  0.00  0.00    +0.000 HD
ENDBRANCH  19  22
ENDBRANCH   1  20
TORSDOF 7
ENDMDL
MODEL 5
REMARK VINA RESULT:    -7.260      3.608      5.894
REMARK INTER + INTRA:         -11.592
REMARK INTER:                 -10.840
REMARK INTRA:                  -0.752
REMARK UNBOUND:                -1.360
REMARK  Name = 
REMARK  7 active torsions:
REMARK  status: ('A' for Active; 'I' for Inactive)
REMARK    1  A    between atoms: C_2  and  C_20
REMARK    2  A    between atoms: N_3  and  C_4
REMARK    3  A    between atoms: C_4  and  C_5
REMARK    4  A    between atoms: C_9  and  C_10
REMARK    5  A    between atoms: C_10  and  N_11
REMARK    6  A    between atoms: N_11  and  C_12
REMARK    7  A    between atoms: C_12  and  C_13
REMARK                            x       y       z     vdW  Elec       q    Type
REMARK                         _______ _______ _______ _____ _____    ______ ____
ROOT
ATOM      1  C   UNL     1      44.769   4.109   8.536  0.00  0.00    +0.000 C 
ENDROOT
BRANCH   1   2
ATOM      2  C   UNL     1      45.573   3.006   7.901  0.00  0.00    +0.000 A 
ATOM      3  C   UNL     1      45.859   1.842   8.626  0.00  0.00    +0.000 A 
ATOM      4  C   UNL     1      46.563   0.796   8.035  0.00  0.00    +0.000 A 
ATOM      5  C   UNL     1      46.983   0.902   6.710  0.00  0.00    +0.000 A 
ATOM      6  C   UNL     1      46.714   2.059   5.962  0.00  0.00    +0.000 A 
ATOM      7  C   UNL     1      46.031   3.119   6.578  0.00  0.00    +0.000 A 
BRANCH   6   8
ATOM      8  C   UNL     1      47.089   2.122   4.498  0.00  0.00    +0.000 C 
BRANCH   8   9
ATOM      9  N   UNL     1      47.501   0.796   4.044  0.00  0.00    +0.000 NA
ATOM     10  H   UNL     1      47.399   0.138   4.817  0.00  0.00    +0.000 HD
BRANCH   9  11
ATOM     11  C   UNL     1      46.693   0.315   2.921  0.00  0.00    +0.000 C 
BRANCH  11  12
ATOM     12  C   UNL     1      46.966  -1.151   2.631  0.00  0.00    +0.000 A 
ATOM     13  C   UNL     1      45.920  -2.075   2.651  0.00  0.00    +0.000 A 
ATOM     14  C   UNL     1      46.187  -3.407   2.351  0.00  0.00    +0.000 A 
ATOM     15  C   UNL     1      47.488  -3.785   2.044  0.00  0.00    +0.000 A 
ATOM     16  C   UNL     1      48.470  -2.809   2.050  0.00  0.00    +0.000 A 
ATOM     17  N   UNL     1      48.242  -1.507   2.332  0.00  0.00    +0.000 NA
ENDBRANCH  11  12
ENDBRANCH   9  11
ENDBRANCH   8   9
ENDBRANCH   6   8
ENDBRANCH   1   2
BRANCH   1  20
ATOM     18  O   UNL     1      43.589   5.300  10.799  0.00  0.00    +0.000 OA
ATOM     19  C   UNL     1      44.814   5.241  10.726  0.00  0.00    +0.000 C 
ATOM     20  N   UNL     1      45.464   4.703   9.647  0.00  0.00    +0.000 N 
ATOM     21  H   UNL     1      46.457   4.510   9.708  0.00  0.00    +0.000 HD
BRANCH  19  22
ATOM     22  C   UNL     1      45.669   5.808  11.776  0.00  0.00    +0.000 A 
ATOM     23  C   UNL     1      45.953   7.167  11.773  0.00  0.00    +0.000 A 
ATOM     24  S   UNL     1      46.970   7.655  13.052  0.00  0.00    +0.000 S 
ATOM     25  C   UNL     1      47.032   6.074  13.679  0.00  0.00    +0.000 A 
ATOM     26  N   UNL     1      47.724   5.799  14.817  0.00  0.00    +0.000 NA
ATOM     27  C   UNL     1      47.651   4.570  15.202  0.00  0.00    +0.000 A 
ATOM     28  N   UNL     1      46.962   3.584  14.546  0.00  0.00    +0.000 N 
ATOM     29  C   UNL     1      46.317   3.797  13.351  0.00  0.00    +0.000 A 
ATOM     30  O   UNL     1      45.834   2.865  12.719  0.00  0.00    +0.000 OA
ATOM     31  C   UNL     1      46.315   5.179  12.903  0.00  0.00    +0.000 A 
ATOM     32  H   UNL     1      46.973   2.634  14.881  0.00  0.00    +0.000 HD
ENDBRANCH  19  22
ENDBRANCH   1  20
TORSDOF 7
ENDMDL
MODEL 6
REMARK VINA RESULT:    -7.225      1.425      2.021
REMARK INTER + INTRA:         -11.542
REMARK INTER:                 -10.720
REMARK INTRA:                  -0.822
REMARK UNBOUND:                -1.360
REMARK  Name = 
REMARK  7 active torsions:
REMARK  status: ('A' for Active; 'I' for Inactive)
REMARK    1  A    between atoms: C_2  and  C_20
REMARK    2  A    between atoms: N_3  and  C_4
REMARK    3  A    between atoms: C_4  and  C_5
REMARK    4  A    between atoms: C_9  and  C_10
REMARK    5  A    between atoms: C_10  and  N_11
REMARK    6  A    between atoms: N_11  and  C_12
REMARK    7  A    between atoms: C_12  and  C_13
REMARK                            x       y       z     vdW  Elec       q    Type
REMARK                         _______ _______ _______ _____ _____    ______ ____
ROOT
ATOM      1  C   UNL     1      47.305   6.834  13.350  0.00  0.00    +0.000 C 
ENDROOT
BRANCH   1   2
ATOM      2  C   UNL     1      46.519   5.663  12.823  0.00  0.00    +0.000 A 
ATOM      3  C   UNL     1      46.677   4.397  13.403  0.00  0.00    +0.000 A 
ATOM      4  C   UNL     1      45.922   3.316  12.954  0.00  0.00    +0.000 A 
ATOM      5  C   UNL     1      44.998   3.491  11.925  0.00  0.00    +0.000 A 
ATOM      6  C   UNL     1      44.824   4.748  11.324  0.00  0.00    +0.000 A 
ATOM      7  C   UNL     1      45.612   5.823  11.763  0.00  0.00    +0.000 A 
BRANCH   6   8
ATOM      8  C   UNL     1      43.751   4.947  10.277  0.00  0.00    +0.000 C 
BRANCH   8   9
ATOM      9  N   UNL     1      44.014   4.071   9.138  0.00  0.00    +0.000 NA
ATOM     10  H   UNL     1      43.224   4.124   8.494  0.00  0.00    +0.000 HD
BRANCH   9  11
ATOM     11  C   UNL     1      45.226   4.452   8.409  0.00  0.00    +0.000 C 
BRANCH  11  12
ATOM     12  C   UNL     1      45.968   3.231   7.892  0.00  0.00    +0.000 A 
ATOM     13  C   UNL     1      46.917   3.367   6.879  0.00  0.00    +0.000 A 
ATOM     14  C   UNL     1      47.608   2.241   6.441  0.00  0.00    +0.000 A 
ATOM     15  C   UNL     1      47.332   1.009   7.022  0.00  0.00    +0.000 A 
ATOM     16  C   UNL     1      46.373   0.958   8.019  0.00  0.00    +0.000 A 
ATOM     17  N   UNL     1      45.689   2.033   8.468  0.00  0.00    +0.000 NA
ENDBRANCH  11  12
ENDBRANCH   9  11
ENDBRANCH   8   9
ENDBRANCH   6   8
ENDBRANCH   1   2
BRANCH   1  20
ATOM     18  O   UNL     1      49.909   7.071  14.395  0.00  0.00    +0.000 OA
ATOM     19  C   UNL     1      48.983   6.800  15.156  0.00  0.00    +0.000 C 
ATOM     20  N   UNL     1      47.694   6.640  14.721  0.00  0.00    +0.000 N 
ATOM     21  H   UNL     1      46.941   6.598  15.398  0.00  0.00    +0.000 HD
BRANCH  19  22
ATOM     22  C   UNL     1      49.215   6.564  16.586  0.00  0.00    +0.000 A 
ATOM     23  C   UNL     1      49.822   7.547  17.356  0.00  0.00    +0.000 A 
ATOM     24  S   UNL     1      50.029   7.104  18.990  0.00  0.00    +0.000 S 
ATOM     25  C   UNL     1      49.277   5.599  18.734  0.00  0.00    +0.000 A 
ATOM     26  N   UNL     1      49.096   4.724  19.760  0.00  0.00    +0.000 NA
ATOM     27  C   UNL     1      48.475   3.641  19.433  0.00  0.00    +0.000 A 
ATOM     28  N   UNL     1      48.031   3.344  18.171  0.00  0.00    +0.000 N 
ATOM     29  C   UNL     1      48.264   4.159  17.090  0.00  0.00    +0.000 A 
ATOM     30  O   UNL     1      47.982   3.798  15.954  0.00  0.00    +0.000 OA
ATOM     31  C   UNL     1      48.905   5.423  17.413  0.00  0.00    +0.000 A 
ATOM     32  H   UNL     1      47.583   2.463  17.976  0.00  0.00    +0.000 HD
ENDBRANCH  19  22
ENDBRANCH   1  20
TORSDOF 7
ENDMDL
MODEL 7
REMARK VINA RESULT:    -7.053      3.279      7.874
REMARK INTER + INTRA:         -11.300
REMARK INTER:                 -10.085
REMARK INTRA:                  -1.216
REMARK UNBOUND:                -1.360
REMARK  Name = 
REMARK  7 active torsions:
REMARK  status: ('A' for Active; 'I' for Inactive)
REMARK    1  A    between atoms: C_2  and  C_20
REMARK    2  A    between atoms: N_3  and  C_4
REMARK    3  A    between atoms: C_4  and  C_5
REMARK    4  A    between atoms: C_9  and  C_10
REMARK    5  A    between atoms: C_10  and  N_11
REMARK    6  A    between atoms: N_11  and  C_12
REMARK    7  A    between atoms: C_12  and  C_13
REMARK                            x       y       z     vdW  Elec       q    Type
REMARK                         _______ _______ _______ _____ _____    ______ ____
ROOT
ATOM      1  C   UNL     1      48.892   7.736  15.056  0.00  0.00    +0.000 C 
ENDROOT
BRANCH   1   2
ATOM      2  C   UNL     1      48.941   7.073  16.407  0.00  0.00    +0.000 A 
ATOM      3  C   UNL     1      49.490   7.755  17.501  0.00  0.00    +0.000 A 
ATOM      4  C   UNL     1      49.500   7.170  18.765  0.00  0.00    +0.000 A 
ATOM      5  C   UNL     1      48.957   5.899  18.948  0.00  0.00    +0.000 A 
ATOM      6  C   UNL     1      48.406   5.193  17.868  0.00  0.00    +0.000 A 
ATOM      7  C   UNL     1      48.429   5.779  16.593  0.00  0.00    +0.000 A 
BRANCH   6   8
ATOM      8  C   UNL     1      47.733   3.857  18.097  0.00  0.00    +0.000 C 
BRANCH   8   9
ATOM      9  N   UNL     1      48.746   2.843  18.375  0.00  0.00    +0.000 NA
ATOM     10  H   UNL     1      48.289   2.024  18.777  0.00  0.00    +0.000 HD
BRANCH   9  11
ATOM     11  C   UNL     1      49.460   2.422  17.168  0.00  0.00    +0.000 C 
BRANCH  11  12
ATOM     12  C   UNL     1      50.947   2.259  17.432  0.00  0.00    +0.000 A 
ATOM     13  C   UNL     1      51.727   3.373  17.747  0.00  0.00    +0.000 A 
ATOM     14  C   UNL     1      53.081   3.197  18.016  0.00  0.00    +0.000 A 
ATOM     15  C   UNL     1      53.623   1.919  17.962  0.00  0.00    +0.000 A 
ATOM     16  C   UNL     1      52.782   0.867  17.639  0.00  0.00    +0.000 A 
ATOM     17  N   UNL     1      51.464   1.005  17.376  0.00  0.00    +0.000 NA
ENDBRANCH  11  12
ENDBRANCH   9  11
ENDBRANCH   8   9
ENDBRANCH   6   8
ENDBRANCH   1   2
BRANCH   1  20
ATOM     18  O   UNL     1      48.667   5.858  12.969  0.00  0.00    +0.000 OA
ATOM     19  C   UNL     1      47.660   6.449  13.351  0.00  0.00    +0.000 C 
ATOM     20  N   UNL     1      47.691   7.396  14.340  0.00  0.00    +0.000 N 
ATOM     21  H   UNL     1      46.821   7.722  14.746  0.00  0.00    +0.000 HD
BRANCH  19  22
ATOM     22  C   UNL     1      46.356   6.220  12.718  0.00  0.00    +0.000 A 
ATOM     23  C   UNL     1      45.678   7.282  12.135  0.00  0.00    +0.000 A 
ATOM     24  S   UNL     1      44.174   6.844  11.460  0.00  0.00    +0.000 S 
ATOM     25  C   UNL     1      44.396   5.211  11.887  0.00  0.00    +0.000 A 
ATOM     26  N   UNL     1      43.469   4.271  11.561  0.00  0.00    +0.000 NA
ATOM     27  C   UNL     1      43.785   3.069  11.908  0.00  0.00    +0.000 A 
ATOM     28  N   UNL     1      44.936   2.721  12.564  0.00  0.00    +0.000 N 
ATOM     29  C   UNL     1      45.861   3.646  12.985  0.00  0.00    +0.000 A 
ATOM     30  O   UNL     1      46.805   3.318  13.694  0.00  0.00    +0.000 OA
ATOM     31  C   UNL     1      45.585   5.009  12.566  0.00  0.00    +0.000 A 
ATOM     32  H   UNL     1      45.106   1.766  12.838  0.00  0.00    +0.000 HD
ENDBRANCH  19  22
ENDBRANCH   1  20
TORSDOF 7
ENDMDL
MODEL 8
REMARK VINA RESULT:    -6.891      3.715      7.802
REMARK INTER + INTRA:         -11.071
REMARK INTER:                  -9.797
REMARK INTRA:                  -1.275
REMARK UNBOUND:                -1.360
REMARK  Name = 
REMARK  7 active torsions:
REMARK  status: ('A' for Active; 'I' for Inactive)
REMARK    1  A    between atoms: C_2  and  C_20
REMARK    2  A    between atoms: N_3  and  C_4
REMARK    3  A    between atoms: C_4  and  C_5
REMARK    4  A    between atoms: C_9  and  C_10
REMARK    5  A    between atoms: C_10  and  N_11
REMARK    6  A    between atoms: N_11  and  C_12
REMARK    7  A    between atoms: C_12  and  C_13
REMARK                            x       y       z     vdW  Elec       q    Type
REMARK                         _______ _______ _______ _____ _____    ______ ____
ROOT
ATOM      1  C   UNL     1      47.348   3.511  16.716  0.00  0.00    +0.000 C 
ENDROOT
BRANCH   1   2
ATOM      2  C   UNL     1      48.775   3.889  17.016  0.00  0.00    +0.000 A 
ATOM      3  C   UNL     1      49.694   2.903  17.399  0.00  0.00    +0.000 A 
ATOM      4  C   UNL     1      51.026   3.232  17.635  0.00  0.00    +0.000 A 
ATOM      5  C   UNL     1      51.454   4.550  17.484  0.00  0.00    +0.000 A 
ATOM      6  C   UNL     1      50.553   5.558  17.106  0.00  0.00    +0.000 A 
ATOM      7  C   UNL     1      49.206   5.220  16.901  0.00  0.00    +0.000 A 
BRANCH   6   8
ATOM      8  C   UNL     1      51.049   6.964  16.852  0.00  0.00    +0.000 C 
BRANCH   8   9
ATOM      9  N   UNL     1      51.371   7.119  15.435  0.00  0.00    +0.000 NA
ATOM     10  H   UNL     1      50.635   6.678  14.882  0.00  0.00    +0.000 HD
BRANCH   9  11
ATOM     11  C   UNL     1      51.466   8.524  15.035  0.00  0.00    +0.000 C 
BRANCH  11  12
ATOM     12  C   UNL     1      50.564   8.824  13.849  0.00  0.00    +0.000 A 
ATOM     13  C   UNL     1      50.390   7.871  12.845  0.00  0.00    +0.000 A 
ATOM     14  C   UNL     1      49.535   8.154  11.784  0.00  0.00    +0.000 A 
ATOM     15  C   UNL     1      48.880   9.378  11.750  0.00  0.00    +0.000 A 
ATOM     16  C   UNL     1      49.110  10.271  12.783  0.00  0.00    +0.000 A 
ATOM     17  N   UNL     1      49.930  10.024  13.828  0.00  0.00    +0.000 NA
ENDBRANCH  11  12
ENDBRANCH   9  11
ENDBRANCH   8   9
ENDBRANCH   6   8
ENDBRANCH   1   2
BRANCH   1  20
ATOM     18  O   UNL     1      47.244   3.207  13.918  0.00  0.00    +0.000 OA
ATOM     19  C   UNL     1      46.711   4.188  14.432  0.00  0.00    +0.000 C 
ATOM     20  N   UNL     1      46.742   4.422  15.781  0.00  0.00    +0.000 N 
ATOM     21  H   UNL     1      46.142   5.136  16.178  0.00  0.00    +0.000 HD
BRANCH  19  22
ATOM     22  C   UNL     1      46.056   5.215  13.614  0.00  0.00    +0.000 A 
ATOM     23  C   UNL     1      46.660   6.455  13.452  0.00  0.00    +0.000 A 
ATOM     24  S   UNL     1      45.758   7.533  12.487  0.00  0.00    +0.000 S 
ATOM     25  C   UNL     1      44.548   6.366  12.216  0.00  0.00    +0.000 A 
ATOM     26  N   UNL     1      43.478   6.639  11.423  0.00  0.00    +0.000 NA
ATOM     27  C   UNL     1      42.661   5.651  11.272  0.00  0.00    +0.000 A 
ATOM     28  N   UNL     1      42.808   4.419  11.852  0.00  0.00    +0.000 N 
ATOM     29  C   UNL     1      43.828   4.124  12.725  0.00  0.00    +0.000 A 
ATOM     30  O   UNL     1      43.850   3.063  13.337  0.00  0.00    +0.000 OA
ATOM     31  C   UNL     1      44.812   5.182  12.883  0.00  0.00    +0.000 A 
ATOM     32  H   UNL     1      42.114   3.700  11.721  0.00  0.00    +0.000 HD
ENDBRANCH  19  22
ENDBRANCH   1  20
TORSDOF 7
ENDMDL
MODEL 9
REMARK VINA RESULT:    -6.752      2.763      7.918
REMARK INTER + INTRA:         -10.876
REMARK INTER:                  -9.845
REMARK INTRA:                  -1.031
REMARK UNBOUND:                -1.360
REMARK  Name = 
REMARK  7 active torsions:
REMARK  status: ('A' for Active; 'I' for Inactive)
REMARK    1  A    between atoms: C_2  and  C_20
REMARK    2  A    between atoms: N_3  and  C_4
REMARK    3  A    between atoms: C_4  and  C_5
REMARK    4  A    between atoms: C_9  and  C_10
REMARK    5  A    between atoms: C_10  and  N_11
REMARK    6  A    between atoms: N_11  and  C_12
REMARK    7  A    between atoms: C_12  and  C_13
REMARK                            x       y       z     vdW  Elec       q    Type
REMARK                         _______ _______ _______ _____ _____    ______ ____
ROOT
ATOM      1  C   UNL     1      46.634   8.370  13.072  0.00  0.00    +0.000 C 
ENDROOT
BRANCH   1   2
ATOM      2  C   UNL     1      48.138   8.327  13.113  0.00  0.00    +0.000 A 
ATOM      3  C   UNL     1      48.880   8.701  11.984  0.00  0.00    +0.000 A 
ATOM      4  C   UNL     1      50.272   8.709  12.024  0.00  0.00    +0.000 A 
ATOM      5  C   UNL     1      50.936   8.349  13.196  0.00  0.00    +0.000 A 
ATOM      6  C   UNL     1      50.218   7.967  14.339  0.00  0.00    +0.000 A 
ATOM      7  C   UNL     1      48.816   7.932  14.277  0.00  0.00    +0.000 A 
BRANCH   6   8
ATOM      8  C   UNL     1      50.947   7.673  15.631  0.00  0.00    +0.000 C 
BRANCH   8   9
ATOM      9  N   UNL     1      50.996   6.229  15.845  0.00  0.00    +0.000 NA
ATOM     10  H   UNL     1      51.940   5.899  15.640  0.00  0.00    +0.000 HD
BRANCH   9  11
ATOM     11  C   UNL     1      50.671   5.857  17.224  0.00  0.00    +0.000 C 
BRANCH  11  12
ATOM     12  C   UNL     1      49.506   4.882  17.274  0.00  0.00    +0.000 A 
ATOM     13  C   UNL     1      49.366   4.017  18.360  0.00  0.00    +0.000 A 
ATOM     14  C   UNL     1      48.275   3.154  18.401  0.00  0.00    +0.000 A 
ATOM     15  C   UNL     1      47.356   3.173  17.360  0.00  0.00    +0.000 A 
ATOM     16  C   UNL     1      47.569   4.059  16.318  0.00  0.00    +0.000 A 
ATOM     17  N   UNL     1      48.615   4.912  16.251  0.00  0.00    +0.000 NA
ENDBRANCH  11  12
ENDBRANCH   9  11
ENDBRANCH   8   9
ENDBRANCH   6   8
ENDBRANCH   1   2
BRANCH   1  20
ATOM     18  O   UNL     1      44.677   7.765  11.139  0.00  0.00    +0.000 OA
ATOM     19  C   UNL     1      45.139   6.857  11.826  0.00  0.00    +0.000 C 
ATOM     20  N   UNL     1      46.072   7.073  12.805  0.00  0.00    +0.000 N 
ATOM     21  H   UNL     1      46.554   6.283  13.218  0.00  0.00    +0.000 HD
BRANCH  19  22
ATOM     22  C   UNL     1      44.665   5.475  11.681  0.00  0.00    +0.000 A 
ATOM     23  C   UNL     1      43.975   4.871  12.724  0.00  0.00    +0.000 A 
ATOM     24  S   UNL     1      43.511   3.264  12.396  0.00  0.00    +0.000 S 
ATOM     25  C   UNL     1      44.179   3.332  10.832  0.00  0.00    +0.000 A 
ATOM     26  N   UNL     1      44.091   2.270   9.986  0.00  0.00    +0.000 NA
ATOM     27  C   UNL     1      44.602   2.475   8.819  0.00  0.00    +0.000 A 
ATOM     28  N   UNL     1      45.207   3.639   8.423  0.00  0.00    +0.000 N 
ATOM     29  C   UNL     1      45.391   4.707   9.268  0.00  0.00    +0.000 A 
ATOM     30  O   UNL     1      46.061   5.674   8.927  0.00  0.00    +0.000 OA
ATOM     31  C   UNL     1      44.778   4.553  10.577  0.00  0.00    +0.000 A 
ATOM     32  H   UNL     1      45.618   3.722   7.506  0.00  0.00    +0.000 HD
ENDBRANCH  19  22
ENDBRANCH   1  20
TORSDOF 7
ENDMDL
