MODEL 1
REMARK VINA RESULT:    -8.012      0.000      0.000
REMARK INTER + INTRA:         -11.712
REMARK INTER:                 -10.354
REMARK INTRA:                  -1.358
REMARK UNBOUND:                -1.358
REMARK  Name = 
REMARK  5 active torsions:
REMARK  status: ('A' for Active; 'I' for Inactive)
REMARK    1  A    between atoms: C_2  and  C_4
REMARK    2  A    between atoms: C_9  and  N_10
REMARK    3  A    between atoms: N_10  and  C_11
REMARK    4  A    between atoms: C_11  and  C_12
REMARK    5  A    between atoms: C_16  and  C_17
REMARK                            x       y       z     vdW  Elec       q    Type
REMARK                         _______ _______ _______ _____ _____    ______ ____
ROOT
ATOM      1  N   UNL     1      44.785   6.766  12.878  0.00  0.00    +0.000 N 
ATOM      2  H   UNL     1      44.396   7.612  13.292  0.00  0.00    +0.000 HD
ENDROOT
BRANCH   1   8
ATOM      3  C   UNL     1      47.103   6.063  13.376  0.00  0.00    +0.000 A 
ATOM      4  C   UNL     1      48.478   6.311  13.225  0.00  0.00    +0.000 A 
ATOM      5  C   UNL     1      48.918   7.364  12.435  0.00  0.00    +0.000 A 
ATOM      6  C   UNL     1      47.962   8.143  11.823  0.00  0.00    +0.000 A 
ATOM      7  N   UNL     1      46.633   7.948  11.968  0.00  0.00    +0.000 NA
ATOM      8  C   UNL     1      46.189   6.930  12.753  0.00  0.00    +0.000 A 
BRANCH   3  10
ATOM      9  N   UNL     1      47.046   4.887  15.507  0.00  0.00    +0.000 N 
ATOM     10  C   UNL     1      46.733   4.875  14.182  0.00  0.00    +0.000 C 
ATOM     11  O   UNL     1      46.121   3.933  13.688  0.00  0.00    +0.000 OA
ATOM     12  H   UNL     1      46.689   4.141  16.091  0.00  0.00    +0.000 HD
ATOM     13  H   UNL     1      47.467   5.700  15.945  0.00  0.00    +0.000 HD
ENDBRANCH   3  10
ENDBRANCH   1   8
BRANCH   1  14
ATOM     14  C   UNL     1      44.158   6.482  11.586  0.00  0.00    +0.000 C 
BRANCH  14  15
ATOM     15  C   UNL     1      44.170   5.007  11.264  0.00  0.00    +0.000 A 
ATOM     16  C   UNL     1      43.297   4.116  11.898  0.00  0.00    +0.000 A 
ATOM     17  C   UNL     1      43.236   2.785  11.483  0.00  0.00    +0.000 A 
ATOM     18  C   UNL     1      44.031   2.340  10.421  0.00  0.00    +0.000 A 
ATOM     19  C   UNL     1      44.903   3.210   9.746  0.00  0.00    +0.000 A 
ATOM     20  C   UNL     1      44.984   4.533  10.222  0.00  0.00    +0.000 A 
BRANCH  19  21
ATOM     21  C   UNL     1      45.615   2.814   8.508  0.00  0.00    +0.000 A 
ATOM     22  C   UNL     1      45.899   3.756   7.502  0.00  0.00    +0.000 A 
ATOM     23  C   UNL     1      46.691   3.430   6.396  0.00  0.00    +0.000 A 
ATOM     24  C   UNL     1      47.221   2.151   6.271  0.00  0.00    +0.000 A 
ATOM     25  C   UNL     1      46.935   1.190   7.235  0.00  0.00    +0.000 A 
ATOM     26  C   UNL     1      46.130   1.515   8.333  0.00  0.00    +0.000 A 
ENDBRANCH  19  21
ENDBRANCH  14  15
ENDBRANCH   1  14
TORSDOF 5
ENDMDL
MODEL 2
REMARK VINA RESULT:    -7.116      1.683      2.452
REMARK INTER + INTRA:         -10.553
REMARK INTER:                  -9.613
REMARK INTRA:                  -0.941
REMARK UNBOUND:                -1.358
REMARK  Name = 
REMARK  5 active torsions:
REMARK  status: ('A' for Active; 'I' for Inactive)
REMARK    1  A    between atoms: C_2  and  C_4
REMARK    2  A    between atoms: C_9  and  N_10
REMARK    3  A    between atoms: N_10  and  C_11
REMARK    4  A    between atoms: C_11  and  C_12
REMARK    5  A    between atoms: C_16  and  C_17
REMARK                            x       y       z     vdW  Elec       q    Type
REMARK                         _______ _______ _______ _____ _____    ______ ____
ROOT
ATOM      1  N   UNL     1      44.456   7.048  12.489  0.00  0.00    +0.000 N 
ATOM      2  H   UNL     1      43.986   7.933  12.679  0.00  0.00    +0.000 HD
ENDROOT
BRANCH   1   8
ATOM      3  C   UNL     1      46.495   8.400  12.849  0.00  0.00    +0.000 A 
ATOM      4  C   UNL     1      47.851   8.431  13.218  0.00  0.00    +0.000 A 
ATOM      5  C   UNL     1      48.487   7.273  13.644  0.00  0.00    +0.000 A 
ATOM      6  C   UNL     1      47.744   6.115  13.679  0.00  0.00    +0.000 A 
ATOM      7  N   UNL     1      46.447   6.046  13.307  0.00  0.00    +0.000 NA
ATOM      8  C   UNL     1      45.817   7.169  12.873  0.00  0.00    +0.000 A 
BRANCH   3  10
ATOM      9  N   UNL     1      46.722  10.750  12.255  0.00  0.00    +0.000 N 
ATOM     10  C   UNL     1      45.885   9.699  12.476  0.00  0.00    +0.000 C 
ATOM     11  O   UNL     1      44.673   9.816  12.322  0.00  0.00    +0.000 OA
ATOM     12  H   UNL     1      46.329  11.605  11.880  0.00  0.00    +0.000 HD
ATOM     13  H   UNL     1      47.730  10.641  12.287  0.00  0.00    +0.000 HD
ENDBRANCH   3  10
ENDBRANCH   1   8
BRANCH   1  14
ATOM     14  C   UNL     1      44.324   6.680  11.079  0.00  0.00    +0.000 C 
BRANCH  14  15
ATOM     15  C   UNL     1      44.327   5.183  10.884  0.00  0.00    +0.000 A 
ATOM     16  C   UNL     1      43.458   4.353  11.600  0.00  0.00    +0.000 A 
ATOM     17  C   UNL     1      43.388   2.992  11.301  0.00  0.00    +0.000 A 
ATOM     18  C   UNL     1      44.170   2.454  10.272  0.00  0.00    +0.000 A 
ATOM     19  C   UNL     1      45.037   3.261   9.516  0.00  0.00    +0.000 A 
ATOM     20  C   UNL     1      45.128   4.619   9.876  0.00  0.00    +0.000 A 
BRANCH  19  21
ATOM     21  C   UNL     1      45.733   2.757   8.307  0.00  0.00    +0.000 A 
ATOM     22  C   UNL     1      46.014   3.611   7.224  0.00  0.00    +0.000 A 
ATOM     23  C   UNL     1      46.792   3.189   6.141  0.00  0.00    +0.000 A 
ATOM     24  C   UNL     1      47.312   1.900   6.118  0.00  0.00    +0.000 A 
ATOM     25  C   UNL     1      47.029   1.024   7.161  0.00  0.00    +0.000 A 
ATOM     26  C   UNL     1      46.239   1.445   8.236  0.00  0.00    +0.000 A 
ENDBRANCH  19  21
ENDBRANCH  14  15
ENDBRANCH   1  14
TORSDOF 5
ENDMDL
MODEL 3
REMARK VINA RESULT:    -7.006      2.535      4.407
REMARK INTER + INTRA:         -10.412
REMARK INTER:                  -9.360
REMARK INTRA:                  -1.052
REMARK UNBOUND:                -1.358
REMARK  Name = 
REMARK  5 active torsions:
REMARK  status: ('A' for Active; 'I' for Inactive)
REMARK    1  A    between atoms: C_2  and  C_4
REMARK    2  A    between atoms: C_9  and  N_10
REMARK    3  A    between atoms: N_10  and  C_11
REMARK    4  A    between atoms: C_11  and  C_12
REMARK    5  A    between atoms: C_16  and  C_17
REMARK                            x       y       z     vdW  Elec       q    Type
REMARK                         _______ _______ _______ _____ _____    ______ ____
ROOT
ATOM      1  N   UNL     1      47.986   6.432  15.600  0.00  0.00    +0.000 N 
ATOM      2  H   UNL     1      47.931   7.354  16.033  0.00  0.00    +0.000 HD
ENDROOT
BRANCH   1   8
ATOM      3  C   UNL     1      48.624   4.384  16.829  0.00  0.00    +0.000 A 
ATOM      4  C   UNL     1      49.611   3.689  17.549  0.00  0.00    +0.000 A 
ATOM      5  C   UNL     1      50.879   4.233  17.703  0.00  0.00    +0.000 A 
ATOM      6  C   UNL     1      51.117   5.464  17.134  0.00  0.00    +0.000 A 
ATOM      7  N   UNL     1      50.184   6.168  16.458  0.00  0.00    +0.000 NA
ATOM      8  C   UNL     1      48.934   5.655  16.315  0.00  0.00    +0.000 A 
BRANCH   3  10
ATOM      9  N   UNL     1      46.907   2.874  17.664  0.00  0.00    +0.000 N 
ATOM     10  C   UNL     1      47.324   3.692  16.659  0.00  0.00    +0.000 C 
ATOM     11  O   UNL     1      46.622   3.885  15.671  0.00  0.00    +0.000 OA
ATOM     12  H   UNL     1      45.969   2.496  17.617  0.00  0.00    +0.000 HD
ATOM     13  H   UNL     1      47.435   2.780  18.525  0.00  0.00    +0.000 HD
ENDBRANCH   3  10
ENDBRANCH   1   8
BRANCH   1  14
ATOM     14  C   UNL     1      48.336   6.542  14.183  0.00  0.00    +0.000 C 
BRANCH  14  15
ATOM     15  C   UNL     1      47.128   6.827  13.323  0.00  0.00    +0.000 A 
ATOM     16  C   UNL     1      46.597   8.116  13.216  0.00  0.00    +0.000 A 
ATOM     17  C   UNL     1      45.567   8.374  12.310  0.00  0.00    +0.000 A 
ATOM     18  C   UNL     1      45.075   7.351  11.492  0.00  0.00    +0.000 A 
ATOM     19  C   UNL     1      45.599   6.049  11.555  0.00  0.00    +0.000 A 
ATOM     20  C   UNL     1      46.598   5.805  12.517  0.00  0.00    +0.000 A 
BRANCH  19  21
ATOM     21  C   UNL     1      45.227   4.999  10.577  0.00  0.00    +0.000 A 
ATOM     22  C   UNL     1      45.642   5.079   9.235  0.00  0.00    +0.000 A 
ATOM     23  C   UNL     1      45.421   4.030   8.336  0.00  0.00    +0.000 A 
ATOM     24  C   UNL     1      44.781   2.872   8.761  0.00  0.00    +0.000 A 
ATOM     25  C   UNL     1      44.336   2.773  10.075  0.00  0.00    +0.000 A 
ATOM     26  C   UNL     1      44.545   3.830  10.968  0.00  0.00    +0.000 A 
ENDBRANCH  19  21
ENDBRANCH  14  15
ENDBRANCH   1  14
TORSDOF 5
ENDMDL
MODEL 4
REMARK VINA RESULT:    -6.926      3.447      7.095
REMARK INTER + INTRA:         -10.308
REMARK INTER:                  -9.434
REMARK INTRA:                  -0.873
REMARK UNBOUND:                -1.358
REMARK  Name = 
REMARK  5 active torsions:
REMARK  status: ('A' for Active; 'I' for Inactive)
REMARK    1  A    between atoms: C_2  and  C_4
REMARK    2  A    between atoms: C_9  and  N_10
REMARK    3  A    between atoms: N_10  and  C_11
REMARK    4  A    between atoms: C_11  and  C_12
REMARK    5  A    between atoms: C_16  and  C_17
REMARK                            x       y       z     vdW  Elec       q    Type
REMARK                         _______ _______ _______ _____ _____    ______ ____
ROOT
ATOM      1  N   UNL     1      44.858   5.726  10.254  0.00  0.00    +0.000 N 
ATOM      2  H   UNL     1      43.948   5.584  10.689  0.00  0.00    +0.000 HD
ENDROOT
BRANCH   1   8
ATOM      3  C   UNL     1      44.868   3.269   9.970  0.00  0.00    +0.000 A 
ATOM      4  C   UNL     1      45.258   2.164   9.193  0.00  0.00    +0.000 A 
ATOM      5  C   UNL     1      45.907   2.354   7.981  0.00  0.00    +0.000 A 
ATOM      6  C   UNL     1      46.152   3.650   7.586  0.00  0.00    +0.000 A 
ATOM      7  N   UNL     1      45.813   4.732   8.320  0.00  0.00    +0.000 NA
ATOM      8  C   UNL     1      45.192   4.559   9.516  0.00  0.00    +0.000 A 
BRANCH   3  10
ATOM      9  N   UNL     1      44.837   2.601  12.310  0.00  0.00    +0.000 N 
ATOM     10  C   UNL     1      44.119   2.969  11.213  0.00  0.00    +0.000 C 
ATOM     11  O   UNL     1      42.900   3.094  11.271  0.00  0.00    +0.000 OA
ATOM     12  H   UNL     1      44.352   2.516  13.195  0.00  0.00    +0.000 HD
ATOM     13  H   UNL     1      45.852   2.586  12.299  0.00  0.00    +0.000 HD
ENDBRANCH   3  10
ENDBRANCH   1   8
BRANCH   1  14
ATOM     14  C   UNL     1      45.874   6.036  11.261  0.00  0.00    +0.000 C 
BRANCH  14  15
ATOM     15  C   UNL     1      45.857   7.496  11.648  0.00  0.00    +0.000 A 
ATOM     16  C   UNL     1      46.993   8.124  12.169  0.00  0.00    +0.000 A 
ATOM     17  C   UNL     1      46.989   9.502  12.389  0.00  0.00    +0.000 A 
ATOM     18  C   UNL     1      45.859  10.264  12.071  0.00  0.00    +0.000 A 
ATOM     19  C   UNL     1      44.708   9.672  11.524  0.00  0.00    +0.000 A 
ATOM     20  C   UNL     1      44.721   8.273  11.365  0.00  0.00    +0.000 A 
BRANCH  19  21
ATOM     21  C   UNL     1      43.574  10.475  11.008  0.00  0.00    +0.000 A 
ATOM     22  C   UNL     1      42.354   9.866  10.659  0.00  0.00    +0.000 A 
ATOM     23  C   UNL     1      41.232  10.622  10.307  0.00  0.00    +0.000 A 
ATOM     24  C   UNL     1      41.303  12.011  10.299  0.00  0.00    +0.000 A 
ATOM     25  C   UNL     1      42.503  12.641  10.613  0.00  0.00    +0.000 A 
ATOM     26  C   UNL     1      43.627  11.881  10.951  0.00  0.00    +0.000 A 
ENDBRANCH  19  21
ENDBRANCH  14  15
ENDBRANCH   1  14
TORSDOF 5
ENDMDL
MODEL 5
REMARK VINA RESULT:    -6.636      2.308      6.820
REMARK INTER + INTRA:          -9.933
REMARK INTER:                  -9.076
REMARK INTRA:                  -0.857
REMARK UNBOUND:                -1.358
REMARK  Name = 
REMARK  5 active torsions:
REMARK  status: ('A' for Active; 'I' for Inactive)
REMARK    1  A    between atoms: C_2  and  C_4
REMARK    2  A    between atoms: C_9  and  N_10
REMARK    3  A    between atoms: N_10  and  C_11
REMARK    4  A    between atoms: C_11  and  C_12
REMARK    5  A    between atoms: C_16  and  C_17
REMARK                            x       y       z     vdW  Elec       q    Type
REMARK                         _______ _______ _______ _____ _____    ______ ____
ROOT
ATOM      1  N   UNL     1      45.076   5.620  11.265  0.00  0.00    +0.000 N 
ATOM      2  H   UNL     1      45.345   5.161  12.134  0.00  0.00    +0.000 HD
ENDROOT
BRANCH   1   8
ATOM      3  C   UNL     1      44.744   3.356  10.329  0.00  0.00    +0.000 A 
ATOM      4  C   UNL     1      44.918   2.482   9.242  0.00  0.00    +0.000 A 
ATOM      5  C   UNL     1      45.475   2.942   8.056  0.00  0.00    +0.000 A 
ATOM      6  C   UNL     1      45.848   4.266   7.999  0.00  0.00    +0.000 A 
ATOM      7  N   UNL     1      45.718   5.125   9.034  0.00  0.00    +0.000 NA
ATOM      8  C   UNL     1      45.190   4.683  10.205  0.00  0.00    +0.000 A 
BRANCH   3  10
ATOM      9  N   UNL     1      44.792   2.742  12.684  0.00  0.00    +0.000 N 
ATOM     10  C   UNL     1      44.077   2.792  11.526  0.00  0.00    +0.000 C 
ATOM     11  O   UNL     1      42.906   2.427  11.493  0.00  0.00    +0.000 OA
ATOM     12  H   UNL     1      44.310   2.477  13.534  0.00  0.00    +0.000 HD
ATOM     13  H   UNL     1      45.729   3.128  12.746  0.00  0.00    +0.000 HD
ENDBRANCH   3  10
ENDBRANCH   1   8
BRANCH   1  14
ATOM     14  C   UNL     1      45.900   6.807  11.027  0.00  0.00    +0.000 C 
BRANCH  14  15
ATOM     15  C   UNL     1      47.103   6.851  11.939  0.00  0.00    +0.000 A 
ATOM     16  C   UNL     1      48.169   7.722  11.696  0.00  0.00    +0.000 A 
ATOM     17  C   UNL     1      49.201   7.839  12.628  0.00  0.00    +0.000 A 
ATOM     18  C   UNL     1      49.165   7.102  13.817  0.00  0.00    +0.000 A 
ATOM     19  C   UNL     1      48.099   6.234  14.106  0.00  0.00    +0.000 A 
ATOM     20  C   UNL     1      47.100   6.094  13.124  0.00  0.00    +0.000 A 
BRANCH  19  21
ATOM     21  C   UNL     1      47.943   5.586  15.431  0.00  0.00    +0.000 A 
ATOM     22  C   UNL     1      47.249   4.370  15.566  0.00  0.00    +0.000 A 
ATOM     23  C   UNL     1      47.215   3.677  16.780  0.00  0.00    +0.000 A 
ATOM     24  C   UNL     1      47.879   4.184  17.890  0.00  0.00    +0.000 A 
ATOM     25  C   UNL     1      48.552   5.399  17.795  0.00  0.00    +0.000 A 
ATOM     26  C   UNL     1      48.571   6.097  16.583  0.00  0.00    +0.000 A 
ENDBRANCH  19  21
ENDBRANCH  14  15
ENDBRANCH   1  14
TORSDOF 5
ENDMDL
MODEL 6
REMARK VINA RESULT:    -6.608      3.314      5.523
REMARK INTER + INTRA:          -9.897
REMARK INTER:                  -8.648
REMARK INTRA:                  -1.249
REMARK UNBOUND:                -1.358
REMARK  Name = 
REMARK  5 active torsions:
REMARK  status: ('A' for Active; 'I' for Inactive)
REMARK    1  A    between atoms: C_2  and  C_4
REMARK    2  A    between atoms: C_9  and  N_10
REMARK    3  A    between atoms: N_10  and  C_11
REMARK    4  A    between atoms: C_11  and  C_12
REMARK    5  A    between atoms: C_16  and  C_17
REMARK                            x       y       z     vdW  Elec       q    Type
REMARK                         _______ _______ _______ _____ _____    ______ ____
ROOT
ATOM      1  N   UNL     1      48.266   6.340  16.240  0.00  0.00    +0.000 N 
ATOM      2  H   UNL     1      47.855   6.827  17.035  0.00  0.00    +0.000 HD
ENDROOT
BRANCH   1   8
ATOM      3  C   UNL     1      48.730   4.031  16.994  0.00  0.00    +0.000 A 
ATOM      4  C   UNL     1      49.664   3.112  17.502  0.00  0.00    +0.000 A 
ATOM      5  C   UNL     1      50.987   3.489  17.690  0.00  0.00    +0.000 A 
ATOM      6  C   UNL     1      51.332   4.782  17.367  0.00  0.00    +0.000 A 
ATOM      7  N   UNL     1      50.454   5.697  16.901  0.00  0.00    +0.000 NA
ATOM      8  C   UNL     1      49.153   5.345  16.729  0.00  0.00    +0.000 A 
BRANCH   3  10
ATOM      9  N   UNL     1      46.809   2.728  17.726  0.00  0.00    +0.000 N 
ATOM     10  C   UNL     1      47.359   3.516  16.762  0.00  0.00    +0.000 C 
ATOM     11  O   UNL     1      46.720   3.828  15.762  0.00  0.00    +0.000 OA
ATOM     12  H   UNL     1      45.832   2.475  17.638  0.00  0.00    +0.000 HD
ATOM     13  H   UNL     1      47.292   2.542  18.599  0.00  0.00    +0.000 HD
ENDBRANCH   3  10
ENDBRANCH   1   8
BRANCH   1  14
ATOM     14  C   UNL     1      48.949   7.282  15.351  0.00  0.00    +0.000 C 
BRANCH  14  15
ATOM     15  C   UNL     1      48.376   7.255  13.954  0.00  0.00    +0.000 A 
ATOM     16  C   UNL     1      49.101   7.739  12.860  0.00  0.00    +0.000 A 
ATOM     17  C   UNL     1      48.603   7.577  11.566  0.00  0.00    +0.000 A 
ATOM     18  C   UNL     1      47.389   6.914  11.355  0.00  0.00    +0.000 A 
ATOM     19  C   UNL     1      46.644   6.395  12.428  0.00  0.00    +0.000 A 
ATOM     20  C   UNL     1      47.143   6.622  13.725  0.00  0.00    +0.000 A 
BRANCH  19  21
ATOM     21  C   UNL     1      45.456   5.532  12.221  0.00  0.00    +0.000 A 
ATOM     22  C   UNL     1      44.262   6.058  11.694  0.00  0.00    +0.000 A 
ATOM     23  C   UNL     1      43.183   5.232  11.362  0.00  0.00    +0.000 A 
ATOM     24  C   UNL     1      43.275   3.858  11.545  0.00  0.00    +0.000 A 
ATOM     25  C   UNL     1      44.433   3.311  12.090  0.00  0.00    +0.000 A 
ATOM     26  C   UNL     1      45.505   4.141  12.435  0.00  0.00    +0.000 A 
ENDBRANCH  19  21
ENDBRANCH  14  15
ENDBRANCH   1  14
TORSDOF 5
ENDMDL
MODEL 7
REMARK VINA RESULT:    -6.537      2.573      6.630
REMARK INTER + INTRA:          -9.806
REMARK INTER:                  -8.870
REMARK INTRA:                  -0.936
REMARK UNBOUND:                -1.358
REMARK  Name = 
REMARK  5 active torsions:
REMARK  status: ('A' for Active; 'I' for Inactive)
REMARK    1  A    between atoms: C_2  and  C_4
REMARK    2  A    between atoms: C_9  and  N_10
REMARK    3  A    between atoms: N_10  and  C_11
REMARK    4  A    between atoms: C_11  and  C_12
REMARK    5  A    between atoms: C_16  and  C_17
REMARK                            x       y       z     vdW  Elec       q    Type
REMARK                         _______ _______ _______ _____ _____    ______ ____
ROOT
ATOM      1  N   UNL     1      45.018   6.023  10.656  0.00  0.00    +0.000 N 
ATOM      2  H   UNL     1      44.073   6.122  11.024  0.00  0.00    +0.000 HD
ENDROOT
BRANCH   1   8
ATOM      3  C   UNL     1      44.432   3.648  10.293  0.00  0.00    +0.000 A 
ATOM      4  C   UNL     1      44.566   2.499   9.494  0.00  0.00    +0.000 A 
ATOM      5  C   UNL     1      45.289   2.551   8.310  0.00  0.00    +0.000 A 
ATOM      6  C   UNL     1      45.862   3.754   7.965  0.00  0.00    +0.000 A 
ATOM      7  N   UNL     1      45.772   4.869   8.723  0.00  0.00    +0.000 NA
ATOM      8  C   UNL     1      45.082   4.828   9.892  0.00  0.00    +0.000 A 
BRANCH   3  10
ATOM      9  N   UNL     1      43.806   2.443  12.313  0.00  0.00    +0.000 N 
ATOM     10  C   UNL     1      43.583   3.513  11.501  0.00  0.00    +0.000 C 
ATOM     11  O   UNL     1      42.744   4.360  11.791  0.00  0.00    +0.000 OA
ATOM     12  H   UNL     1      43.322   2.407  13.202  0.00  0.00    +0.000 HD
ATOM     13  H   UNL     1      44.560   1.788  12.133  0.00  0.00    +0.000 HD
ENDBRANCH   3  10
ENDBRANCH   1   8
BRANCH   1  14
ATOM     14  C   UNL     1      46.002   6.023  11.740  0.00  0.00    +0.000 C 
BRANCH  14  15
ATOM     15  C   UNL     1      46.794   7.308  11.783  0.00  0.00    +0.000 A 
ATOM     16  C   UNL     1      46.204   8.514  12.174  0.00  0.00    +0.000 A 
ATOM     17  C   UNL     1      46.991   9.656  12.336  0.00  0.00    +0.000 A 
ATOM     18  C   UNL     1      48.373   9.595  12.127  0.00  0.00    +0.000 A 
ATOM     19  C   UNL     1      49.004   8.396  11.755  0.00  0.00    +0.000 A 
ATOM     20  C   UNL     1      48.179   7.275  11.546  0.00  0.00    +0.000 A 
BRANCH  19  21
ATOM     21  C   UNL     1      50.480   8.260  11.709  0.00  0.00    +0.000 A 
ATOM     22  C   UNL     1      51.110   7.550  10.670  0.00  0.00    +0.000 A 
ATOM     23  C   UNL     1      52.502   7.532  10.534  0.00  0.00    +0.000 A 
ATOM     24  C   UNL     1      53.298   8.230  11.435  0.00  0.00    +0.000 A 
ATOM     25  C   UNL     1      52.706   8.919  12.488  0.00  0.00    +0.000 A 
ATOM     26  C   UNL     1      51.314   8.922  12.630  0.00  0.00    +0.000 A 
ENDBRANCH  19  21
ENDBRANCH  14  15
ENDBRANCH   1  14
TORSDOF 5
ENDMDL
MODEL 8
REMARK VINA RESULT:    -6.393      2.606      7.076
REMARK INTER + INTRA:          -9.619
REMARK INTER:                  -8.597
REMARK INTRA:                  -1.023
REMARK UNBOUND:                -1.358
REMARK  Name = 
REMARK  5 active torsions:
REMARK  status: ('A' for Active; 'I' for Inactive)
REMARK    1  A    between atoms: C_2  and  C_4
REMARK    2  A    between atoms: C_9  and  N_10
REMARK    3  A    between atoms: N_10  and  C_11
REMARK    4  A    between atoms: C_11  and  C_12
REMARK    5  A    between atoms: C_16  and  C_17
REMARK                            x       y       z     vdW  Elec       q    Type
REMARK                         _______ _______ _______ _____ _____    ______ ____
ROOT
ATOM      1  N   UNL     1      45.432   6.156  10.412  0.00  0.00    +0.000 N 
ATOM      2  H   UNL     1      44.973   6.576   9.604  0.00  0.00    +0.000 HD
ENDROOT
BRANCH   1   8
ATOM      3  C   UNL     1      44.749   3.823   9.958  0.00  0.00    +0.000 A 
ATOM      4  C   UNL     1      44.006   2.702  10.365  0.00  0.00    +0.000 A 
ATOM      5  C   UNL     1      43.309   2.721  11.566  0.00  0.00    +0.000 A 
ATOM      6  C   UNL     1      43.374   3.871  12.321  0.00  0.00    +0.000 A 
ATOM      7  N   UNL     1      44.058   4.974  11.946  0.00  0.00    +0.000 NA
ATOM      8  C   UNL     1      44.730   4.974  10.765  0.00  0.00    +0.000 A 
BRANCH   3  10
ATOM      9  N   UNL     1      45.821   2.422   8.280  0.00  0.00    +0.000 N 
ATOM     10  C   UNL     1      45.515   3.682   8.697  0.00  0.00    +0.000 C 
ATOM     11  O   UNL     1      45.822   4.660   8.023  0.00  0.00    +0.000 OA
ATOM     12  H   UNL     1      46.231   2.307   7.362  0.00  0.00    +0.000 HD
ATOM     13  H   UNL     1      45.490   1.604   8.781  0.00  0.00    +0.000 HD
ENDBRANCH   3  10
ENDBRANCH   1   8
BRANCH   1  14
ATOM     14  C   UNL     1      45.490   7.102  11.527  0.00  0.00    +0.000 C 
BRANCH  14  15
ATOM     15  C   UNL     1      46.815   7.043  12.249  0.00  0.00    +0.000 A 
ATOM     16  C   UNL     1      47.881   7.872  11.884  0.00  0.00    +0.000 A 
ATOM     17  C   UNL     1      49.045   7.892  12.654  0.00  0.00    +0.000 A 
ATOM     18  C   UNL     1      49.144   7.101  13.803  0.00  0.00    +0.000 A 
ATOM     19  C   UNL     1      48.086   6.273  14.214  0.00  0.00    +0.000 A 
ATOM     20  C   UNL     1      46.946   6.231  13.388  0.00  0.00    +0.000 A 
BRANCH  19  21
ATOM     21  C   UNL     1      48.092   5.570  15.520  0.00  0.00    +0.000 A 
ATOM     22  C   UNL     1      47.307   4.422  15.728  0.00  0.00    +0.000 A 
ATOM     23  C   UNL     1      47.408   3.668  16.902  0.00  0.00    +0.000 A 
ATOM     24  C   UNL     1      48.303   4.045  17.896  0.00  0.00    +0.000 A 
ATOM     25  C   UNL     1      49.074   5.192  17.731  0.00  0.00    +0.000 A 
ATOM     26  C   UNL     1      48.959   5.951  16.562  0.00  0.00    +0.000 A 
ENDBRANCH  19  21
ENDBRANCH  14  15
ENDBRANCH   1  14
TORSDOF 5
ENDMDL
MODEL 9
REMARK VINA RESULT:    -6.374      2.199      3.091
REMARK INTER + INTRA:          -9.594
REMARK INTER:                  -8.554
REMARK INTRA:                  -1.041
REMARK UNBOUND:                -1.358
REMARK  Name = 
REMARK  5 active torsions:
REMARK  status: ('A' for Active; 'I' for Inactive)
REMARK    1  A    between atoms: C_2  and  C_4
REMARK    2  A    between atoms: C_9  and  N_10
REMARK    3  A    between atoms: N_10  and  C_11
REMARK    4  A    between atoms: C_11  and  C_12
REMARK    5  A    between atoms: C_16  and  C_17
REMARK                            x       y       z     vdW  Elec       q    Type
REMARK                         _______ _______ _______ _____ _____    ______ ____
ROOT
ATOM      1  N   UNL     1      47.681   7.046  11.787  0.00  0.00    +0.000 N 
ATOM      2  H   UNL     1      47.762   6.117  11.374  0.00  0.00    +0.000 HD
ENDROOT
BRANCH   1   8
ATOM      3  C   UNL     1      49.660   7.661  13.136  0.00  0.00    +0.000 A 
ATOM      4  C   UNL     1      50.315   7.607  14.379  0.00  0.00    +0.000 A 
ATOM      5  C   UNL     1      49.697   7.010  15.470  0.00  0.00    +0.000 A 
ATOM      6  C   UNL     1      48.442   6.479  15.279  0.00  0.00    +0.000 A 
ATOM      7  N   UNL     1      47.796   6.492  14.093  0.00  0.00    +0.000 NA
ATOM      8  C   UNL     1      48.396   7.058  13.013  0.00  0.00    +0.000 A 
BRANCH   3  10
ATOM      9  N   UNL     1      51.615   7.946  11.714  0.00  0.00    +0.000 N 
ATOM     10  C   UNL     1      50.368   8.379  12.050  0.00  0.00    +0.000 C 
ATOM     11  O   UNL     1      49.835   9.299  11.438  0.00  0.00    +0.000 OA
ATOM     12  H   UNL     1      52.056   8.345  10.895  0.00  0.00    +0.000 HD
ATOM     13  H   UNL     1      52.027   7.128  12.149  0.00  0.00    +0.000 HD
ENDBRANCH   3  10
ENDBRANCH   1   8
BRANCH   1  14
ATOM     14  C   UNL     1      46.276   7.410  11.977  0.00  0.00    +0.000 C 
BRANCH  14  15
ATOM     15  C   UNL     1      45.341   6.346  11.453  0.00  0.00    +0.000 A 
ATOM     16  C   UNL     1      43.965   6.403  11.695  0.00  0.00    +0.000 A 
ATOM     17  C   UNL     1      43.110   5.484  11.085  0.00  0.00    +0.000 A 
ATOM     18  C   UNL     1      43.622   4.516  10.214  0.00  0.00    +0.000 A 
ATOM     19  C   UNL     1      44.996   4.442   9.929  0.00  0.00    +0.000 A 
ATOM     20  C   UNL     1      45.840   5.346  10.602  0.00  0.00    +0.000 A 
BRANCH  19  21
ATOM     21  C   UNL     1      45.539   3.552   8.875  0.00  0.00    +0.000 A 
ATOM     22  C   UNL     1      46.209   4.079   7.756  0.00  0.00    +0.000 A 
ATOM     23  C   UNL     1      46.849   3.251   6.828  0.00  0.00    +0.000 A 
ATOM     24  C   UNL     1      46.835   1.871   7.000  0.00  0.00    +0.000 A 
ATOM     25  C   UNL     1      46.158   1.319   8.082  0.00  0.00    +0.000 A 
ATOM     26  C   UNL     1      45.507   2.150   9.001  0.00  0.00    +0.000 A 
ENDBRANCH  19  21
ENDBRANCH  14  15
ENDBRANCH   1  14
TORSDOF 5
ENDMDL
