MODEL 1
REMARK VINA RESULT:    -7.542      0.000      0.000
REMARK INTER + INTRA:         -11.433
REMARK INTER:                 -10.628
REMARK INTRA:                  -0.805
REMARK UNBOUND:                -0.805
REMARK  Name = 
REMARK  7 active torsions:
REMARK  status: ('A' for Active; 'I' for Inactive)
REMARK    1  A    between atoms: C_2  and  C_3
REMARK    2  A    between atoms: C_4  and  C_5
REMARK    3  A    between atoms: C_9  and  C_10
REMARK    4  A    between atoms: C_10  and  C_11
REMARK    5  A    between atoms: C_11  and  N_12
REMARK    6  A    between atoms: N_12  and  C_13
REMARK    7  A    between atoms: C_16  and  C_17
REMARK                            x       y       z     vdW  Elec       q    Type
REMARK                         _______ _______ _______ _____ _____    ______ ____
ROOT
ATOM      1  N   UNL     1      43.636   3.877  10.347  0.00  0.00    +0.000 N 
ATOM      2  H   UNL     1      42.870   4.447  10.004  0.00  0.00    +0.000 HD
ENDROOT
BRANCH   1   3
ATOM      3  C   UNL     1      44.506   3.363   9.392  0.00  0.00    +0.000 A 
ATOM      4  C   UNL     1      44.807   1.999   9.285  0.00  0.00    +0.000 A 
ATOM      5  C   UNL     1      45.778   1.531   8.393  0.00  0.00    +0.000 A 
ATOM      6  C   UNL     1      46.482   2.423   7.582  0.00  0.00    +0.000 A 
ATOM      7  C   UNL     1      46.204   3.789   7.676  0.00  0.00    +0.000 A 
ATOM      8  C   UNL     1      45.229   4.247   8.576  0.00  0.00    +0.000 A 
BRANCH   6   9
ATOM      9  C   UNL     1      47.532   1.869   6.689  0.00  0.00    +0.000 C 
ATOM     10  N   UNL     1      48.616   2.664   6.422  0.00  0.00    +0.000 N 
ATOM     11  O   UNL     1      47.433   0.763   6.183  0.00  0.00    +0.000 OA
ATOM     12  H   UNL     1      48.633   3.653   6.625  0.00  0.00    +0.000 HD
ATOM     13  H   UNL     1      49.263   2.312   5.728  0.00  0.00    +0.000 HD
ENDBRANCH   6   9
ENDBRANCH   1   3
BRANCH   1  14
ATOM     14  C   UNL     1      43.478   3.242  11.650  0.00  0.00    +0.000 C 
BRANCH  14  15
ATOM     15  C   UNL     1      43.396   4.276  12.779  0.00  0.00    +0.000 C 
BRANCH  15  20
ATOM     16  C   UNL     1      45.824   7.224  12.892  0.00  0.00    +0.000 A 
ATOM     17  C   UNL     1      47.026   6.576  13.198  0.00  0.00    +0.000 A 
ATOM     18  C   UNL     1      47.055   5.189  13.335  0.00  0.00    +0.000 A 
ATOM     19  C   UNL     1      45.887   4.442  13.172  0.00  0.00    +0.000 A 
ATOM     20  C   UNL     1      44.675   5.076  12.865  0.00  0.00    +0.000 A 
ATOM     21  C   UNL     1      44.656   6.473  12.720  0.00  0.00    +0.000 A 
BRANCH  16  23
ATOM     22  C   UNL     1      44.882   9.308  12.018  0.00  0.00    +0.000 C 
ATOM     23  C   UNL     1      45.793   8.681  12.775  0.00  0.00    +0.000 C 
BRANCH  22  25
ATOM     24  N   UNL     1      44.941  12.071  11.711  0.00  0.00    +0.000 NA
ATOM     25  C   UNL     1      44.914  10.818  11.850  0.00  0.00    +0.000 C 
ENDBRANCH  22  25
ENDBRANCH  16  23
ENDBRANCH  15  20
ENDBRANCH  14  15
ENDBRANCH   1  14
TORSDOF 7
ENDMDL
MODEL 2
REMARK VINA RESULT:    -7.473      2.436      4.031
REMARK INTER + INTRA:         -11.337
REMARK INTER:                 -10.523
REMARK INTRA:                  -0.814
REMARK UNBOUND:                -0.805
REMARK  Name = 
REMARK  7 active torsions:
REMARK  status: ('A' for Active; 'I' for Inactive)
REMARK    1  A    between atoms: C_2  and  C_3
REMARK    2  A    between atoms: C_4  and  C_5
REMARK    3  A    between atoms: C_9  and  C_10
REMARK    4  A    between atoms: C_10  and  C_11
REMARK    5  A    between atoms: C_11  and  N_12
REMARK    6  A    between atoms: N_12  and  C_13
REMARK    7  A    between atoms: C_16  and  C_17
REMARK                            x       y       z     vdW  Elec       q    Type
REMARK                         _______ _______ _______ _____ _____    ______ ____
ROOT
ATOM      1  N   UNL     1      43.595   4.664   9.882  0.00  0.00    +0.000 N 
ATOM      2  H   UNL     1      42.906   5.121   9.295  0.00  0.00    +0.000 HD
ENDROOT
BRANCH   1   3
ATOM      3  C   UNL     1      44.617   3.984   9.227  0.00  0.00    +0.000 A 
ATOM      4  C   UNL     1      45.548   4.619   8.395  0.00  0.00    +0.000 A 
ATOM      5  C   UNL     1      46.487   3.889   7.657  0.00  0.00    +0.000 A 
ATOM      6  C   UNL     1      46.516   2.496   7.731  0.00  0.00    +0.000 A 
ATOM      7  C   UNL     1      45.593   1.840   8.549  0.00  0.00    +0.000 A 
ATOM      8  C   UNL     1      44.654   2.582   9.283  0.00  0.00    +0.000 A 
BRANCH   6   9
ATOM      9  C   UNL     1      47.507   1.776   6.888  0.00  0.00    +0.000 C 
ATOM     10  N   UNL     1      48.531   2.513   6.352  0.00  0.00    +0.000 N 
ATOM     11  O   UNL     1      47.409   0.583   6.652  0.00  0.00    +0.000 OA
ATOM     12  H   UNL     1      48.526   3.522   6.329  0.00  0.00    +0.000 HD
ATOM     13  H   UNL     1      49.129   2.026   5.697  0.00  0.00    +0.000 HD
ENDBRANCH   6   9
ENDBRANCH   1   3
BRANCH   1  14
ATOM     14  C   UNL     1      43.205   4.321  11.244  0.00  0.00    +0.000 C 
BRANCH  14  15
ATOM     15  C   UNL     1      43.392   5.502  12.202  0.00  0.00    +0.000 C 
BRANCH  15  20
ATOM     16  C   UNL     1      46.746   4.911  13.936  0.00  0.00    +0.000 A 
ATOM     17  C   UNL     1      47.579   5.779  13.222  0.00  0.00    +0.000 A 
ATOM     18  C   UNL     1      47.051   6.575  12.206  0.00  0.00    +0.000 A 
ATOM     19  C   UNL     1      45.691   6.506  11.895  0.00  0.00    +0.000 A 
ATOM     20  C   UNL     1      44.844   5.642  12.602  0.00  0.00    +0.000 A 
ATOM     21  C   UNL     1      45.382   4.850  13.629  0.00  0.00    +0.000 A 
BRANCH  16  23
ATOM     22  C   UNL     1      47.581   4.532  16.206  0.00  0.00    +0.000 C 
ATOM     23  C   UNL     1      47.308   4.059  14.983  0.00  0.00    +0.000 C 
BRANCH  22  25
ATOM     24  N   UNL     1      48.780   2.916  18.126  0.00  0.00    +0.000 NA
ATOM     25  C   UNL     1      48.236   3.650  17.255  0.00  0.00    +0.000 C 
ENDBRANCH  22  25
ENDBRANCH  16  23
ENDBRANCH  15  20
ENDBRANCH  14  15
ENDBRANCH   1  14
TORSDOF 7
ENDMDL
MODEL 3
REMARK VINA RESULT:    -7.293      2.103      2.486
REMARK INTER + INTRA:         -11.083
REMARK INTER:                 -10.319
REMARK INTRA:                  -0.765
REMARK UNBOUND:                -0.805
REMARK  Name = 
REMARK  7 active torsions:
REMARK  status: ('A' for Active; 'I' for Inactive)
REMARK    1  A    between atoms: C_2  and  C_3
REMARK    2  A    between atoms: C_4  and  C_5
REMARK    3  A    between atoms: C_9  and  C_10
REMARK    4  A    between atoms: C_10  and  C_11
REMARK    5  A    between atoms: C_11  and  N_12
REMARK    6  A    between atoms: N_12  and  C_13
REMARK    7  A    between atoms: C_16  and  C_17
REMARK                            x       y       z     vdW  Elec       q    Type
REMARK                         _______ _______ _______ _____ _____    ______ ____
ROOT
ATOM      1  N   UNL     1      43.891   5.046   9.848  0.00  0.00    +0.000 N 
ATOM      2  H   UNL     1      43.640   5.862   9.300  0.00  0.00    +0.000 HD
ENDROOT
BRANCH   1   3
ATOM      3  C   UNL     1      44.555   4.026   9.177  0.00  0.00    +0.000 A 
ATOM      4  C   UNL     1      44.384   2.669   9.483  0.00  0.00    +0.000 A 
ATOM      5  C   UNL     1      45.158   1.678   8.870  0.00  0.00    +0.000 A 
ATOM      6  C   UNL     1      46.134   2.020   7.933  0.00  0.00    +0.000 A 
ATOM      7  C   UNL     1      46.328   3.367   7.618  0.00  0.00    +0.000 A 
ATOM      8  C   UNL     1      45.547   4.354   8.240  0.00  0.00    +0.000 A 
BRANCH   6   9
ATOM      9  C   UNL     1      46.954   0.925   7.353  0.00  0.00    +0.000 C 
ATOM     10  N   UNL     1      47.762   1.238   6.291  0.00  0.00    +0.000 N 
ATOM     11  O   UNL     1      46.898  -0.218   7.776  0.00  0.00    +0.000 OA
ATOM     12  H   UNL     1      47.672   2.097   5.769  0.00  0.00    +0.000 HD
ATOM     13  H   UNL     1      48.226   0.458   5.844  0.00  0.00    +0.000 HD
ENDBRANCH   6   9
ENDBRANCH   1   3
BRANCH   1  14
ATOM     14  C   UNL     1      43.128   4.786  11.063  0.00  0.00    +0.000 C 
BRANCH  14  15
ATOM     15  C   UNL     1      43.469   5.787  12.173  0.00  0.00    +0.000 C 
BRANCH  15  20
ATOM     16  C   UNL     1      47.177   6.669  12.439  0.00  0.00    +0.000 A 
ATOM     17  C   UNL     1      47.630   5.682  13.320  0.00  0.00    +0.000 A 
ATOM     18  C   UNL     1      46.746   4.716  13.800  0.00  0.00    +0.000 A 
ATOM     19  C   UNL     1      45.407   4.733  13.407  0.00  0.00    +0.000 A 
ATOM     20  C   UNL     1      44.937   5.716  12.525  0.00  0.00    +0.000 A 
ATOM     21  C   UNL     1      45.836   6.679  12.039  0.00  0.00    +0.000 A 
BRANCH  16  23
ATOM     22  C   UNL     1      49.428   7.507  11.963  0.00  0.00    +0.000 C 
ATOM     23  C   UNL     1      48.102   7.695  11.958  0.00  0.00    +0.000 C 
BRANCH  22  25
ATOM     24  N   UNL     1      51.160   9.535  11.174  0.00  0.00    +0.000 NA
ATOM     25  C   UNL     1      50.374   8.615  11.531  0.00  0.00    +0.000 C 
ENDBRANCH  22  25
ENDBRANCH  16  23
ENDBRANCH  15  20
ENDBRANCH  14  15
ENDBRANCH   1  14
TORSDOF 7
ENDMDL
MODEL 4
REMARK VINA RESULT:    -6.831      2.559      3.265
REMARK INTER + INTRA:         -10.432
REMARK INTER:                  -9.750
REMARK INTRA:                  -0.682
REMARK UNBOUND:                -0.805
REMARK  Name = 
REMARK  7 active torsions:
REMARK  status: ('A' for Active; 'I' for Inactive)
REMARK    1  A    between atoms: C_2  and  C_3
REMARK    2  A    between atoms: C_4  and  C_5
REMARK    3  A    between atoms: C_9  and  C_10
REMARK    4  A    between atoms: C_10  and  C_11
REMARK    5  A    between atoms: C_11  and  N_12
REMARK    6  A    between atoms: N_12  and  C_13
REMARK    7  A    between atoms: C_16  and  C_17
REMARK                            x       y       z     vdW  Elec       q    Type
REMARK                         _______ _______ _______ _____ _____    ______ ____
ROOT
ATOM      1  N   UNL     1      43.699   3.947  10.229  0.00  0.00    +0.000 N 
ATOM      2  H   UNL     1      43.038   3.303  10.649  0.00  0.00    +0.000 HD
ENDROOT
BRANCH   1   3
ATOM      3  C   UNL     1      44.574   3.414   9.288  0.00  0.00    +0.000 A 
ATOM      4  C   UNL     1      44.947   2.064   9.266  0.00  0.00    +0.000 A 
ATOM      5  C   UNL     1      45.922   1.588   8.383  0.00  0.00    +0.000 A 
ATOM      6  C   UNL     1      46.556   2.457   7.495  0.00  0.00    +0.000 A 
ATOM      7  C   UNL     1      46.207   3.809   7.502  0.00  0.00    +0.000 A 
ATOM      8  C   UNL     1      45.229   4.277   8.395  0.00  0.00    +0.000 A 
BRANCH   6   9
ATOM      9  C   UNL     1      47.615   1.899   6.613  0.00  0.00    +0.000 C 
ATOM     10  N   UNL     1      48.733   2.664   6.410  0.00  0.00    +0.000 N 
ATOM     11  O   UNL     1      47.494   0.816   6.064  0.00  0.00    +0.000 OA
ATOM     12  H   UNL     1      48.779   3.643   6.650  0.00  0.00    +0.000 HD
ATOM     13  H   UNL     1      49.389   2.314   5.723  0.00  0.00    +0.000 HD
ENDBRANCH   6   9
ENDBRANCH   1   3
BRANCH   1  14
ATOM     14  C   UNL     1      44.024   5.162  10.966  0.00  0.00    +0.000 C 
BRANCH  14  15
ATOM     15  C   UNL     1      45.316   5.007  11.776  0.00  0.00    +0.000 C 
BRANCH  15  20
ATOM     16  C   UNL     1      47.952   7.717  12.327  0.00  0.00    +0.000 A 
ATOM     17  C   UNL     1      47.163   8.873  12.306  0.00  0.00    +0.000 A 
ATOM     18  C   UNL     1      45.782   8.772  12.147  0.00  0.00    +0.000 A 
ATOM     19  C   UNL     1      45.181   7.520  12.004  0.00  0.00    +0.000 A 
ATOM     20  C   UNL     1      45.957   6.353  12.023  0.00  0.00    +0.000 A 
ATOM     21  C   UNL     1      47.346   6.463  12.192  0.00  0.00    +0.000 A 
BRANCH  16  23
ATOM     22  C   UNL     1      50.183   8.207  11.447  0.00  0.00    +0.000 C 
ATOM     23  C   UNL     1      49.403   7.829  12.468  0.00  0.00    +0.000 C 
BRANCH  22  25
ATOM     24  N   UNL     1      52.950   8.273  11.712  0.00  0.00    +0.000 NA
ATOM     25  C   UNL     1      51.695   8.243  11.592  0.00  0.00    +0.000 C 
ENDBRANCH  22  25
ENDBRANCH  16  23
ENDBRANCH  15  20
ENDBRANCH  14  15
ENDBRANCH   1  14
TORSDOF 7
ENDMDL
MODEL 5
REMARK VINA RESULT:    -6.683      2.506      3.376
REMARK INTER + INTRA:         -10.223
REMARK INTER:                  -9.750
REMARK INTRA:                  -0.473
REMARK UNBOUND:                -0.805
REMARK  Name = 
REMARK  7 active torsions:
REMARK  status: ('A' for Active; 'I' for Inactive)
REMARK    1  A    between atoms: C_2  and  C_3
REMARK    2  A    between atoms: C_4  and  C_5
REMARK    3  A    between atoms: C_9  and  C_10
REMARK    4  A    between atoms: C_10  and  C_11
REMARK    5  A    between atoms: C_11  and  N_12
REMARK    6  A    between atoms: N_12  and  C_13
REMARK    7  A    between atoms: C_16  and  C_17
REMARK                            x       y       z     vdW  Elec       q    Type
REMARK                         _______ _______ _______ _____ _____    ______ ____
ROOT
ATOM      1  N   UNL     1      43.721   3.874  10.324  0.00  0.00    +0.000 N 
ATOM      2  H   UNL     1      42.787   4.124  10.018  0.00  0.00    +0.000 HD
ENDROOT
BRANCH   1   3
ATOM      3  C   UNL     1      44.570   3.342   9.359  0.00  0.00    +0.000 A 
ATOM      4  C   UNL     1      44.895   1.981   9.292  0.00  0.00    +0.000 A 
ATOM      5  C   UNL     1      45.846   1.500   8.385  0.00  0.00    +0.000 A 
ATOM      6  C   UNL     1      46.503   2.375   7.519  0.00  0.00    +0.000 A 
ATOM      7  C   UNL     1      46.201   3.737   7.572  0.00  0.00    +0.000 A 
ATOM      8  C   UNL     1      45.246   4.209   8.488  0.00  0.00    +0.000 A 
BRANCH   6   9
ATOM      9  C   UNL     1      47.535   1.808   6.611  0.00  0.00    +0.000 C 
ATOM     10  N   UNL     1      48.704   2.511   6.470  0.00  0.00    +0.000 N 
ATOM     11  O   UNL     1      47.351   0.775   5.988  0.00  0.00    +0.000 OA
ATOM     12  H   UNL     1      48.809   3.466   6.777  0.00  0.00    +0.000 HD
ATOM     13  H   UNL     1      49.344   2.165   5.768  0.00  0.00    +0.000 HD
ENDBRANCH   6   9
ENDBRANCH   1   3
BRANCH   1  14
ATOM     14  C   UNL     1      43.921   3.605  11.743  0.00  0.00    +0.000 C 
BRANCH  14  15
ATOM     15  C   UNL     1      45.408   3.601  12.116  0.00  0.00    +0.000 C 
BRANCH  15  20
ATOM     16  C   UNL     1      47.411   6.433  13.718  0.00  0.00    +0.000 A 
ATOM     17  C   UNL     1      46.814   7.555  13.133  0.00  0.00    +0.000 A 
ATOM     18  C   UNL     1      45.747   7.396  12.249  0.00  0.00    +0.000 A 
ATOM     19  C   UNL     1      45.274   6.119  11.942  0.00  0.00    +0.000 A 
ATOM     20  C   UNL     1      45.861   4.985  12.520  0.00  0.00    +0.000 A 
ATOM     21  C   UNL     1      46.929   5.154  13.415  0.00  0.00    +0.000 A 
BRANCH  16  23
ATOM     22  C   UNL     1      48.539   6.099  15.865  0.00  0.00    +0.000 C 
ATOM     23  C   UNL     1      48.547   6.602  14.623  0.00  0.00    +0.000 C 
BRANCH  22  25
ATOM     24  N   UNL     1      50.658   6.562  17.606  0.00  0.00    +0.000 NA
ATOM     25  C   UNL     1      49.697   6.352  16.816  0.00  0.00    +0.000 C 
ENDBRANCH  22  25
ENDBRANCH  16  23
ENDBRANCH  15  20
ENDBRANCH  14  15
ENDBRANCH   1  14
TORSDOF 7
ENDMDL
MODEL 6
REMARK VINA RESULT:    -6.602      3.769      7.774
REMARK INTER + INTRA:         -10.108
REMARK INTER:                  -9.372
REMARK INTRA:                  -0.736
REMARK UNBOUND:                -0.805
REMARK  Name = 
REMARK  7 active torsions:
REMARK  status: ('A' for Active; 'I' for Inactive)
REMARK    1  A    between atoms: C_2  and  C_3
REMARK    2  A    between atoms: C_4  and  C_5
REMARK    3  A    between atoms: C_9  and  C_10
REMARK    4  A    between atoms: C_10  and  C_11
REMARK    5  A    between atoms: C_11  and  N_12
REMARK    6  A    between atoms: N_12  and  C_13
REMARK    7  A    between atoms: C_16  and  C_17
REMARK                            x       y       z     vdW  Elec       q    Type
REMARK                         _______ _______ _______ _____ _____    ______ ____
ROOT
ATOM      1  N   UNL     1      47.165   7.072  12.952  0.00  0.00    +0.000 N 
ATOM      2  H   UNL     1      47.513   8.014  13.097  0.00  0.00    +0.000 HD
ENDROOT
BRANCH   1   3
ATOM      3  C   UNL     1      47.432   6.148  13.957  0.00  0.00    +0.000 A 
ATOM      4  C   UNL     1      46.807   4.897  14.032  0.00  0.00    +0.000 A 
ATOM      5  C   UNL     1      47.009   4.043  15.122  0.00  0.00    +0.000 A 
ATOM      6  C   UNL     1      47.843   4.424  16.174  0.00  0.00    +0.000 A 
ATOM      7  C   UNL     1      48.471   5.670  16.125  0.00  0.00    +0.000 A 
ATOM      8  C   UNL     1      48.260   6.520  15.027  0.00  0.00    +0.000 A 
BRANCH   6   9
ATOM      9  C   UNL     1      47.980   3.492  17.324  0.00  0.00    +0.000 C 
ATOM     10  N   UNL     1      46.871   2.774  17.688  0.00  0.00    +0.000 N 
ATOM     11  O   UNL     1      49.024   3.382  17.946  0.00  0.00    +0.000 OA
ATOM     12  H   UNL     1      45.943   2.995  17.360  0.00  0.00    +0.000 HD
ATOM     13  H   UNL     1      46.957   2.230  18.537  0.00  0.00    +0.000 HD
ENDBRANCH   6   9
ENDBRANCH   1   3
BRANCH   1  14
ATOM     14  C   UNL     1      46.903   6.649  11.581  0.00  0.00    +0.000 C 
BRANCH  14  15
ATOM     15  C   UNL     1      45.402   6.634  11.269  0.00  0.00    +0.000 C 
BRANCH  15  20
ATOM     16  C   UNL     1      45.304   3.646   8.889  0.00  0.00    +0.000 A 
ATOM     17  C   UNL     1      44.386   2.812   9.536  0.00  0.00    +0.000 A 
ATOM     18  C   UNL     1      43.779   3.228  10.720  0.00  0.00    +0.000 A 
ATOM     19  C   UNL     1      44.087   4.476  11.266  0.00  0.00    +0.000 A 
ATOM     20  C   UNL     1      45.003   5.324  10.629  0.00  0.00    +0.000 A 
ATOM     21  C   UNL     1      45.603   4.901   9.433  0.00  0.00    +0.000 A 
BRANCH  16  23
ATOM     22  C   UNL     1      46.639   2.043   7.608  0.00  0.00    +0.000 C 
ATOM     23  C   UNL     1      45.958   3.195   7.661  0.00  0.00    +0.000 C 
BRANCH  22  25
ATOM     24  N   UNL     1      47.988   1.286   5.297  0.00  0.00    +0.000 NA
ATOM     25  C   UNL     1      47.375   1.629   6.345  0.00  0.00    +0.000 C 
ENDBRANCH  22  25
ENDBRANCH  16  23
ENDBRANCH  15  20
ENDBRANCH  14  15
ENDBRANCH   1  14
TORSDOF 7
ENDMDL
MODEL 7
REMARK VINA RESULT:    -6.036      5.031      7.567
REMARK INTER + INTRA:          -9.312
REMARK INTER:                  -8.550
REMARK INTRA:                  -0.761
REMARK UNBOUND:                -0.805
REMARK  Name = 
REMARK  7 active torsions:
REMARK  status: ('A' for Active; 'I' for Inactive)
REMARK    1  A    between atoms: C_2  and  C_3
REMARK    2  A    between atoms: C_4  and  C_5
REMARK    3  A    between atoms: C_9  and  C_10
REMARK    4  A    between atoms: C_10  and  C_11
REMARK    5  A    between atoms: C_11  and  N_12
REMARK    6  A    between atoms: N_12  and  C_13
REMARK    7  A    between atoms: C_16  and  C_17
REMARK                            x       y       z     vdW  Elec       q    Type
REMARK                         _______ _______ _______ _____ _____    ______ ____
ROOT
ATOM      1  N   UNL     1      47.346   7.138  13.939  0.00  0.00    +0.000 N 
ATOM      2  H   UNL     1      46.799   7.825  14.447  0.00  0.00    +0.000 HD
ENDROOT
BRANCH   1   3
ATOM      3  C   UNL     1      46.651   6.323  13.052  0.00  0.00    +0.000 A 
ATOM      4  C   UNL     1      46.453   6.651  11.704  0.00  0.00    +0.000 A 
ATOM      5  C   UNL     1      45.647   5.868  10.871  0.00  0.00    +0.000 A 
ATOM      6  C   UNL     1      45.009   4.731  11.369  0.00  0.00    +0.000 A 
ATOM      7  C   UNL     1      45.185   4.388  12.711  0.00  0.00    +0.000 A 
ATOM      8  C   UNL     1      45.995   5.182  13.539  0.00  0.00    +0.000 A 
BRANCH   6   9
ATOM      9  C   UNL     1      44.130   3.968  10.446  0.00  0.00    +0.000 C 
ATOM     10  N   UNL     1      43.986   4.449   9.171  0.00  0.00    +0.000 N 
ATOM     11  O   UNL     1      43.531   2.966  10.804  0.00  0.00    +0.000 OA
ATOM     12  H   UNL     1      44.270   5.379   8.901  0.00  0.00    +0.000 HD
ATOM     13  H   UNL     1      43.301   3.977   8.595  0.00  0.00    +0.000 HD
ENDBRANCH   6   9
ENDBRANCH   1   3
BRANCH   1  14
ATOM     14  C   UNL     1      48.618   6.722  14.516  0.00  0.00    +0.000 C 
BRANCH  14  15
ATOM     15  C   UNL     1      48.574   6.725  16.048  0.00  0.00    +0.000 C 
BRANCH  15  20
ATOM     16  C   UNL     1      49.713   3.380  17.500  0.00  0.00    +0.000 A 
ATOM     17  C   UNL     1      48.485   2.756  17.745  0.00  0.00    +0.000 A 
ATOM     18  C   UNL     1      47.295   3.403  17.413  0.00  0.00    +0.000 A 
ATOM     19  C   UNL     1      47.325   4.675  16.838  0.00  0.00    +0.000 A 
ATOM     20  C   UNL     1      48.547   5.313  16.585  0.00  0.00    +0.000 A 
ATOM     21  C   UNL     1      49.741   4.651  16.916  0.00  0.00    +0.000 A 
BRANCH  16  23
ATOM     22  C   UNL     1      51.278   1.500  17.396  0.00  0.00    +0.000 C 
ATOM     23  C   UNL     1      50.957   2.709  17.876  0.00  0.00    +0.000 C 
BRANCH  22  25
ATOM     24  N   UNL     1      53.585   0.196  18.240  0.00  0.00    +0.000 NA
ATOM     25  C   UNL     1      52.539   0.788  17.858  0.00  0.00    +0.000 C 
ENDBRANCH  22  25
ENDBRANCH  16  23
ENDBRANCH  15  20
ENDBRANCH  14  15
ENDBRANCH   1  14
TORSDOF 7
ENDMDL
MODEL 8
REMARK VINA RESULT:    -5.962      4.422      8.004
REMARK INTER + INTRA:          -9.207
REMARK INTER:                  -8.629
REMARK INTRA:                  -0.577
REMARK UNBOUND:                -0.805
REMARK  Name = 
REMARK  7 active torsions:
REMARK  status: ('A' for Active; 'I' for Inactive)
REMARK    1  A    between atoms: C_2  and  C_3
REMARK    2  A    between atoms: C_4  and  C_5
REMARK    3  A    between atoms: C_9  and  C_10
REMARK    4  A    between atoms: C_10  and  C_11
REMARK    5  A    between atoms: C_11  and  N_12
REMARK    6  A    between atoms: N_12  and  C_13
REMARK    7  A    between atoms: C_16  and  C_17
REMARK                            x       y       z     vdW  Elec       q    Type
REMARK                         _______ _______ _______ _____ _____    ______ ____
ROOT
ATOM      1  N   UNL     1      46.982   5.190  13.418  0.00  0.00    +0.000 N 
ATOM      2  H   UNL     1      46.641   4.361  12.943  0.00  0.00    +0.000 HD
ENDROOT
BRANCH   1   3
ATOM      3  C   UNL     1      47.367   5.033  14.745  0.00  0.00    +0.000 A 
ATOM      4  C   UNL     1      48.229   5.921  15.402  0.00  0.00    +0.000 A 
ATOM      5  C   UNL     1      48.692   5.667  16.698  0.00  0.00    +0.000 A 
ATOM      6  C   UNL     1      48.306   4.508  17.372  0.00  0.00    +0.000 A 
ATOM      7  C   UNL     1      47.453   3.604  16.735  0.00  0.00    +0.000 A 
ATOM      8  C   UNL     1      46.996   3.868  15.433  0.00  0.00    +0.000 A 
BRANCH   6   9
ATOM      9  C   UNL     1      48.868   4.274  18.728  0.00  0.00    +0.000 C 
ATOM     10  N   UNL     1      48.374   3.212  19.440  0.00  0.00    +0.000 N 
ATOM     11  O   UNL     1      49.716   5.006  19.212  0.00  0.00    +0.000 OA
ATOM     12  H   UNL     1      47.528   2.726  19.182  0.00  0.00    +0.000 HD
ATOM     13  H   UNL     1      48.691   3.136  20.398  0.00  0.00    +0.000 HD
ENDBRANCH   6   9
ENDBRANCH   1   3
BRANCH   1  14
ATOM     14  C   UNL     1      46.573   6.488  12.894  0.00  0.00    +0.000 C 
BRANCH  14  15
ATOM     15  C   UNL     1      45.068   6.534  12.604  0.00  0.00    +0.000 C 
BRANCH  15  20
ATOM     16  C   UNL     1      44.717   4.064   9.710  0.00  0.00    +0.000 A 
ATOM     17  C   UNL     1      44.004   3.027  10.322  0.00  0.00    +0.000 A 
ATOM     18  C   UNL     1      43.611   3.141  11.655  0.00  0.00    +0.000 A 
ATOM     19  C   UNL     1      43.931   4.288  12.385  0.00  0.00    +0.000 A 
ATOM     20  C   UNL     1      44.644   5.335  11.786  0.00  0.00    +0.000 A 
ATOM     21  C   UNL     1      45.028   5.216  10.441  0.00  0.00    +0.000 A 
BRANCH  16  23
ATOM     22  C   UNL     1      46.053   3.011   7.949  0.00  0.00    +0.000 C 
ATOM     23  C   UNL     1      45.150   3.928   8.320  0.00  0.00    +0.000 C 
BRANCH  22  25
ATOM     24  N   UNL     1      46.956   2.877   5.323  0.00  0.00    +0.000 NA
ATOM     25  C   UNL     1      46.546   2.937   6.514  0.00  0.00    +0.000 C 
ENDBRANCH  22  25
ENDBRANCH  16  23
ENDBRANCH  15  20
ENDBRANCH  14  15
ENDBRANCH   1  14
TORSDOF 7
ENDMDL
MODEL 9
REMARK VINA RESULT:    -5.952      4.423     10.457
REMARK INTER + INTRA:          -9.192
REMARK INTER:                  -8.698
REMARK INTRA:                  -0.494
REMARK UNBOUND:                -0.805
REMARK  Name = 
REMARK  7 active torsions:
REMARK  status: ('A' for Active; 'I' for Inactive)
REMARK    1  A    between atoms: C_2  and  C_3
REMARK    2  A    between atoms: C_4  and  C_5
REMARK    3  A    between atoms: C_9  and  C_10
REMARK    4  A    between atoms: C_10  and  C_11
REMARK    5  A    between atoms: C_11  and  N_12
REMARK    6  A    between atoms: N_12  and  C_13
REMARK    7  A    between atoms: C_16  and  C_17
REMARK                            x       y       z     vdW  Elec       q    Type
REMARK                         _______ _______ _______ _____ _____    ______ ____
ROOT
ATOM      1  N   UNL     1      46.756   2.108   7.098  0.00  0.00    +0.000 N 
ATOM      2  H   UNL     1      47.104   1.197   7.376  0.00  0.00    +0.000 HD
ENDROOT
BRANCH   1   3
ATOM      3  C   UNL     1      45.871   2.730   7.972  0.00  0.00    +0.000 A 
ATOM      4  C   UNL     1      45.782   4.121   8.110  0.00  0.00    +0.000 A 
ATOM      5  C   UNL     1      44.968   4.709   9.085  0.00  0.00    +0.000 A 
ATOM      6  C   UNL     1      44.222   3.915   9.956  0.00  0.00    +0.000 A 
ATOM      7  C   UNL     1      44.301   2.525   9.843  0.00  0.00    +0.000 A 
ATOM      8  C   UNL     1      45.122   1.945   8.862  0.00  0.00    +0.000 A 
BRANCH   6   9
ATOM      9  C   UNL     1      43.413   4.598  10.999  0.00  0.00    +0.000 C 
ATOM     10  N   UNL     1      43.334   5.965  10.939  0.00  0.00    +0.000 N 
ATOM     11  O   UNL     1      42.860   3.982  11.896  0.00  0.00    +0.000 OA
ATOM     12  H   UNL     1      43.948   6.525  10.367  0.00  0.00    +0.000 HD
ATOM     13  H   UNL     1      42.870   6.415  11.718  0.00  0.00    +0.000 HD
ENDBRANCH   6   9
ENDBRANCH   1   3
BRANCH   1  14
ATOM     14  C   UNL     1      46.779   2.438   5.678  0.00  0.00    +0.000 C 
BRANCH  14  15
ATOM     15  C   UNL     1      47.708   1.504   4.893  0.00  0.00    +0.000 C 
BRANCH  15  20
ATOM     16  C   UNL     1      46.221  -1.518   3.089  0.00  0.00    +0.000 A 
ATOM     17  C   UNL     1      45.321  -0.899   2.215  0.00  0.00    +0.000 A 
ATOM     18  C   UNL     1      45.220   0.491   2.188  0.00  0.00    +0.000 A 
ATOM     19  C   UNL     1      46.012   1.270   3.034  0.00  0.00    +0.000 A 
ATOM     20  C   UNL     1      46.918   0.664   3.915  0.00  0.00    +0.000 A 
ATOM     21  C   UNL     1      47.021  -0.736   3.930  0.00  0.00    +0.000 A 
BRANCH  16  23
ATOM     22  C   UNL     1      46.619  -3.631   4.260  0.00  0.00    +0.000 C 
ATOM     23  C   UNL     1      46.306  -2.978   3.133  0.00  0.00    +0.000 C 
BRANCH  22  25
ATOM     24  N   UNL     1      46.908  -6.397   4.271  0.00  0.00    +0.000 NA
ATOM     25  C   UNL     1      46.776  -5.143   4.266  0.00  0.00    +0.000 C 
ENDBRANCH  22  25
ENDBRANCH  16  23
ENDBRANCH  15  20
ENDBRANCH  14  15
ENDBRANCH   1  14
TORSDOF 7
ENDMDL
