MODEL 1
REMARK VINA RESULT:    -8.446      0.000      0.000
REMARK INTER + INTRA:         -12.465
REMARK INTER:                 -11.409
REMARK INTRA:                  -1.056
REMARK UNBOUND:                -1.056
REMARK  Name = 
REMARK  6 active torsions:
REMARK  status: ('A' for Active; 'I' for Inactive)
REMARK    1  A    between atoms: C_2  and  C_4
REMARK    2  A    between atoms: C_7  and  O_8
REMARK    3  A    between atoms: O_8  and  C_9
REMARK    4  A    between atoms: C_9  and  C_10
REMARK    5  A    between atoms: C_10  and  C_13
REMARK    6  A    between atoms: C_17  and  N_18
REMARK                            x       y       z     vdW  Elec       q    Type
REMARK                         _______ _______ _______ _____ _____    ______ ____
ROOT
ATOM      1  C   UNL     1      43.729   4.637  12.376  0.00  0.00    +0.000 C 
ATOM      2  F   UNL     1      42.760   5.416  12.942  0.00  0.00    +0.000 F 
ATOM      3  F   UNL     1      43.576   3.401  12.943  0.00  0.00    +0.000 F 
ENDROOT
BRANCH   1   4
ATOM      4  C   UNL     1      45.119   5.199  12.618  0.00  0.00    +0.000 A 
ATOM      5  C   UNL     1      45.696   6.107  11.724  0.00  0.00    +0.000 A 
ATOM      6  C   UNL     1      46.981   6.594  11.956  0.00  0.00    +0.000 A 
ATOM      7  C   UNL     1      47.690   6.187  13.090  0.00  0.00    +0.000 A 
ATOM      8  C   UNL     1      47.134   5.298  14.021  0.00  0.00    +0.000 A 
ATOM      9  C   UNL     1      45.851   4.800  13.753  0.00  0.00    +0.000 A 
BRANCH   8  10
ATOM     10  N   UNL     1      47.842   5.004  15.190  0.00  0.00    +0.000 N 
ATOM     11  C   UNL     1      48.453   6.132  15.921  0.00  0.00    +0.000 C 
ATOM     12  C   UNL     1      49.417   5.587  16.984  0.00  0.00    +0.000 C 
ATOM     13  O   UNL     1      48.738   4.709  17.898  0.00  0.00    +0.000 OA
ATOM     14  C   UNL     1      48.171   3.595  17.185  0.00  0.00    +0.000 C 
ATOM     15  C   UNL     1      47.172   4.051  16.105  0.00  0.00    +0.000 C 
ENDBRANCH   8  10
ENDBRANCH   1   4
BRANCH   1  16
ATOM     16  C   UNL     1      43.456   4.524  10.870  0.00  0.00    +0.000 C 
BRANCH  16  17
ATOM     17  O   UNL     1      43.549   3.157  10.426  0.00  0.00    +0.000 OA
BRANCH  17  21
ATOM     18  C   UNL     1      46.481   2.734   7.566  0.00  0.00    +0.000 A 
ATOM     19  C   UNL     1      45.940   3.997   7.818  0.00  0.00    +0.000 A 
ATOM     20  C   UNL     1      44.941   4.130   8.784  0.00  0.00    +0.000 A 
ATOM     21  C   UNL     1      44.521   2.993   9.461  0.00  0.00    +0.000 A 
ATOM     22  N   UNL     1      45.020   1.761   9.230  0.00  0.00    +0.000 NA
ATOM     23  C   UNL     1      45.980   1.655   8.282  0.00  0.00    +0.000 A 
BRANCH  18  25
ATOM     24  N   UNL     1      47.461   3.126   5.377  0.00  0.00    +0.000 N 
ATOM     25  C   UNL     1      47.547   2.479   6.577  0.00  0.00    +0.000 C 
ATOM     26  O   UNL     1      48.497   1.755   6.839  0.00  0.00    +0.000 OA
ATOM     27  H   UNL     1      48.266   3.037   4.770  0.00  0.00    +0.000 HD
ATOM     28  H   UNL     1      46.852   3.919   5.228  0.00  0.00    +0.000 HD
ENDBRANCH  18  25
ENDBRANCH  17  21
ENDBRANCH  16  17
ENDBRANCH   1  16
TORSDOF 6
ENDMDL
MODEL 2
REMARK VINA RESULT:    -8.391      0.994      1.561
REMARK INTER + INTRA:         -12.390
REMARK INTER:                 -11.539
REMARK INTRA:                  -0.851
REMARK UNBOUND:                -1.056
REMARK  Name = 
REMARK  6 active torsions:
REMARK  status: ('A' for Active; 'I' for Inactive)
REMARK    1  A    between atoms: C_2  and  C_4
REMARK    2  A    between atoms: C_7  and  O_8
REMARK    3  A    between atoms: O_8  and  C_9
REMARK    4  A    between atoms: C_9  and  C_10
REMARK    5  A    between atoms: C_10  and  C_13
REMARK    6  A    between atoms: C_17  and  N_18
REMARK                            x       y       z     vdW  Elec       q    Type
REMARK                         _______ _______ _______ _____ _____    ______ ____
ROOT
ATOM      1  C   UNL     1      43.548   5.032  12.060  0.00  0.00    +0.000 C 
ATOM      2  F   UNL     1      42.887   6.101  11.524  0.00  0.00    +0.000 F 
ATOM      3  F   UNL     1      42.799   4.649  13.139  0.00  0.00    +0.000 F 
ENDROOT
BRANCH   1   4
ATOM      4  C   UNL     1      44.969   5.389  12.460  0.00  0.00    +0.000 A 
ATOM      5  C   UNL     1      45.769   6.192  11.640  0.00  0.00    +0.000 A 
ATOM      6  C   UNL     1      47.077   6.490  12.018  0.00  0.00    +0.000 A 
ATOM      7  C   UNL     1      47.588   5.998  13.222  0.00  0.00    +0.000 A 
ATOM      8  C   UNL     1      46.807   5.211  14.081  0.00  0.00    +0.000 A 
ATOM      9  C   UNL     1      45.504   4.902  13.668  0.00  0.00    +0.000 A 
BRANCH   8  10
ATOM     10  N   UNL     1      47.330   4.831  15.321  0.00  0.00    +0.000 N 
ATOM     11  C   UNL     1      47.610   3.397  15.534  0.00  0.00    +0.000 C 
ATOM     12  C   UNL     1      47.887   3.147  17.023  0.00  0.00    +0.000 C 
ATOM     13  O   UNL     1      48.992   3.945  17.484  0.00  0.00    +0.000 OA
ATOM     14  C   UNL     1      48.702   5.343  17.302  0.00  0.00    +0.000 C 
ATOM     15  C   UNL     1      48.427   5.688  15.827  0.00  0.00    +0.000 C 
ENDBRANCH   8  10
ENDBRANCH   1   4
BRANCH   1  16
ATOM     16  C   UNL     1      43.555   3.890  11.035  0.00  0.00    +0.000 C 
BRANCH  16  17
ATOM     17  O   UNL     1      43.657   4.399   9.691  0.00  0.00    +0.000 OA
BRANCH  17  21
ATOM     18  C   UNL     1      46.534   2.402   7.525  0.00  0.00    +0.000 A 
ATOM     19  C   UNL     1      45.738   1.696   8.429  0.00  0.00    +0.000 A 
ATOM     20  C   UNL     1      44.769   2.382   9.165  0.00  0.00    +0.000 A 
ATOM     21  C   UNL     1      44.637   3.749   8.968  0.00  0.00    +0.000 A 
ATOM     22  N   UNL     1      45.399   4.457   8.107  0.00  0.00    +0.000 NA
ATOM     23  C   UNL     1      46.337   3.772   7.413  0.00  0.00    +0.000 A 
BRANCH  18  25
ATOM     24  N   UNL     1      48.684   2.525   6.399  0.00  0.00    +0.000 N 
ATOM     25  C   UNL     1      47.578   1.778   6.688  0.00  0.00    +0.000 C 
ATOM     26  O   UNL     1      47.480   0.620   6.308  0.00  0.00    +0.000 OA
ATOM     27  H   UNL     1      49.440   2.034   5.937  0.00  0.00    +0.000 HD
ATOM     28  H   UNL     1      48.919   3.368   6.905  0.00  0.00    +0.000 HD
ENDBRANCH  18  25
ENDBRANCH  17  21
ENDBRANCH  16  17
ENDBRANCH   1  16
TORSDOF 6
ENDMDL
MODEL 3
REMARK VINA RESULT:    -8.131      2.573      3.752
REMARK INTER + INTRA:         -12.038
REMARK INTER:                 -10.985
REMARK INTRA:                  -1.054
REMARK UNBOUND:                -1.056
REMARK  Name = 
REMARK  6 active torsions:
REMARK  status: ('A' for Active; 'I' for Inactive)
REMARK    1  A    between atoms: C_2  and  C_4
REMARK    2  A    between atoms: C_7  and  O_8
REMARK    3  A    between atoms: O_8  and  C_9
REMARK    4  A    between atoms: C_9  and  C_10
REMARK    5  A    between atoms: C_10  and  C_13
REMARK    6  A    between atoms: C_17  and  N_18
REMARK                            x       y       z     vdW  Elec       q    Type
REMARK                         _______ _______ _______ _____ _____    ______ ____
ROOT
ATOM      1  C   UNL     1      43.522   4.698  12.532  0.00  0.00    +0.000 C 
ATOM      2  F   UNL     1      42.469   5.388  13.064  0.00  0.00    +0.000 F 
ATOM      3  F   UNL     1      43.499   3.475  13.146  0.00  0.00    +0.000 F 
ENDROOT
BRANCH   1   4
ATOM      4  C   UNL     1      44.841   5.417  12.758  0.00  0.00    +0.000 A 
ATOM      5  C   UNL     1      45.992   4.713  13.129  0.00  0.00    +0.000 A 
ATOM      6  C   UNL     1      47.186   5.396  13.350  0.00  0.00    +0.000 A 
ATOM      7  C   UNL     1      47.239   6.783  13.190  0.00  0.00    +0.000 A 
ATOM      8  C   UNL     1      46.113   7.518  12.796  0.00  0.00    +0.000 A 
ATOM      9  C   UNL     1      44.916   6.814  12.604  0.00  0.00    +0.000 A 
BRANCH   8  10
ATOM     10  N   UNL     1      46.244   8.888  12.549  0.00  0.00    +0.000 N 
ATOM     11  C   UNL     1      47.576   9.386  12.149  0.00  0.00    +0.000 C 
ATOM     12  C   UNL     1      47.588  10.920  12.216  0.00  0.00    +0.000 C 
ATOM     13  O   UNL     1      46.570  11.482  11.370  0.00  0.00    +0.000 OA
ATOM     14  C   UNL     1      45.272  11.019  11.782  0.00  0.00    +0.000 C 
ATOM     15  C   UNL     1      45.164   9.483  11.729  0.00  0.00    +0.000 C 
ENDBRANCH   8  10
ENDBRANCH   1   4
BRANCH   1  16
ATOM     16  C   UNL     1      43.276   4.498  11.031  0.00  0.00    +0.000 C 
BRANCH  16  17
ATOM     17  O   UNL     1      43.478   3.124  10.649  0.00  0.00    +0.000 OA
BRANCH  17  21
ATOM     18  C   UNL     1      46.331   2.819   7.696  0.00  0.00    +0.000 A 
ATOM     19  C   UNL     1      45.799   4.070   8.014  0.00  0.00    +0.000 A 
ATOM     20  C   UNL     1      44.826   4.164   9.012  0.00  0.00    +0.000 A 
ATOM     21  C   UNL     1      44.424   3.000   9.652  0.00  0.00    +0.000 A 
ATOM     22  N   UNL     1      44.915   1.778   9.358  0.00  0.00    +0.000 NA
ATOM     23  C   UNL     1      45.848   1.711   8.381  0.00  0.00    +0.000 A 
BRANCH  18  25
ATOM     24  N   UNL     1      47.304   3.367   5.537  0.00  0.00    +0.000 N 
ATOM     25  C   UNL     1      47.370   2.604   6.668  0.00  0.00    +0.000 C 
ATOM     26  O   UNL     1      48.283   1.810   6.844  0.00  0.00    +0.000 OA
ATOM     27  H   UNL     1      48.096   3.295   4.911  0.00  0.00    +0.000 HD
ATOM     28  H   UNL     1      46.737   4.201   5.475  0.00  0.00    +0.000 HD
ENDBRANCH  18  25
ENDBRANCH  17  21
ENDBRANCH  16  17
ENDBRANCH   1  16
TORSDOF 6
ENDMDL
MODEL 4
REMARK VINA RESULT:    -7.540      1.523      2.088
REMARK INTER + INTRA:         -11.240
REMARK INTER:                 -10.294
REMARK INTRA:                  -0.946
REMARK UNBOUND:                -1.056
REMARK  Name = 
REMARK  6 active torsions:
REMARK  status: ('A' for Active; 'I' for Inactive)
REMARK    1  A    between atoms: C_2  and  C_4
REMARK    2  A    between atoms: C_7  and  O_8
REMARK    3  A    between atoms: O_8  and  C_9
REMARK    4  A    between atoms: C_9  and  C_10
REMARK    5  A    between atoms: C_10  and  C_13
REMARK    6  A    between atoms: C_17  and  N_18
REMARK                            x       y       z     vdW  Elec       q    Type
REMARK                         _______ _______ _______ _____ _____    ______ ____
ROOT
ATOM      1  C   UNL     1      43.372   5.032  11.989  0.00  0.00    +0.000 C 
ATOM      2  F   UNL     1      42.085   5.440  12.196  0.00  0.00    +0.000 F 
ATOM      3  F   UNL     1      43.609   4.087  12.949  0.00  0.00    +0.000 F 
ENDROOT
BRANCH   1   4
ATOM      4  C   UNL     1      44.353   6.188  12.083  0.00  0.00    +0.000 A 
ATOM      5  C   UNL     1      44.146   7.369  11.363  0.00  0.00    +0.000 A 
ATOM      6  C   UNL     1      45.070   8.409  11.449  0.00  0.00    +0.000 A 
ATOM      7  C   UNL     1      46.197   8.279  12.265  0.00  0.00    +0.000 A 
ATOM      8  C   UNL     1      46.425   7.120  13.020  0.00  0.00    +0.000 A 
ATOM      9  C   UNL     1      45.496   6.076  12.897  0.00  0.00    +0.000 A 
BRANCH   8  10
ATOM     10  N   UNL     1      47.511   7.080  13.899  0.00  0.00    +0.000 N 
ATOM     11  C   UNL     1      47.692   5.859  14.708  0.00  0.00    +0.000 C 
ATOM     12  C   UNL     1      48.736   6.122  15.802  0.00  0.00    +0.000 C 
ATOM     13  O   UNL     1      49.991   6.532  15.231  0.00  0.00    +0.000 OA
ATOM     14  C   UNL     1      49.817   7.739  14.468  0.00  0.00    +0.000 C 
ATOM     15  C   UNL     1      48.792   7.561  13.332  0.00  0.00    +0.000 C 
ENDBRANCH   8  10
ENDBRANCH   1   4
BRANCH   1  16
ATOM     16  C   UNL     1      43.465   4.366  10.610  0.00  0.00    +0.000 C 
BRANCH  16  17
ATOM     17  O   UNL     1      44.288   3.184  10.658  0.00  0.00    +0.000 OA
BRANCH  17  21
ATOM     18  C   UNL     1      46.573   2.803   7.253  0.00  0.00    +0.000 A 
ATOM     19  C   UNL     1      46.111   4.064   7.636  0.00  0.00    +0.000 A 
ATOM     20  C   UNL     1      45.330   4.184   8.788  0.00  0.00    +0.000 A 
ATOM     21  C   UNL     1      45.042   3.035   9.511  0.00  0.00    +0.000 A 
ATOM     22  N   UNL     1      45.467   1.804   9.158  0.00  0.00    +0.000 NA
ATOM     23  C   UNL     1      46.213   1.712   8.033  0.00  0.00    +0.000 A 
BRANCH  18  25
ATOM     24  N   UNL     1      48.757   2.429   6.257  0.00  0.00    +0.000 N 
ATOM     25  C   UNL     1      47.412   2.562   6.063  0.00  0.00    +0.000 C 
ATOM     26  O   UNL     1      46.918   2.438   4.951  0.00  0.00    +0.000 OA
ATOM     27  H   UNL     1      49.293   2.136   5.449  0.00  0.00    +0.000 HD
ATOM     28  H   UNL     1      49.162   2.261   7.168  0.00  0.00    +0.000 HD
ENDBRANCH  18  25
ENDBRANCH  17  21
ENDBRANCH  16  17
ENDBRANCH   1  16
TORSDOF 6
ENDMDL
MODEL 5
REMARK VINA RESULT:    -6.884      3.376      7.688
REMARK INTER + INTRA:         -10.355
REMARK INTER:                  -9.480
REMARK INTRA:                  -0.875
REMARK UNBOUND:                -1.056
REMARK  Name = 
REMARK  6 active torsions:
REMARK  status: ('A' for Active; 'I' for Inactive)
REMARK    1  A    between atoms: C_2  and  C_4
REMARK    2  A    between atoms: C_7  and  O_8
REMARK    3  A    between atoms: O_8  and  C_9
REMARK    4  A    between atoms: C_9  and  C_10
REMARK    5  A    between atoms: C_10  and  C_13
REMARK    6  A    between atoms: C_17  and  N_18
REMARK                            x       y       z     vdW  Elec       q    Type
REMARK                         _______ _______ _______ _____ _____    ______ ____
ROOT
ATOM      1  C   UNL     1      48.943   8.021  12.128  0.00  0.00    +0.000 C 
ATOM      2  F   UNL     1      49.249   9.345  12.275  0.00  0.00    +0.000 F 
ATOM      3  F   UNL     1      49.590   7.626  10.989  0.00  0.00    +0.000 F 
ENDROOT
BRANCH   1   4
ATOM      4  C   UNL     1      47.444   7.795  12.031  0.00  0.00    +0.000 A 
ATOM      5  C   UNL     1      46.549   8.870  12.060  0.00  0.00    +0.000 A 
ATOM      6  C   UNL     1      45.177   8.637  11.990  0.00  0.00    +0.000 A 
ATOM      7  C   UNL     1      44.693   7.331  11.878  0.00  0.00    +0.000 A 
ATOM      8  C   UNL     1      45.561   6.231  11.821  0.00  0.00    +0.000 A 
ATOM      9  C   UNL     1      46.936   6.487  11.920  0.00  0.00    +0.000 A 
BRANCH   8  10
ATOM     10  N   UNL     1      45.032   4.955  11.603  0.00  0.00    +0.000 N 
ATOM     11  C   UNL     1      43.835   4.571  12.378  0.00  0.00    +0.000 C 
ATOM     12  C   UNL     1      43.591   3.063  12.225  0.00  0.00    +0.000 C 
ATOM     13  O   UNL     1      43.427   2.704  10.842  0.00  0.00    +0.000 OA
ATOM     14  C   UNL     1      44.608   3.052  10.097  0.00  0.00    +0.000 C 
ATOM     15  C   UNL     1      44.919   4.558  10.181  0.00  0.00    +0.000 C 
ENDBRANCH   8  10
ENDBRANCH   1   4
BRANCH   1  16
ATOM     16  C   UNL     1      49.523   7.244  13.317  0.00  0.00    +0.000 C 
BRANCH  16  17
ATOM     17  O   UNL     1      48.933   7.678  14.558  0.00  0.00    +0.000 OA
BRANCH  17  21
ATOM     18  C   UNL     1      47.938   4.548  17.043  0.00  0.00    +0.000 A 
ATOM     19  C   UNL     1      48.628   5.647  17.559  0.00  0.00    +0.000 A 
ATOM     20  C   UNL     1      48.968   6.700  16.708  0.00  0.00    +0.000 A 
ATOM     21  C   UNL     1      48.605   6.613  15.372  0.00  0.00    +0.000 A 
ATOM     22  N   UNL     1      47.946   5.559  14.845  0.00  0.00    +0.000 NA
ATOM     23  C   UNL     1      47.637   4.546  15.687  0.00  0.00    +0.000 A 
BRANCH  18  25
ATOM     24  N   UNL     1      48.227   3.121  18.988  0.00  0.00    +0.000 N 
ATOM     25  C   UNL     1      47.519   3.386  17.851  0.00  0.00    +0.000 C 
ATOM     26  O   UNL     1      46.545   2.715  17.542  0.00  0.00    +0.000 OA
ATOM     27  H   UNL     1      47.843   2.404  19.591  0.00  0.00    +0.000 HD
ATOM     28  H   UNL     1      48.853   3.794  19.409  0.00  0.00    +0.000 HD
ENDBRANCH  18  25
ENDBRANCH  17  21
ENDBRANCH  16  17
ENDBRANCH   1  16
TORSDOF 6
ENDMDL
MODEL 6
REMARK VINA RESULT:    -6.865      2.524      3.423
REMARK INTER + INTRA:         -10.330
REMARK INTER:                  -9.813
REMARK INTRA:                  -0.517
REMARK UNBOUND:                -1.056
REMARK  Name = 
REMARK  6 active torsions:
REMARK  status: ('A' for Active; 'I' for Inactive)
REMARK    1  A    between atoms: C_2  and  C_4
REMARK    2  A    between atoms: C_7  and  O_8
REMARK    3  A    between atoms: O_8  and  C_9
REMARK    4  A    between atoms: C_9  and  C_10
REMARK    5  A    between atoms: C_10  and  C_13
REMARK    6  A    between atoms: C_17  and  N_18
REMARK                            x       y       z     vdW  Elec       q    Type
REMARK                         _______ _______ _______ _____ _____    ______ ____
ROOT
ATOM      1  C   UNL     1      43.622   4.003  11.256  0.00  0.00    +0.000 C 
ATOM      2  F   UNL     1      42.497   4.658  11.672  0.00  0.00    +0.000 F 
ATOM      3  F   UNL     1      43.353   2.673  11.436  0.00  0.00    +0.000 F 
ENDROOT
BRANCH   1   4
ATOM      4  C   UNL     1      44.851   4.438  12.036  0.00  0.00    +0.000 A 
ATOM      5  C   UNL     1      45.588   3.521  12.792  0.00  0.00    +0.000 A 
ATOM      6  C   UNL     1      46.700   3.947  13.515  0.00  0.00    +0.000 A 
ATOM      7  C   UNL     1      47.089   5.289  13.476  0.00  0.00    +0.000 A 
ATOM      8  C   UNL     1      46.389   6.232  12.710  0.00  0.00    +0.000 A 
ATOM      9  C   UNL     1      45.258   5.786  12.012  0.00  0.00    +0.000 A 
BRANCH   8  10
ATOM     10  N   UNL     1      46.879   7.538  12.623  0.00  0.00    +0.000 N 
ATOM     11  C   UNL     1      45.893   8.632  12.516  0.00  0.00    +0.000 C 
ATOM     12  C   UNL     1      46.614   9.933  12.135  0.00  0.00    +0.000 C 
ATOM     13  O   UNL     1      47.626  10.265  13.102  0.00  0.00    +0.000 OA
ATOM     14  C   UNL     1      48.601   9.211  13.181  0.00  0.00    +0.000 C 
ATOM     15  C   UNL     1      47.964   7.865  13.576  0.00  0.00    +0.000 C 
ENDBRANCH   8  10
ENDBRANCH   1   4
BRANCH   1  16
ATOM     16  C   UNL     1      43.822   4.266   9.758  0.00  0.00    +0.000 C 
BRANCH  16  17
ATOM     17  O   UNL     1      45.188   4.624   9.471  0.00  0.00    +0.000 OA
BRANCH  17  21
ATOM     18  C   UNL     1      46.807   2.107   6.642  0.00  0.00    +0.000 A 
ATOM     19  C   UNL     1      46.339   1.580   7.848  0.00  0.00    +0.000 A 
ATOM     20  C   UNL     1      45.798   2.441   8.805  0.00  0.00    +0.000 A 
ATOM     21  C   UNL     1      45.748   3.798   8.517  0.00  0.00    +0.000 A 
ATOM     22  N   UNL     1      46.201   4.335   7.365  0.00  0.00    +0.000 NA
ATOM     23  C   UNL     1      46.731   3.482   6.458  0.00  0.00    +0.000 A 
BRANCH  18  25
ATOM     24  N   UNL     1      47.131  -0.051   5.574  0.00  0.00    +0.000 N 
ATOM     25  C   UNL     1      47.387   1.290   5.558  0.00  0.00    +0.000 C 
ATOM     26  O   UNL     1      48.031   1.801   4.652  0.00  0.00    +0.000 OA
ATOM     27  H   UNL     1      47.427  -0.567   4.755  0.00  0.00    +0.000 HD
ATOM     28  H   UNL     1      46.399  -0.459   6.140  0.00  0.00    +0.000 HD
ENDBRANCH  18  25
ENDBRANCH  17  21
ENDBRANCH  16  17
ENDBRANCH   1  16
TORSDOF 6
ENDMDL
MODEL 7
REMARK VINA RESULT:    -6.850      2.234      2.948
REMARK INTER + INTRA:         -10.308
REMARK INTER:                  -9.605
REMARK INTRA:                  -0.703
REMARK UNBOUND:                -1.056
REMARK  Name = 
REMARK  6 active torsions:
REMARK  status: ('A' for Active; 'I' for Inactive)
REMARK    1  A    between atoms: C_2  and  C_4
REMARK    2  A    between atoms: C_7  and  O_8
REMARK    3  A    between atoms: O_8  and  C_9
REMARK    4  A    between atoms: C_9  and  C_10
REMARK    5  A    between atoms: C_10  and  C_13
REMARK    6  A    between atoms: C_17  and  N_18
REMARK                            x       y       z     vdW  Elec       q    Type
REMARK                         _______ _______ _______ _____ _____    ______ ____
ROOT
ATOM      1  C   UNL     1      45.498   5.890  11.792  0.00  0.00    +0.000 C 
ATOM      2  F   UNL     1      46.223   6.396  10.749  0.00  0.00    +0.000 F 
ATOM      3  F   UNL     1      44.502   6.801  12.014  0.00  0.00    +0.000 F 
ENDROOT
BRANCH   1   4
ATOM      4  C   UNL     1      46.356   5.680  13.027  0.00  0.00    +0.000 A 
ATOM      5  C   UNL     1      46.160   4.575  13.863  0.00  0.00    +0.000 A 
ATOM      6  C   UNL     1      46.946   4.414  15.002  0.00  0.00    +0.000 A 
ATOM      7  C   UNL     1      47.940   5.348  15.305  0.00  0.00    +0.000 A 
ATOM      8  C   UNL     1      48.182   6.454  14.478  0.00  0.00    +0.000 A 
ATOM      9  C   UNL     1      47.362   6.610  13.351  0.00  0.00    +0.000 A 
BRANCH   8  10
ATOM     10  N   UNL     1      49.256   7.301  14.768  0.00  0.00    +0.000 N 
ATOM     11  C   UNL     1      49.305   8.604  14.076  0.00  0.00    +0.000 C 
ATOM     12  C   UNL     1      50.682   9.246  14.296  0.00  0.00    +0.000 C 
ATOM     13  O   UNL     1      50.956   9.415  15.697  0.00  0.00    +0.000 OA
ATOM     14  C   UNL     1      50.938   8.139  16.362  0.00  0.00    +0.000 C 
ATOM     15  C   UNL     1      49.580   7.428  16.208  0.00  0.00    +0.000 C 
ENDBRANCH   8  10
ENDBRANCH   1   4
BRANCH   1  16
ATOM     16  C   UNL     1      44.862   4.564  11.354  0.00  0.00    +0.000 C 
BRANCH  16  17
ATOM     17  O   UNL     1      44.337   4.656  10.015  0.00  0.00    +0.000 OA
BRANCH  17  21
ATOM     18  C   UNL     1      46.585   2.513   7.312  0.00  0.00    +0.000 A 
ATOM     19  C   UNL     1      45.877   1.838   8.309  0.00  0.00    +0.000 A 
ATOM     20  C   UNL     1      45.123   2.573   9.226  0.00  0.00    +0.000 A 
ATOM     21  C   UNL     1      45.108   3.956   9.110  0.00  0.00    +0.000 A 
ATOM     22  N   UNL     1      45.790   4.633   8.162  0.00  0.00    +0.000 NA
ATOM     23  C   UNL     1      46.522   3.900   7.292  0.00  0.00    +0.000 A 
BRANCH  18  25
ATOM     24  N   UNL     1      48.164   2.625   5.468  0.00  0.00    +0.000 N 
ATOM     25  C   UNL     1      47.404   1.838   6.285  0.00  0.00    +0.000 C 
ATOM     26  O   UNL     1      47.437   0.618   6.200  0.00  0.00    +0.000 OA
ATOM     27  H   UNL     1      48.812   2.135   4.863  0.00  0.00    +0.000 HD
ATOM     28  H   UNL     1      48.365   3.593   5.678  0.00  0.00    +0.000 HD
ENDBRANCH  18  25
ENDBRANCH  17  21
ENDBRANCH  16  17
ENDBRANCH   1  16
TORSDOF 6
ENDMDL
MODEL 8
REMARK VINA RESULT:    -6.753      4.038      6.454
REMARK INTER + INTRA:         -10.177
REMARK INTER:                  -9.541
REMARK INTRA:                  -0.636
REMARK UNBOUND:                -1.056
REMARK  Name = 
REMARK  6 active torsions:
REMARK  status: ('A' for Active; 'I' for Inactive)
REMARK    1  A    between atoms: C_2  and  C_4
REMARK    2  A    between atoms: C_7  and  O_8
REMARK    3  A    between atoms: O_8  and  C_9
REMARK    4  A    between atoms: C_9  and  C_10
REMARK    5  A    between atoms: C_10  and  C_13
REMARK    6  A    between atoms: C_17  and  N_18
REMARK                            x       y       z     vdW  Elec       q    Type
REMARK                         _______ _______ _______ _____ _____    ______ ____
ROOT
ATOM      1  C   UNL     1      48.102   2.894  16.699  0.00  0.00    +0.000 C 
ATOM      2  F   UNL     1      47.185   2.451  17.610  0.00  0.00    +0.000 F 
ATOM      3  F   UNL     1      48.413   1.799  15.940  0.00  0.00    +0.000 F 
ENDROOT
BRANCH   1   4
ATOM      4  C   UNL     1      49.331   3.479  17.373  0.00  0.00    +0.000 A 
ATOM      5  C   UNL     1      49.290   4.740  17.977  0.00  0.00    +0.000 A 
ATOM      6  C   UNL     1      50.436   5.265  18.573  0.00  0.00    +0.000 A 
ATOM      7  C   UNL     1      51.623   4.528  18.578  0.00  0.00    +0.000 A 
ATOM      8  C   UNL     1      51.694   3.251  18.004  0.00  0.00    +0.000 A 
ATOM      9  C   UNL     1      50.537   2.754  17.388  0.00  0.00    +0.000 A 
BRANCH   8  10
ATOM     10  N   UNL     1      52.876   2.513  18.128  0.00  0.00    +0.000 N 
ATOM     11  C   UNL     1      53.697   2.735  19.334  0.00  0.00    +0.000 C 
ATOM     12  C   UNL     1      55.069   2.073  19.146  0.00  0.00    +0.000 C 
ATOM     13  O   UNL     1      54.932   0.664  18.887  0.00  0.00    +0.000 OA
ATOM     14  C   UNL     1      54.157   0.453  17.694  0.00  0.00    +0.000 C 
ATOM     15  C   UNL     1      52.751   1.074  17.802  0.00  0.00    +0.000 C 
ENDBRANCH   8  10
ENDBRANCH   1   4
BRANCH   1  16
ATOM     16  C   UNL     1      47.438   3.944  15.799  0.00  0.00    +0.000 C 
BRANCH  16  17
ATOM     17  O   UNL     1      47.612   3.619  14.406  0.00  0.00    +0.000 OA
BRANCH  17  21
ATOM     18  C   UNL     1      44.449   4.914  12.109  0.00  0.00    +0.000 A 
ATOM     19  C   UNL     1      45.184   5.839  12.855  0.00  0.00    +0.000 A 
ATOM     20  C   UNL     1      46.251   5.390  13.637  0.00  0.00    +0.000 A 
ATOM     21  C   UNL     1      46.539   4.032  13.642  0.00  0.00    +0.000 A 
ATOM     22  N   UNL     1      45.840   3.118  12.939  0.00  0.00    +0.000 NA
ATOM     23  C   UNL     1      44.805   3.575  12.197  0.00  0.00    +0.000 A 
BRANCH  18  25
ATOM     24  N   UNL     1      42.298   6.002  11.801  0.00  0.00    +0.000 N 
ATOM     25  C   UNL     1      43.311   5.278  11.241  0.00  0.00    +0.000 C 
ATOM     26  O   UNL     1      43.299   4.984  10.054  0.00  0.00    +0.000 OA
ATOM     27  H   UNL     1      41.597   6.349  11.158  0.00  0.00    +0.000 HD
ATOM     28  H   UNL     1      42.395   6.482  12.685  0.00  0.00    +0.000 HD
ENDBRANCH  18  25
ENDBRANCH  17  21
ENDBRANCH  16  17
ENDBRANCH   1  16
TORSDOF 6
ENDMDL
MODEL 9
REMARK VINA RESULT:    -6.676      3.833      6.117
REMARK INTER + INTRA:         -10.073
REMARK INTER:                  -9.442
REMARK INTRA:                  -0.631
REMARK UNBOUND:                -1.056
REMARK  Name = 
REMARK  6 active torsions:
REMARK  status: ('A' for Active; 'I' for Inactive)
REMARK    1  A    between atoms: C_2  and  C_4
REMARK    2  A    between atoms: C_7  and  O_8
REMARK    3  A    between atoms: O_8  and  C_9
REMARK    4  A    between atoms: C_9  and  C_10
REMARK    5  A    between atoms: C_10  and  C_13
REMARK    6  A    between atoms: C_17  and  N_18
REMARK                            x       y       z     vdW  Elec       q    Type
REMARK                         _______ _______ _______ _____ _____    ______ ____
ROOT
ATOM      1  C   UNL     1      48.033   3.012  16.842  0.00  0.00    +0.000 C 
ATOM      2  F   UNL     1      47.025   2.396  17.530  0.00  0.00    +0.000 F 
ATOM      3  F   UNL     1      48.688   2.006  16.185  0.00  0.00    +0.000 F 
ENDROOT
BRANCH   1   4
ATOM      4  C   UNL     1      48.962   3.779  17.767  0.00  0.00    +0.000 A 
ATOM      5  C   UNL     1      50.342   3.548  17.756  0.00  0.00    +0.000 A 
ATOM      6  C   UNL     1      51.173   4.249  18.627  0.00  0.00    +0.000 A 
ATOM      7  C   UNL     1      50.632   5.193  19.504  0.00  0.00    +0.000 A 
ATOM      8  C   UNL     1      49.257   5.468  19.526  0.00  0.00    +0.000 A 
ATOM      9  C   UNL     1      48.437   4.732  18.659  0.00  0.00    +0.000 A 
BRANCH   8  10
ATOM     10  N   UNL     1      48.780   6.494  20.347  0.00  0.00    +0.000 N 
ATOM     11  C   UNL     1      48.678   7.847  19.763  0.00  0.00    +0.000 C 
ATOM     12  C   UNL     1      48.427   8.867  20.881  0.00  0.00    +0.000 C 
ATOM     13  O   UNL     1      47.230   8.549  21.613  0.00  0.00    +0.000 OA
ATOM     14  C   UNL     1      47.346   7.243  22.206  0.00  0.00    +0.000 C 
ATOM     15  C   UNL     1      47.583   6.149  21.149  0.00  0.00    +0.000 C 
ENDBRANCH   8  10
ENDBRANCH   1   4
BRANCH   1  16
ATOM     16  C   UNL     1      47.416   3.958  15.804  0.00  0.00    +0.000 C 
BRANCH  16  17
ATOM     17  O   UNL     1      47.419   3.363  14.491  0.00  0.00    +0.000 OA
BRANCH  17  21
ATOM     18  C   UNL     1      44.606   5.083  12.025  0.00  0.00    +0.000 A 
ATOM     19  C   UNL     1      45.408   5.896  12.829  0.00  0.00    +0.000 A 
ATOM     20  C   UNL     1      46.355   5.304  13.668  0.00  0.00    +0.000 A 
ATOM     21  C   UNL     1      46.461   3.920  13.670  0.00  0.00    +0.000 A 
ATOM     22  N   UNL     1      45.692   3.112  12.911  0.00  0.00    +0.000 NA
ATOM     23  C   UNL     1      44.775   3.708  12.114  0.00  0.00    +0.000 A 
BRANCH  18  25
ATOM     24  N   UNL     1      43.080   6.846  11.341  0.00  0.00    +0.000 N 
ATOM     25  C   UNL     1      43.583   5.601  11.094  0.00  0.00    +0.000 C 
ATOM     26  O   UNL     1      43.235   4.960  10.113  0.00  0.00    +0.000 OA
ATOM     27  H   UNL     1      42.480   7.230  10.620  0.00  0.00    +0.000 HD
ATOM     28  H   UNL     1      43.526   7.499  11.971  0.00  0.00    +0.000 HD
ENDBRANCH  18  25
ENDBRANCH  17  21
ENDBRANCH  16  17
ENDBRANCH   1  16
TORSDOF 6
ENDMDL
