MODEL 1
REMARK VINA RESULT:    -8.515      0.000      0.000
REMARK INTER + INTRA:         -12.720
REMARK INTER:                 -11.502
REMARK INTRA:                  -1.218
REMARK UNBOUND:                -1.218
REMARK  Name = 
REMARK  7 active torsions:
REMARK  status: ('A' for Active; 'I' for Inactive)
REMARK    1  A    between atoms: C_1  and  C_2
REMARK    2  A    between atoms: C_2  and  N_3
REMARK    3  A    between atoms: C_2  and  C_16
REMARK    4  A    between atoms: C_4  and  C_6
REMARK    5  A    between atoms: C_19  and  O_20
REMARK    6  A    between atoms: O_20  and  C_21
REMARK    7  A    between atoms: C_21  and  C_22
REMARK                            x       y       z     vdW  Elec       q    Type
REMARK                         _______ _______ _______ _____ _____    ______ ____
ROOT
ATOM      1  C   UNL     1      46.405   8.615  13.200  0.00  0.00    +0.000 C 
ATOM      2  C   UNL     1      47.150   7.279  13.135  0.00  0.00    +0.000 C 
ENDROOT
BRANCH   2   3
ATOM      3  C   UNL     1      46.365   6.244  12.349  0.00  0.00    +0.000 A 
ATOM      4  C   UNL     1      46.140   6.418  10.977  0.00  0.00    +0.000 A 
ATOM      5  C   UNL     1      45.444   5.454  10.240  0.00  0.00    +0.000 A 
ATOM      6  C   UNL     1      44.977   4.294  10.857  0.00  0.00    +0.000 A 
ATOM      7  C   UNL     1      45.164   4.129  12.229  0.00  0.00    +0.000 A 
ATOM      8  C   UNL     1      45.862   5.087  12.966  0.00  0.00    +0.000 A 
BRANCH   6   9
ATOM      9  O   UNL     1      44.363   3.389  10.032  0.00  0.00    +0.000 OA
BRANCH   9  10
ATOM     10  C   UNL     1      44.467   3.675   8.636  0.00  0.00    +0.000 C 
BRANCH  10  11
ATOM     11  C   UNL     1      45.598   2.889   8.020  0.00  0.00    +0.000 A 
ATOM     12  C   UNL     1      45.797   1.547   8.373  0.00  0.00    +0.000 A 
ATOM     13  C   UNL     1      46.779   0.785   7.738  0.00  0.00    +0.000 A 
ATOM     14  C   UNL     1      47.569   1.358   6.743  0.00  0.00    +0.000 A 
ATOM     15  C   UNL     1      47.383   2.691   6.386  0.00  0.00    +0.000 A 
ATOM     16  C   UNL     1      46.400   3.455   7.019  0.00  0.00    +0.000 A 
ENDBRANCH  10  11
ENDBRANCH   9  10
ENDBRANCH   6   9
ENDBRANCH   2   3
BRANCH   2  17
ATOM     17  N   UNL     1      47.440   6.784  14.469  0.00  0.00    +0.000 N 
ATOM     18  C   UNL     1      48.717   6.696  14.960  0.00  0.00    +0.000 C 
ATOM     19  O   UNL     1      49.697   7.001  14.287  0.00  0.00    +0.000 OA
ATOM     20  H   UNL     1      46.662   6.440  15.021  0.00  0.00    +0.000 HD
BRANCH  18  21
ATOM     21  C   UNL     1      48.856   6.274  16.361  0.00  0.00    +0.000 A 
ATOM     22  C   UNL     1      49.414   7.148  17.285  0.00  0.00    +0.000 A 
ATOM     23  S   UNL     1      49.481   6.520  18.869  0.00  0.00    +0.000 S 
ATOM     24  C   UNL     1      48.814   5.037  18.366  0.00  0.00    +0.000 A 
ATOM     25  N   UNL     1      48.632   4.021  19.251  0.00  0.00    +0.000 NA
ATOM     26  C   UNL     1      48.169   2.936  18.726  0.00  0.00    +0.000 A 
ATOM     27  N   UNL     1      47.857   2.780  17.399  0.00  0.00    +0.000 N 
ATOM     28  C   UNL     1      47.944   3.807  16.488  0.00  0.00    +0.000 A 
ATOM     29  O   UNL     1      47.521   3.677  15.349  0.00  0.00    +0.000 OA
ATOM     30  C   UNL     1      48.516   5.033  17.015  0.00  0.00    +0.000 A 
ATOM     31  H   UNL     1      47.468   1.915  17.058  0.00  0.00    +0.000 HD
ENDBRANCH  18  21
ENDBRANCH   2  17
TORSDOF 6
ENDMDL
MODEL 2
REMARK VINA RESULT:    -8.113      1.053      1.136
REMARK INTER + INTRA:         -12.177
REMARK INTER:                 -11.027
REMARK INTRA:                  -1.150
REMARK UNBOUND:                -1.218
REMARK  Name = 
REMARK  7 active torsions:
REMARK  status: ('A' for Active; 'I' for Inactive)
REMARK    1  A    between atoms: C_1  and  C_2
REMARK    2  A    between atoms: C_2  and  N_3
REMARK    3  A    between atoms: C_2  and  C_16
REMARK    4  A    between atoms: C_4  and  C_6
REMARK    5  A    between atoms: C_19  and  O_20
REMARK    6  A    between atoms: O_20  and  C_21
REMARK    7  A    between atoms: C_21  and  C_22
REMARK                            x       y       z     vdW  Elec       q    Type
REMARK                         _______ _______ _______ _____ _____    ______ ____
ROOT
ATOM      1  C   UNL     1      47.444   8.752  13.026  0.00  0.00    +0.000 C 
ATOM      2  C   UNL     1      47.771   7.306  13.411  0.00  0.00    +0.000 C 
ENDROOT
BRANCH   2   3
ATOM      3  C   UNL     1      46.818   6.327  12.749  0.00  0.00    +0.000 A 
ATOM      4  C   UNL     1      46.197   6.655  11.536  0.00  0.00    +0.000 A 
ATOM      5  C   UNL     1      45.342   5.746  10.904  0.00  0.00    +0.000 A 
ATOM      6  C   UNL     1      45.107   4.490  11.464  0.00  0.00    +0.000 A 
ATOM      7  C   UNL     1      45.691   4.169  12.688  0.00  0.00    +0.000 A 
ATOM      8  C   UNL     1      46.549   5.072  13.319  0.00  0.00    +0.000 A 
BRANCH   6   9
ATOM      9  O   UNL     1      44.302   3.656  10.733  0.00  0.00    +0.000 OA
BRANCH   9  10
ATOM     10  C   UNL     1      44.236   3.951   9.336  0.00  0.00    +0.000 C 
BRANCH  10  11
ATOM     11  C   UNL     1      45.321   3.215   8.589  0.00  0.00    +0.000 A 
ATOM     12  C   UNL     1      45.483   1.834   8.763  0.00  0.00    +0.000 A 
ATOM     13  C   UNL     1      46.420   1.129   8.006  0.00  0.00    +0.000 A 
ATOM     14  C   UNL     1      47.202   1.800   7.067  0.00  0.00    +0.000 A 
ATOM     15  C   UNL     1      47.053   3.173   6.888  0.00  0.00    +0.000 A 
ATOM     16  C   UNL     1      46.114   3.880   7.644  0.00  0.00    +0.000 A 
ENDBRANCH  10  11
ENDBRANCH   9  10
ENDBRANCH   6   9
ENDBRANCH   2   3
BRANCH   2  17
ATOM     17  N   UNL     1      47.744   7.137  14.854  0.00  0.00    +0.000 N 
ATOM     18  C   UNL     1      48.869   6.851  15.582  0.00  0.00    +0.000 C 
ATOM     19  O   UNL     1      49.965   6.687  15.053  0.00  0.00    +0.000 OA
ATOM     20  H   UNL     1      46.841   7.177  15.314  0.00  0.00    +0.000 HD
BRANCH  18  21
ATOM     21  C   UNL     1      48.715   6.807  17.042  0.00  0.00    +0.000 A 
ATOM     22  C   UNL     1      48.482   7.985  17.740  0.00  0.00    +0.000 A 
ATOM     23  S   UNL     1      48.300   7.763  19.421  0.00  0.00    +0.000 S 
ATOM     24  C   UNL     1      48.576   6.090  19.283  0.00  0.00    +0.000 A 
ATOM     25  N   UNL     1      48.591   5.294  20.386  0.00  0.00    +0.000 NA
ATOM     26  C   UNL     1      48.866   4.055  20.144  0.00  0.00    +0.000 A 
ATOM     27  N   UNL     1      49.112   3.538  18.897  0.00  0.00    +0.000 N 
ATOM     28  C   UNL     1      49.023   4.289  17.748  0.00  0.00    +0.000 A 
ATOM     29  O   UNL     1      49.104   3.767  16.646  0.00  0.00    +0.000 OA
ATOM     30  C   UNL     1      48.775   5.702  17.970  0.00  0.00    +0.000 A 
ATOM     31  H   UNL     1      49.290   2.554  18.773  0.00  0.00    +0.000 HD
ENDBRANCH  18  21
ENDBRANCH   2  17
TORSDOF 6
ENDMDL
MODEL 3
REMARK VINA RESULT:    -7.744      2.240      3.414
REMARK INTER + INTRA:         -11.678
REMARK INTER:                 -10.309
REMARK INTRA:                  -1.369
REMARK UNBOUND:                -1.218
REMARK  Name = 
REMARK  7 active torsions:
REMARK  status: ('A' for Active; 'I' for Inactive)
REMARK    1  A    between atoms: C_1  and  C_2
REMARK    2  A    between atoms: C_2  and  N_3
REMARK    3  A    between atoms: C_2  and  C_16
REMARK    4  A    between atoms: C_4  and  C_6
REMARK    5  A    between atoms: C_19  and  O_20
REMARK    6  A    between atoms: O_20  and  C_21
REMARK    7  A    between atoms: C_21  and  C_22
REMARK                            x       y       z     vdW  Elec       q    Type
REMARK                         _______ _______ _______ _____ _____    ______ ____
ROOT
ATOM      1  C   UNL     1      48.854   8.188  13.127  0.00  0.00    +0.000 C 
ATOM      2  C   UNL     1      48.515   6.858  13.808  0.00  0.00    +0.000 C 
ENDROOT
BRANCH   2   3
ATOM      3  C   UNL     1      47.420   6.117  13.062  0.00  0.00    +0.000 A 
ATOM      4  C   UNL     1      46.969   4.872  13.521  0.00  0.00    +0.000 A 
ATOM      5  C   UNL     1      45.939   4.197  12.858  0.00  0.00    +0.000 A 
ATOM      6  C   UNL     1      45.331   4.762  11.736  0.00  0.00    +0.000 A 
ATOM      7  C   UNL     1      45.797   5.984  11.251  0.00  0.00    +0.000 A 
ATOM      8  C   UNL     1      46.822   6.662  11.915  0.00  0.00    +0.000 A 
BRANCH   6   9
ATOM      9  O   UNL     1      44.293   4.047  11.200  0.00  0.00    +0.000 OA
BRANCH   9  10
ATOM     10  C   UNL     1      44.016   4.323   9.825  0.00  0.00    +0.000 C 
BRANCH  10  11
ATOM     11  C   UNL     1      44.932   3.523   8.932  0.00  0.00    +0.000 A 
ATOM     12  C   UNL     1      45.743   4.173   7.993  0.00  0.00    +0.000 A 
ATOM     13  C   UNL     1      46.662   3.451   7.229  0.00  0.00    +0.000 A 
ATOM     14  C   UNL     1      46.777   2.073   7.399  0.00  0.00    +0.000 A 
ATOM     15  C   UNL     1      45.973   1.415   8.327  0.00  0.00    +0.000 A 
ATOM     16  C   UNL     1      45.054   2.136   9.093  0.00  0.00    +0.000 A 
ENDBRANCH  10  11
ENDBRANCH   9  10
ENDBRANCH   6   9
ENDBRANCH   2   3
BRANCH   2  17
ATOM     17  N   UNL     1      48.128   7.071  15.191  0.00  0.00    +0.000 N 
ATOM     18  C   UNL     1      48.835   6.548  16.242  0.00  0.00    +0.000 C 
ATOM     19  O   UNL     1      49.823   5.839  16.075  0.00  0.00    +0.000 OA
ATOM     20  H   UNL     1      47.266   7.577  15.365  0.00  0.00    +0.000 HD
BRANCH  18  21
ATOM     21  C   UNL     1      48.388   6.926  17.590  0.00  0.00    +0.000 A 
ATOM     22  C   UNL     1      48.216   5.940  18.553  0.00  0.00    +0.000 A 
ATOM     23  S   UNL     1      47.720   6.543  20.070  0.00  0.00    +0.000 S 
ATOM     24  C   UNL     1      47.668   8.137  19.478  0.00  0.00    +0.000 A 
ATOM     25  N   UNL     1      47.277   9.164  20.280  0.00  0.00    +0.000 NA
ATOM     26  C   UNL     1      47.231  10.311  19.689  0.00  0.00    +0.000 A 
ATOM     27  N   UNL     1      47.556  10.528  18.375  0.00  0.00    +0.000 N 
ATOM     28  C   UNL     1      48.038   9.535  17.553  0.00  0.00    +0.000 A 
ATOM     29  O   UNL     1      48.456   9.790  16.433  0.00  0.00    +0.000 OA
ATOM     30  C   UNL     1      48.053   8.213  18.151  0.00  0.00    +0.000 A 
ATOM     31  H   UNL     1      47.530  11.456  17.982  0.00  0.00    +0.000 HD
ENDBRANCH  18  21
ENDBRANCH   2  17
TORSDOF 6
ENDMDL
MODEL 4
REMARK VINA RESULT:    -7.423      2.880      4.216
REMARK INTER + INTRA:         -11.244
REMARK INTER:                  -9.958
REMARK INTRA:                  -1.287
REMARK UNBOUND:                -1.218
REMARK  Name = 
REMARK  7 active torsions:
REMARK  status: ('A' for Active; 'I' for Inactive)
REMARK    1  A    between atoms: C_1  and  C_2
REMARK    2  A    between atoms: C_2  and  N_3
REMARK    3  A    between atoms: C_2  and  C_16
REMARK    4  A    between atoms: C_4  and  C_6
REMARK    5  A    between atoms: C_19  and  O_20
REMARK    6  A    between atoms: O_20  and  C_21
REMARK    7  A    between atoms: C_21  and  C_22
REMARK                            x       y       z     vdW  Elec       q    Type
REMARK                         _______ _______ _______ _____ _____    ______ ____
ROOT
ATOM      1  C   UNL     1      47.320   4.684  15.024  0.00  0.00    +0.000 C 
ATOM      2  C   UNL     1      46.923   5.748  13.995  0.00  0.00    +0.000 C 
ENDROOT
BRANCH   2   3
ATOM      3  C   UNL     1      46.125   5.144  12.854  0.00  0.00    +0.000 A 
ATOM      4  C   UNL     1      45.810   5.914  11.726  0.00  0.00    +0.000 A 
ATOM      5  C   UNL     1      45.102   5.356  10.656  0.00  0.00    +0.000 A 
ATOM      6  C   UNL     1      44.712   4.017  10.689  0.00  0.00    +0.000 A 
ATOM      7  C   UNL     1      44.990   3.253  11.822  0.00  0.00    +0.000 A 
ATOM      8  C   UNL     1      45.701   3.806  12.888  0.00  0.00    +0.000 A 
BRANCH   6   9
ATOM      9  O   UNL     1      44.078   3.556   9.565  0.00  0.00    +0.000 OA
BRANCH   9  10
ATOM     10  C   UNL     1      44.468   2.247   9.145  0.00  0.00    +0.000 C 
BRANCH  10  11
ATOM     11  C   UNL     1      45.621   2.327   8.175  0.00  0.00    +0.000 A 
ATOM     12  C   UNL     1      46.482   1.233   8.013  0.00  0.00    +0.000 A 
ATOM     13  C   UNL     1      47.492   1.261   7.050  0.00  0.00    +0.000 A 
ATOM     14  C   UNL     1      47.650   2.385   6.241  0.00  0.00    +0.000 A 
ATOM     15  C   UNL     1      46.803   3.480   6.396  0.00  0.00    +0.000 A 
ATOM     16  C   UNL     1      45.791   3.452   7.358  0.00  0.00    +0.000 A 
ENDBRANCH  10  11
ENDBRANCH   9  10
ENDBRANCH   6   9
ENDBRANCH   2   3
BRANCH   2  17
ATOM     17  N   UNL     1      48.097   6.432  13.482  0.00  0.00    +0.000 N 
ATOM     18  C   UNL     1      48.177   7.798  13.407  0.00  0.00    +0.000 C 
ATOM     19  O   UNL     1      47.246   8.526  13.740  0.00  0.00    +0.000 OA
ATOM     20  H   UNL     1      48.850   5.861  13.114  0.00  0.00    +0.000 HD
BRANCH  18  21
ATOM     21  C   UNL     1      49.461   8.359  12.962  0.00  0.00    +0.000 A 
ATOM     22  C   UNL     1      49.514   9.087  11.780  0.00  0.00    +0.000 A 
ATOM     23  S   UNL     1      51.067   9.691  11.417  0.00  0.00    +0.000 S 
ATOM     24  C   UNL     1      51.734   8.957  12.799  0.00  0.00    +0.000 A 
ATOM     25  N   UNL     1      53.063   9.059  13.069  0.00  0.00    +0.000 NA
ATOM     26  C   UNL     1      53.444   8.410  14.118  0.00  0.00    +0.000 A 
ATOM     27  N   UNL     1      52.614   7.681  14.931  0.00  0.00    +0.000 N 
ATOM     28  C   UNL     1      51.253   7.622  14.745  0.00  0.00    +0.000 A 
ATOM     29  O   UNL     1      50.526   7.086  15.568  0.00  0.00    +0.000 OA
ATOM     30  C   UNL     1      50.780   8.286  13.544  0.00  0.00    +0.000 A 
ATOM     31  H   UNL     1      52.971   7.223  15.755  0.00  0.00    +0.000 HD
ENDBRANCH  18  21
ENDBRANCH   2  17
TORSDOF 6
ENDMDL
MODEL 5
REMARK VINA RESULT:    -7.286      2.780      4.460
REMARK INTER + INTRA:         -11.059
REMARK INTER:                  -9.695
REMARK INTRA:                  -1.364
REMARK UNBOUND:                -1.218
REMARK  Name = 
REMARK  7 active torsions:
REMARK  status: ('A' for Active; 'I' for Inactive)
REMARK    1  A    between atoms: C_1  and  C_2
REMARK    2  A    between atoms: C_2  and  N_3
REMARK    3  A    between atoms: C_2  and  C_16
REMARK    4  A    between atoms: C_4  and  C_6
REMARK    5  A    between atoms: C_19  and  O_20
REMARK    6  A    between atoms: O_20  and  C_21
REMARK    7  A    between atoms: C_21  and  C_22
REMARK                            x       y       z     vdW  Elec       q    Type
REMARK                         _______ _______ _______ _____ _____    ______ ____
ROOT
ATOM      1  C   UNL     1      47.294   4.570  15.126  0.00  0.00    +0.000 C 
ATOM      2  C   UNL     1      47.100   5.780  14.205  0.00  0.00    +0.000 C 
ENDROOT
BRANCH   2   3
ATOM      3  C   UNL     1      46.359   5.398  12.937  0.00  0.00    +0.000 A 
ATOM      4  C   UNL     1      46.463   6.195  11.789  0.00  0.00    +0.000 A 
ATOM      5  C   UNL     1      45.808   5.833  10.607  0.00  0.00    +0.000 A 
ATOM      6  C   UNL     1      45.053   4.662  10.548  0.00  0.00    +0.000 A 
ATOM      7  C   UNL     1      44.914   3.881  11.695  0.00  0.00    +0.000 A 
ATOM      8  C   UNL     1      45.571   4.238  12.874  0.00  0.00    +0.000 A 
BRANCH   6   9
ATOM      9  O   UNL     1      44.504   4.371   9.327  0.00  0.00    +0.000 OA
BRANCH   9  10
ATOM     10  C   UNL     1      44.478   2.982   8.991  0.00  0.00    +0.000 C 
BRANCH  10  11
ATOM     11  C   UNL     1      45.637   2.636   8.089  0.00  0.00    +0.000 A 
ATOM     12  C   UNL     1      46.244   1.375   8.174  0.00  0.00    +0.000 A 
ATOM     13  C   UNL     1      47.251   1.011   7.279  0.00  0.00    +0.000 A 
ATOM     14  C   UNL     1      47.660   1.905   6.291  0.00  0.00    +0.000 A 
ATOM     15  C   UNL     1      47.068   3.162   6.200  0.00  0.00    +0.000 A 
ATOM     16  C   UNL     1      46.058   3.528   7.093  0.00  0.00    +0.000 A 
ENDBRANCH  10  11
ENDBRANCH   9  10
ENDBRANCH   6   9
ENDBRANCH   2   3
BRANCH   2  17
ATOM     17  N   UNL     1      48.377   6.389  13.878  0.00  0.00    +0.000 N 
ATOM     18  C   UNL     1      48.959   7.346  14.667  0.00  0.00    +0.000 C 
ATOM     19  O   UNL     1      48.419   7.771  15.684  0.00  0.00    +0.000 OA
ATOM     20  H   UNL     1      48.810   6.128  12.999  0.00  0.00    +0.000 HD
BRANCH  18  21
ATOM     21  C   UNL     1      50.298   7.803  14.269  0.00  0.00    +0.000 A 
ATOM     22  C   UNL     1      51.362   7.647  15.149  0.00  0.00    +0.000 A 
ATOM     23  S   UNL     1      52.851   8.201  14.529  0.00  0.00    +0.000 S 
ATOM     24  C   UNL     1      52.118   8.716  13.083  0.00  0.00    +0.000 A 
ATOM     25  N   UNL     1      52.849   9.325  12.111  0.00  0.00    +0.000 NA
ATOM     26  C   UNL     1      52.158   9.713  11.091  0.00  0.00    +0.000 A 
ATOM     27  N   UNL     1      50.806   9.534  10.948  0.00  0.00    +0.000 N 
ATOM     28  C   UNL     1      50.044   8.848  11.866  0.00  0.00    +0.000 A 
ATOM     29  O   UNL     1      48.874   8.579  11.639  0.00  0.00    +0.000 OA
ATOM     30  C   UNL     1      50.762   8.442  13.060  0.00  0.00    +0.000 A 
ATOM     31  H   UNL     1      50.331   9.832  10.111  0.00  0.00    +0.000 HD
ENDBRANCH  18  21
ENDBRANCH   2  17
TORSDOF 6
ENDMDL
MODEL 6
REMARK VINA RESULT:    -7.265      3.738      8.107
REMARK INTER + INTRA:         -11.032
REMARK INTER:                  -9.741
REMARK INTRA:                  -1.291
REMARK UNBOUND:                -1.218
REMARK  Name = 
REMARK  7 active torsions:
REMARK  status: ('A' for Active; 'I' for Inactive)
REMARK    1  A    between atoms: C_1  and  C_2
REMARK    2  A    between atoms: C_2  and  N_3
REMARK    3  A    between atoms: C_2  and  C_16
REMARK    4  A    between atoms: C_4  and  C_6
REMARK    5  A    between atoms: C_19  and  O_20
REMARK    6  A    between atoms: O_20  and  C_21
REMARK    7  A    between atoms: C_21  and  C_22
REMARK                            x       y       z     vdW  Elec       q    Type
REMARK                         _______ _______ _______ _____ _____    ______ ____
ROOT
ATOM      1  C   UNL     1      49.645   8.179  11.634  0.00  0.00    +0.000 C 
ATOM      2  C   UNL     1      48.514   7.756  12.577  0.00  0.00    +0.000 C 
ENDROOT
BRANCH   2   3
ATOM      3  C   UNL     1      49.053   7.321  13.928  0.00  0.00    +0.000 A 
ATOM      4  C   UNL     1      50.350   7.679  14.321  0.00  0.00    +0.000 A 
ATOM      5  C   UNL     1      50.843   7.309  15.576  0.00  0.00    +0.000 A 
ATOM      6  C   UNL     1      50.044   6.590  16.465  0.00  0.00    +0.000 A 
ATOM      7  C   UNL     1      48.766   6.198  16.069  0.00  0.00    +0.000 A 
ATOM      8  C   UNL     1      48.270   6.571  14.819  0.00  0.00    +0.000 A 
BRANCH   6   9
ATOM      9  O   UNL     1      50.602   6.332  17.690  0.00  0.00    +0.000 OA
BRANCH   9  10
ATOM     10  C   UNL     1      50.028   5.231  18.396  0.00  0.00    +0.000 C 
BRANCH  10  11
ATOM     11  C   UNL     1      50.708   3.941  18.007  0.00  0.00    +0.000 A 
ATOM     12  C   UNL     1      52.059   3.737  18.316  0.00  0.00    +0.000 A 
ATOM     13  C   UNL     1      52.671   2.512  18.046  0.00  0.00    +0.000 A 
ATOM     14  C   UNL     1      51.935   1.480  17.466  0.00  0.00    +0.000 A 
ATOM     15  C   UNL     1      50.593   1.673  17.150  0.00  0.00    +0.000 A 
ATOM     16  C   UNL     1      49.978   2.898  17.421  0.00  0.00    +0.000 A 
ENDBRANCH  10  11
ENDBRANCH   9  10
ENDBRANCH   6   9
ENDBRANCH   2   3
BRANCH   2  17
ATOM     17  N   UNL     1      47.719   6.693  11.986  0.00  0.00    +0.000 N 
ATOM     18  C   UNL     1      46.401   6.860  11.653  0.00  0.00    +0.000 C 
ATOM     19  O   UNL     1      45.801   7.910  11.864  0.00  0.00    +0.000 OA
ATOM     20  H   UNL     1      48.156   5.784  11.879  0.00  0.00    +0.000 HD
BRANCH  18  21
ATOM     21  C   UNL     1      45.747   5.734  10.971  0.00  0.00    +0.000 A 
ATOM     22  C   UNL     1      45.860   5.613   9.592  0.00  0.00    +0.000 A 
ATOM     23  S   UNL     1      45.068   4.243   8.957  0.00  0.00    +0.000 S 
ATOM     24  C   UNL     1      44.504   3.790  10.496  0.00  0.00    +0.000 A 
ATOM     25  N   UNL     1      43.715   2.692  10.653  0.00  0.00    +0.000 NA
ATOM     26  C   UNL     1      43.313   2.495  11.864  0.00  0.00    +0.000 A 
ATOM     27  N   UNL     1      43.641   3.286  12.935  0.00  0.00    +0.000 N 
ATOM     28  C   UNL     1      44.504   4.354  12.837  0.00  0.00    +0.000 A 
ATOM     29  O   UNL     1      44.890   4.947  13.834  0.00  0.00    +0.000 OA
ATOM     30  C   UNL     1      44.938   4.655  11.485  0.00  0.00    +0.000 A 
ATOM     31  H   UNL     1      43.320   3.059  13.863  0.00  0.00    +0.000 HD
ENDBRANCH  18  21
ENDBRANCH   2  17
TORSDOF 6
ENDMDL
MODEL 7
REMARK VINA RESULT:    -7.102      4.150      9.840
REMARK INTER + INTRA:         -10.811
REMARK INTER:                  -9.484
REMARK INTRA:                  -1.327
REMARK UNBOUND:                -1.218
REMARK  Name = 
REMARK  7 active torsions:
REMARK  status: ('A' for Active; 'I' for Inactive)
REMARK    1  A    between atoms: C_1  and  C_2
REMARK    2  A    between atoms: C_2  and  N_3
REMARK    3  A    between atoms: C_2  and  C_16
REMARK    4  A    between atoms: C_4  and  C_6
REMARK    5  A    between atoms: C_19  and  O_20
REMARK    6  A    between atoms: O_20  and  C_21
REMARK    7  A    between atoms: C_21  and  C_22
REMARK                            x       y       z     vdW  Elec       q    Type
REMARK                         _______ _______ _______ _____ _____    ______ ____
ROOT
ATOM      1  C   UNL     1      47.939   3.247  16.742  0.00  0.00    +0.000 C 
ATOM      2  C   UNL     1      48.102   4.687  16.247  0.00  0.00    +0.000 C 
ENDROOT
BRANCH   2   3
ATOM      3  C   UNL     1      48.019   5.680  17.392  0.00  0.00    +0.000 A 
ATOM      4  C   UNL     1      47.285   5.370  18.545  0.00  0.00    +0.000 A 
ATOM      5  C   UNL     1      47.229   6.266  19.618  0.00  0.00    +0.000 A 
ATOM      6  C   UNL     1      47.919   7.477  19.563  0.00  0.00    +0.000 A 
ATOM      7  C   UNL     1      48.623   7.810  18.406  0.00  0.00    +0.000 A 
ATOM      8  C   UNL     1      48.684   6.915  17.336  0.00  0.00    +0.000 A 
BRANCH   6   9
ATOM      9  O   UNL     1      47.847   8.253  20.691  0.00  0.00    +0.000 OA
BRANCH   9  10
ATOM     10  C   UNL     1      48.233   9.617  20.512  0.00  0.00    +0.000 C 
BRANCH  10  11
ATOM     11  C   UNL     1      47.014  10.503  20.426  0.00  0.00    +0.000 A 
ATOM     12  C   UNL     1      45.898  10.245  21.232  0.00  0.00    +0.000 A 
ATOM     13  C   UNL     1      44.805  11.113  21.230  0.00  0.00    +0.000 A 
ATOM     14  C   UNL     1      44.820  12.248  20.422  0.00  0.00    +0.000 A 
ATOM     15  C   UNL     1      45.923  12.513  19.612  0.00  0.00    +0.000 A 
ATOM     16  C   UNL     1      47.018  11.646  19.615  0.00  0.00    +0.000 A 
ENDBRANCH  10  11
ENDBRANCH   9  10
ENDBRANCH   6   9
ENDBRANCH   2   3
BRANCH   2  17
ATOM     17  N   UNL     1      47.107   5.001  15.236  0.00  0.00    +0.000 N 
ATOM     18  C   UNL     1      47.408   5.713  14.104  0.00  0.00    +0.000 C 
ATOM     19  O   UNL     1      48.533   6.158  13.893  0.00  0.00    +0.000 OA
ATOM     20  H   UNL     1      46.148   4.727  15.420  0.00  0.00    +0.000 HD
BRANCH  18  21
ATOM     21  C   UNL     1      46.329   5.871  13.119  0.00  0.00    +0.000 A 
ATOM     22  C   UNL     1      45.967   7.145  12.701  0.00  0.00    +0.000 A 
ATOM     23  S   UNL     1      44.720   7.157  11.538  0.00  0.00    +0.000 S 
ATOM     24  C   UNL     1      44.583   5.462  11.591  0.00  0.00    +0.000 A 
ATOM     25  N   UNL     1      43.653   4.815  10.838  0.00  0.00    +0.000 NA
ATOM     26  C   UNL     1      43.621   3.537  11.015  0.00  0.00    +0.000 A 
ATOM     27  N   UNL     1      44.447   2.844  11.863  0.00  0.00    +0.000 N 
ATOM     28  C   UNL     1      45.457   3.446  12.577  0.00  0.00    +0.000 A 
ATOM     29  O   UNL     1      46.265   2.783  13.209  0.00  0.00    +0.000 OA
ATOM     30  C   UNL     1      45.497   4.893  12.460  0.00  0.00    +0.000 A 
ATOM     31  H   UNL     1      44.392   1.840  11.931  0.00  0.00    +0.000 HD
ENDBRANCH  18  21
ENDBRANCH   2  17
TORSDOF 6
ENDMDL
MODEL 8
REMARK VINA RESULT:    -6.827      2.104      3.817
REMARK INTER + INTRA:         -10.439
REMARK INTER:                  -9.158
REMARK INTRA:                  -1.281
REMARK UNBOUND:                -1.218
REMARK  Name = 
REMARK  7 active torsions:
REMARK  status: ('A' for Active; 'I' for Inactive)
REMARK    1  A    between atoms: C_1  and  C_2
REMARK    2  A    between atoms: C_2  and  N_3
REMARK    3  A    between atoms: C_2  and  C_16
REMARK    4  A    between atoms: C_4  and  C_6
REMARK    5  A    between atoms: C_19  and  O_20
REMARK    6  A    between atoms: O_20  and  C_21
REMARK    7  A    between atoms: C_21  and  C_22
REMARK                            x       y       z     vdW  Elec       q    Type
REMARK                         _______ _______ _______ _____ _____    ______ ____
ROOT
ATOM      1  C   UNL     1      47.682   3.345  15.317  0.00  0.00    +0.000 C 
ATOM      2  C   UNL     1      47.049   4.726  15.114  0.00  0.00    +0.000 C 
ENDROOT
BRANCH   2   3
ATOM      3  C   UNL     1      46.440   4.858  13.730  0.00  0.00    +0.000 A 
ATOM      4  C   UNL     1      46.868   5.872  12.861  0.00  0.00    +0.000 A 
ATOM      5  C   UNL     1      46.334   5.981  11.573  0.00  0.00    +0.000 A 
ATOM      6  C   UNL     1      45.376   5.071  11.126  0.00  0.00    +0.000 A 
ATOM      7  C   UNL     1      44.917   4.081  11.995  0.00  0.00    +0.000 A 
ATOM      8  C   UNL     1      45.453   3.967  13.279  0.00  0.00    +0.000 A 
BRANCH   6   9
ATOM      9  O   UNL     1      44.964   5.231   9.829  0.00  0.00    +0.000 OA
BRANCH   9  10
ATOM     10  C   UNL     1      44.307   4.098   9.259  0.00  0.00    +0.000 C 
BRANCH  10  11
ATOM     11  C   UNL     1      45.286   3.261   8.472  0.00  0.00    +0.000 A 
ATOM     12  C   UNL     1      46.130   3.864   7.530  0.00  0.00    +0.000 A 
ATOM     13  C   UNL     1      47.104   3.115   6.868  0.00  0.00    +0.000 A 
ATOM     14  C   UNL     1      47.242   1.756   7.142  0.00  0.00    +0.000 A 
ATOM     15  C   UNL     1      46.406   1.144   8.073  0.00  0.00    +0.000 A 
ATOM     16  C   UNL     1      45.432   1.893   8.739  0.00  0.00    +0.000 A 
ENDBRANCH  10  11
ENDBRANCH   9  10
ENDBRANCH   6   9
ENDBRANCH   2   3
BRANCH   2  17
ATOM     17  N   UNL     1      48.025   5.778  15.337  0.00  0.00    +0.000 N 
ATOM     18  C   UNL     1      48.446   6.137  16.590  0.00  0.00    +0.000 C 
ATOM     19  O   UNL     1      47.999   5.610  17.605  0.00  0.00    +0.000 OA
ATOM     20  H   UNL     1      48.350   6.296  14.527  0.00  0.00    +0.000 HD
BRANCH  18  21
ATOM     21  C   UNL     1      49.511   7.148  16.663  0.00  0.00    +0.000 A 
ATOM     22  C   UNL     1      50.638   6.898  17.435  0.00  0.00    +0.000 A 
ATOM     23  S   UNL     1      51.790   8.155  17.394  0.00  0.00    +0.000 S 
ATOM     24  C   UNL     1      50.800   9.100  16.383  0.00  0.00    +0.000 A 
ATOM     25  N   UNL     1      51.193  10.341  15.989  0.00  0.00    +0.000 NA
ATOM     26  C   UNL     1      50.324  10.970  15.270  0.00  0.00    +0.000 A 
ATOM     27  N   UNL     1      49.105  10.463  14.895  0.00  0.00    +0.000 N 
ATOM     28  C   UNL     1      48.706   9.182  15.198  0.00  0.00    +0.000 A 
ATOM     29  O   UNL     1      47.680   8.713  14.727  0.00  0.00    +0.000 OA
ATOM     30  C   UNL     1      49.621   8.454  16.057  0.00  0.00    +0.000 A 
ATOM     31  H   UNL     1      48.485  10.994  14.304  0.00  0.00    +0.000 HD
ENDBRANCH  18  21
ENDBRANCH   2  17
TORSDOF 6
ENDMDL
MODEL 9
REMARK VINA RESULT:    -6.707      4.491      8.854
REMARK INTER + INTRA:         -10.278
REMARK INTER:                  -9.271
REMARK INTRA:                  -1.007
REMARK UNBOUND:                -1.218
REMARK  Name = 
REMARK  7 active torsions:
REMARK  status: ('A' for Active; 'I' for Inactive)
REMARK    1  A    between atoms: C_1  and  C_2
REMARK    2  A    between atoms: C_2  and  N_3
REMARK    3  A    between atoms: C_2  and  C_16
REMARK    4  A    between atoms: C_4  and  C_6
REMARK    5  A    between atoms: C_19  and  O_20
REMARK    6  A    between atoms: O_20  and  C_21
REMARK    7  A    between atoms: C_21  and  C_22
REMARK                            x       y       z     vdW  Elec       q    Type
REMARK                         _______ _______ _______ _____ _____    ______ ____
ROOT
ATOM      1  C   UNL     1      47.113   4.725  18.386  0.00  0.00    +0.000 C 
ATOM      2  C   UNL     1      47.616   4.035  17.113  0.00  0.00    +0.000 C 
ENDROOT
BRANCH   2   3
ATOM      3  C   UNL     1      49.091   3.691  17.216  0.00  0.00    +0.000 A 
ATOM      4  C   UNL     1      50.037   4.696  17.457  0.00  0.00    +0.000 A 
ATOM      5  C   UNL     1      51.394   4.383  17.584  0.00  0.00    +0.000 A 
ATOM      6  C   UNL     1      51.826   3.060  17.489  0.00  0.00    +0.000 A 
ATOM      7  C   UNL     1      50.897   2.057  17.214  0.00  0.00    +0.000 A 
ATOM      8  C   UNL     1      49.541   2.367  17.092  0.00  0.00    +0.000 A 
BRANCH   6   9
ATOM      9  O   UNL     1      53.166   2.857  17.689  0.00  0.00    +0.000 OA
BRANCH   9  10
ATOM     10  C   UNL     1      53.488   1.878  18.678  0.00  0.00    +0.000 C 
BRANCH  10  11
ATOM     11  C   UNL     1      54.123   0.669  18.036  0.00  0.00    +0.000 A 
ATOM     12  C   UNL     1      54.036  -0.585  18.656  0.00  0.00    +0.000 A 
ATOM     13  C   UNL     1      54.535  -1.725  18.024  0.00  0.00    +0.000 A 
ATOM     14  C   UNL     1      55.126  -1.621  16.766  0.00  0.00    +0.000 A 
ATOM     15  C   UNL     1      55.222  -0.379  16.142  0.00  0.00    +0.000 A 
ATOM     16  C   UNL     1      54.721   0.762  16.772  0.00  0.00    +0.000 A 
ENDBRANCH  10  11
ENDBRANCH   9  10
ENDBRANCH   6   9
ENDBRANCH   2   3
BRANCH   2  17
ATOM     17  N   UNL     1      47.372   4.864  15.946  0.00  0.00    +0.000 N 
ATOM     18  C   UNL     1      47.250   4.341  14.685  0.00  0.00    +0.000 C 
ATOM     19  O   UNL     1      47.373   3.140  14.462  0.00  0.00    +0.000 OA
ATOM     20  H   UNL     1      47.354   5.869  16.080  0.00  0.00    +0.000 HD
BRANCH  18  21
ATOM     21  C   UNL     1      46.905   5.284  13.612  0.00  0.00    +0.000 A 
ATOM     22  C   UNL     1      47.849   6.210  13.187  0.00  0.00    +0.000 A 
ATOM     23  S   UNL     1      47.304   7.213  11.920  0.00  0.00    +0.000 S 
ATOM     24  C   UNL     1      45.769   6.478  11.929  0.00  0.00    +0.000 A 
ATOM     25  N   UNL     1      44.790   6.903  11.085  0.00  0.00    +0.000 NA
ATOM     26  C   UNL     1      43.660   6.297  11.235  0.00  0.00    +0.000 A 
ATOM     27  N   UNL     1      43.424   5.293  12.140  0.00  0.00    +0.000 N 
ATOM     28  C   UNL     1      44.408   4.775  12.951  0.00  0.00    +0.000 A 
ATOM     29  O   UNL     1      44.202   3.787  13.639  0.00  0.00    +0.000 OA
ATOM     30  C   UNL     1      45.683   5.463  12.864  0.00  0.00    +0.000 A 
ATOM     31  H   UNL     1      42.526   4.838  12.184  0.00  0.00    +0.000 HD
ENDBRANCH  18  21
ENDBRANCH   2  17
TORSDOF 6
ENDMDL
