MODEL 1
REMARK VINA RESULT:    -7.129      0.000      0.000
REMARK INTER + INTRA:         -10.590
REMARK INTER:                  -9.838
REMARK INTRA:                  -0.751
REMARK UNBOUND:                -0.751
REMARK  Name = 
REMARK  7 active torsions:
REMARK  status: ('A' for Active; 'I' for Inactive)
REMARK    1  A    between atoms: N_1  and  C_2
REMARK    2  A    between atoms: C_2  and  C_3
REMARK    3  A    between atoms: C_7  and  S_8
REMARK    4  A    between atoms: S_8  and  C_9
REMARK    5  A    between atoms: C_9  and  C_10
REMARK    6  A    between atoms: C_10  and  C_11
REMARK    7  A    between atoms: C_15  and  C_16
REMARK                            x       y       z     vdW  Elec       q    Type
REMARK                         _______ _______ _______ _____ _____    ______ ____
ROOT
ATOM      1  C   UNL     1      44.285   3.200  12.200  0.00  0.00    +0.000 C 
ENDROOT
BRANCH   1   2
ATOM      2  S   UNL     1      43.646   4.806  12.792  0.00  0.00    +0.000 S 
BRANCH   2   7
ATOM      3  C   UNL     1      46.001   8.101  12.421  0.00  0.00    +0.000 A 
ATOM      4  C   UNL     1      47.298   7.576  12.495  0.00  0.00    +0.000 A 
ATOM      5  C   UNL     1      47.498   6.205  12.649  0.00  0.00    +0.000 A 
ATOM      6  C   UNL     1      46.404   5.343  12.745  0.00  0.00    +0.000 A 
ATOM      7  C   UNL     1      45.100   5.842  12.686  0.00  0.00    +0.000 A 
ATOM      8  C   UNL     1      44.910   7.220  12.503  0.00  0.00    +0.000 A 
BRANCH   3   9
ATOM      9  C   UNL     1      45.777   9.589  12.317  0.00  0.00    +0.000 C 
BRANCH   9  10
ATOM     10  N   UNL     1      44.379   9.954  12.527  0.00  0.00    +0.000 NA
ATOM     11  H   UNL     1      43.917   9.205  13.036  0.00  0.00    +0.000 HD
ATOM     12  H   UNL     1      43.919  10.014  11.619  0.00  0.00    +0.000 HD
ENDBRANCH   9  10
ENDBRANCH   3   9
ENDBRANCH   2   7
ENDBRANCH   1   2
BRANCH   1  13
ATOM     13  C   UNL     1      43.617   2.822  10.876  0.00  0.00    +0.000 C 
BRANCH  13  14
ATOM     14  C   UNL     1      44.565   3.039   9.719  0.00  0.00    +0.000 A 
ATOM     15  C   UNL     1      44.833   4.336   9.255  0.00  0.00    +0.000 A 
ATOM     16  C   UNL     1      45.741   4.543   8.215  0.00  0.00    +0.000 A 
ATOM     17  C   UNL     1      46.410   3.459   7.649  0.00  0.00    +0.000 A 
ATOM     18  C   UNL     1      46.177   2.163   8.121  0.00  0.00    +0.000 A 
ATOM     19  C   UNL     1      45.234   1.952   9.135  0.00  0.00    +0.000 A 
BRANCH  18  20
ATOM     20  C   UNL     1      46.969   1.050   7.536  0.00  0.00    +0.000 C 
ATOM     21  N   UNL     1      47.937   1.383   6.627  0.00  0.00    +0.000 N 
ATOM     22  O   UNL     1      46.732  -0.118   7.805  0.00  0.00    +0.000 OA
ATOM     23  H   UNL     1      48.000   2.299   6.208  0.00  0.00    +0.000 HD
ATOM     24  H   UNL     1      48.355   0.609   6.125  0.00  0.00    +0.000 HD
ENDBRANCH  18  20
ENDBRANCH  13  14
ENDBRANCH   1  13
TORSDOF 7
ENDMDL
MODEL 2
REMARK VINA RESULT:    -6.491      2.313      3.020
REMARK INTER + INTRA:          -9.709
REMARK INTER:                  -9.148
REMARK INTRA:                  -0.561
REMARK UNBOUND:                -0.751
REMARK  Name = 
REMARK  7 active torsions:
REMARK  status: ('A' for Active; 'I' for Inactive)
REMARK    1  A    between atoms: N_1  and  C_2
REMARK    2  A    between atoms: C_2  and  C_3
REMARK    3  A    between atoms: C_7  and  S_8
REMARK    4  A    between atoms: S_8  and  C_9
REMARK    5  A    between atoms: C_9  and  C_10
REMARK    6  A    between atoms: C_10  and  C_11
REMARK    7  A    between atoms: C_15  and  C_16
REMARK                            x       y       z     vdW  Elec       q    Type
REMARK                         _______ _______ _______ _____ _____    ______ ____
ROOT
ATOM      1  C   UNL     1      43.366   4.502  10.477  0.00  0.00    +0.000 C 
ENDROOT
BRANCH   1   2
ATOM      2  S   UNL     1      43.281   5.906  11.642  0.00  0.00    +0.000 S 
BRANCH   2   7
ATOM      3  C   UNL     1      46.697   5.333  13.772  0.00  0.00    +0.000 A 
ATOM      4  C   UNL     1      47.617   6.173  13.131  0.00  0.00    +0.000 A 
ATOM      5  C   UNL     1      47.227   6.946  12.039  0.00  0.00    +0.000 A 
ATOM      6  C   UNL     1      45.915   6.880  11.565  0.00  0.00    +0.000 A 
ATOM      7  C   UNL     1      44.981   6.043  12.180  0.00  0.00    +0.000 A 
ATOM      8  C   UNL     1      45.377   5.289  13.294  0.00  0.00    +0.000 A 
BRANCH   3   9
ATOM      9  C   UNL     1      47.128   4.449  14.915  0.00  0.00    +0.000 C 
BRANCH   9  10
ATOM     10  N   UNL     1      47.425   3.088  14.478  0.00  0.00    +0.000 NA
ATOM     11  H   UNL     1      46.751   2.453  14.898  0.00  0.00    +0.000 HD
ATOM     12  H   UNL     1      48.339   2.821  14.843  0.00  0.00    +0.000 HD
ENDBRANCH   9  10
ENDBRANCH   3   9
ENDBRANCH   2   7
ENDBRANCH   1   2
BRANCH   1  13
ATOM     13  C   UNL     1      44.302   4.837   9.314  0.00  0.00    +0.000 C 
BRANCH  13  14
ATOM     14  C   UNL     1      45.010   3.595   8.823  0.00  0.00    +0.000 A 
ATOM     15  C   UNL     1      44.585   2.324   9.238  0.00  0.00    +0.000 A 
ATOM     16  C   UNL     1      45.209   1.174   8.753  0.00  0.00    +0.000 A 
ATOM     17  C   UNL     1      46.246   1.282   7.828  0.00  0.00    +0.000 A 
ATOM     18  C   UNL     1      46.662   2.541   7.381  0.00  0.00    +0.000 A 
ATOM     19  C   UNL     1      46.063   3.696   7.901  0.00  0.00    +0.000 A 
BRANCH  18  20
ATOM     20  C   UNL     1      47.719   2.601   6.338  0.00  0.00    +0.000 C 
ATOM     21  N   UNL     1      47.340   3.007   5.087  0.00  0.00    +0.000 N 
ATOM     22  O   UNL     1      48.867   2.246   6.564  0.00  0.00    +0.000 OA
ATOM     23  H   UNL     1      46.374   3.077   4.805  0.00  0.00    +0.000 HD
ATOM     24  H   UNL     1      48.032   2.890   4.357  0.00  0.00    +0.000 HD
ENDBRANCH  18  20
ENDBRANCH  13  14
ENDBRANCH   1  13
TORSDOF 7
ENDMDL
MODEL 3
REMARK VINA RESULT:    -6.067      5.565      6.988
REMARK INTER + INTRA:          -9.124
REMARK INTER:                  -8.776
REMARK INTRA:                  -0.348
REMARK UNBOUND:                -0.751
REMARK  Name = 
REMARK  7 active torsions:
REMARK  status: ('A' for Active; 'I' for Inactive)
REMARK    1  A    between atoms: N_1  and  C_2
REMARK    2  A    between atoms: C_2  and  C_3
REMARK    3  A    between atoms: C_7  and  S_8
REMARK    4  A    between atoms: S_8  and  C_9
REMARK    5  A    between atoms: C_9  and  C_10
REMARK    6  A    between atoms: C_10  and  C_11
REMARK    7  A    between atoms: C_15  and  C_16
REMARK                            x       y       z     vdW  Elec       q    Type
REMARK                         _______ _______ _______ _____ _____    ______ ____
ROOT
ATOM      1  C   UNL     1      47.257   4.422  15.686  0.00  0.00    +0.000 C 
ENDROOT
BRANCH   1   2
ATOM      2  S   UNL     1      47.566   3.292  17.088  0.00  0.00    +0.000 S 
BRANCH   2   7
ATOM      3  C   UNL     1      51.511   2.459  17.618  0.00  0.00    +0.000 A 
ATOM      4  C   UNL     1      52.084   3.725  17.791  0.00  0.00    +0.000 A 
ATOM      5  C   UNL     1      51.290   4.870  17.764  0.00  0.00    +0.000 A 
ATOM      6  C   UNL     1      49.914   4.765  17.548  0.00  0.00    +0.000 A 
ATOM      7  C   UNL     1      49.320   3.515  17.361  0.00  0.00    +0.000 A 
ATOM      8  C   UNL     1      50.124   2.367  17.418  0.00  0.00    +0.000 A 
BRANCH   3   9
ATOM      9  C   UNL     1      52.373   1.221  17.586  0.00  0.00    +0.000 C 
BRANCH   9  10
ATOM     10  N   UNL     1      51.700   0.064  18.167  0.00  0.00    +0.000 NA
ATOM     11  H   UNL     1      52.399  -0.623  18.436  0.00  0.00    +0.000 HD
ATOM     12  H   UNL     1      51.126  -0.375  17.447  0.00  0.00    +0.000 HD
ENDBRANCH   9  10
ENDBRANCH   3   9
ENDBRANCH   2   7
ENDBRANCH   1   2
BRANCH   1  13
ATOM     13  C   UNL     1      47.127   3.626  14.386  0.00  0.00    +0.000 C 
BRANCH  13  14
ATOM     14  C   UNL     1      46.521   4.480  13.296  0.00  0.00    +0.000 A 
ATOM     15  C   UNL     1      47.071   5.733  12.986  0.00  0.00    +0.000 A 
ATOM     16  C   UNL     1      46.540   6.504  11.952  0.00  0.00    +0.000 A 
ATOM     17  C   UNL     1      45.473   6.018  11.198  0.00  0.00    +0.000 A 
ATOM     18  C   UNL     1      44.932   4.758  11.474  0.00  0.00    +0.000 A 
ATOM     19  C   UNL     1      45.438   4.003  12.540  0.00  0.00    +0.000 A 
BRANCH  18  20
ATOM     20  C   UNL     1      43.846   4.253  10.594  0.00  0.00    +0.000 C 
ATOM     21  N   UNL     1      43.954   4.515   9.255  0.00  0.00    +0.000 N 
ATOM     22  O   UNL     1      42.865   3.681  11.047  0.00  0.00    +0.000 OA
ATOM     23  H   UNL     1      44.615   5.179   8.880  0.00  0.00    +0.000 HD
ATOM     24  H   UNL     1      43.135   4.305   8.697  0.00  0.00    +0.000 HD
ENDBRANCH  18  20
ENDBRANCH  13  14
ENDBRANCH   1  13
TORSDOF 7
ENDMDL
MODEL 4
REMARK VINA RESULT:    -6.028      3.651      7.037
REMARK INTER + INTRA:          -9.069
REMARK INTER:                  -8.620
REMARK INTRA:                  -0.450
REMARK UNBOUND:                -0.751
REMARK  Name = 
REMARK  7 active torsions:
REMARK  status: ('A' for Active; 'I' for Inactive)
REMARK    1  A    between atoms: N_1  and  C_2
REMARK    2  A    between atoms: C_2  and  C_3
REMARK    3  A    between atoms: C_7  and  S_8
REMARK    4  A    between atoms: S_8  and  C_9
REMARK    5  A    between atoms: C_9  and  C_10
REMARK    6  A    between atoms: C_10  and  C_11
REMARK    7  A    between atoms: C_15  and  C_16
REMARK                            x       y       z     vdW  Elec       q    Type
REMARK                         _______ _______ _______ _____ _____    ______ ____
ROOT
ATOM      1  C   UNL     1      45.446   6.142  12.036  0.00  0.00    +0.000 C 
ENDROOT
BRANCH   1   2
ATOM      2  S   UNL     1      43.926   5.682  11.133  0.00  0.00    +0.000 S 
BRANCH   2   7
ATOM      3  C   UNL     1      45.867   3.679   8.174  0.00  0.00    +0.000 A 
ATOM      4  C   UNL     1      45.478   2.349   8.380  0.00  0.00    +0.000 A 
ATOM      5  C   UNL     1      44.606   2.020   9.417  0.00  0.00    +0.000 A 
ATOM      6  C   UNL     1      44.123   3.015  10.270  0.00  0.00    +0.000 A 
ATOM      7  C   UNL     1      44.505   4.348  10.092  0.00  0.00    +0.000 A 
ATOM      8  C   UNL     1      45.361   4.671   9.029  0.00  0.00    +0.000 A 
BRANCH   3   9
ATOM      9  C   UNL     1      46.858   4.033   7.092  0.00  0.00    +0.000 C 
BRANCH   9  10
ATOM     10  N   UNL     1      47.810   2.955   6.841  0.00  0.00    +0.000 NA
ATOM     11  H   UNL     1      48.507   3.280   6.177  0.00  0.00    +0.000 HD
ATOM     12  H   UNL     1      47.318   2.184   6.390  0.00  0.00    +0.000 HD
ENDBRANCH   9  10
ENDBRANCH   3   9
ENDBRANCH   2   7
ENDBRANCH   1   2
BRANCH   1  13
ATOM     13  C   UNL     1      46.209   4.884  12.459  0.00  0.00    +0.000 C 
BRANCH  13  14
ATOM     14  C   UNL     1      47.012   5.143  13.713  0.00  0.00    +0.000 A 
ATOM     15  C   UNL     1      47.784   6.309  13.834  0.00  0.00    +0.000 A 
ATOM     16  C   UNL     1      48.492   6.571  15.008  0.00  0.00    +0.000 A 
ATOM     17  C   UNL     1      48.411   5.687  16.082  0.00  0.00    +0.000 A 
ATOM     18  C   UNL     1      47.622   4.535  15.989  0.00  0.00    +0.000 A 
ATOM     19  C   UNL     1      46.947   4.251  14.795  0.00  0.00    +0.000 A 
BRANCH  18  20
ATOM     20  C   UNL     1      47.509   3.663  17.187  0.00  0.00    +0.000 C 
ATOM     21  N   UNL     1      48.609   3.569  17.996  0.00  0.00    +0.000 N 
ATOM     22  O   UNL     1      46.503   3.007  17.412  0.00  0.00    +0.000 OA
ATOM     23  H   UNL     1      49.521   3.900  17.720  0.00  0.00    +0.000 HD
ATOM     24  H   UNL     1      48.569   2.854  18.713  0.00  0.00    +0.000 HD
ENDBRANCH  18  20
ENDBRANCH  13  14
ENDBRANCH   1  13
TORSDOF 7
ENDMDL
MODEL 5
REMARK VINA RESULT:    -5.981      5.104      7.135
REMARK INTER + INTRA:          -9.006
REMARK INTER:                  -7.735
REMARK INTRA:                  -1.271
REMARK UNBOUND:                -0.751
REMARK  Name = 
REMARK  7 active torsions:
REMARK  status: ('A' for Active; 'I' for Inactive)
REMARK    1  A    between atoms: N_1  and  C_2
REMARK    2  A    between atoms: C_2  and  C_3
REMARK    3  A    between atoms: C_7  and  S_8
REMARK    4  A    between atoms: S_8  and  C_9
REMARK    5  A    between atoms: C_9  and  C_10
REMARK    6  A    between atoms: C_10  and  C_11
REMARK    7  A    between atoms: C_15  and  C_16
REMARK                            x       y       z     vdW  Elec       q    Type
REMARK                         _______ _______ _______ _____ _____    ______ ____
ROOT
ATOM      1  C   UNL     1      50.073   7.385  14.947  0.00  0.00    +0.000 C 
ENDROOT
BRANCH   1   2
ATOM      2  S   UNL     1      50.266   7.518  16.759  0.00  0.00    +0.000 S 
BRANCH   2   7
ATOM      3  C   UNL     1      49.408   3.611  17.494  0.00  0.00    +0.000 A 
ATOM      4  C   UNL     1      48.178   3.675  18.162  0.00  0.00    +0.000 A 
ATOM      5  C   UNL     1      47.566   4.904  18.400  0.00  0.00    +0.000 A 
ATOM      6  C   UNL     1      48.183   6.087  17.987  0.00  0.00    +0.000 A 
ATOM      7  C   UNL     1      49.415   6.052  17.329  0.00  0.00    +0.000 A 
ATOM      8  C   UNL     1      50.008   4.808  17.069  0.00  0.00    +0.000 A 
BRANCH   3   9
ATOM      9  C   UNL     1      50.104   2.289  17.287  0.00  0.00    +0.000 C 
BRANCH   9  10
ATOM     10  N   UNL     1      49.715   1.650  16.033  0.00  0.00    +0.000 NA
ATOM     11  H   UNL     1      50.256   0.797  15.916  0.00  0.00    +0.000 HD
ATOM     12  H   UNL     1      49.972   2.264  15.261  0.00  0.00    +0.000 HD
ENDBRANCH   9  10
ENDBRANCH   3   9
ENDBRANCH   2   7
ENDBRANCH   1   2
BRANCH   1  13
ATOM     13  C   UNL     1      48.854   8.186  14.486  0.00  0.00    +0.000 C 
BRANCH  13  14
ATOM     14  C   UNL     1      47.870   7.293  13.766  0.00  0.00    +0.000 A 
ATOM     15  C   UNL     1      47.101   7.794  12.704  0.00  0.00    +0.000 A 
ATOM     16  C   UNL     1      46.223   6.961  12.010  0.00  0.00    +0.000 A 
ATOM     17  C   UNL     1      46.126   5.613  12.351  0.00  0.00    +0.000 A 
ATOM     18  C   UNL     1      46.907   5.090  13.388  0.00  0.00    +0.000 A 
ATOM     19  C   UNL     1      47.756   5.937  14.112  0.00  0.00    +0.000 A 
BRANCH  18  20
ATOM     20  C   UNL     1      46.823   3.633  13.664  0.00  0.00    +0.000 C 
ATOM     21  N   UNL     1      45.889   2.917  12.963  0.00  0.00    +0.000 N 
ATOM     22  O   UNL     1      47.511   3.100  14.522  0.00  0.00    +0.000 OA
ATOM     23  H   UNL     1      45.153   3.356  12.430  0.00  0.00    +0.000 HD
ATOM     24  H   UNL     1      45.738   1.966  13.275  0.00  0.00    +0.000 HD
ENDBRANCH  18  20
ENDBRANCH  13  14
ENDBRANCH   1  13
TORSDOF 7
ENDMDL
MODEL 6
REMARK VINA RESULT:    -5.801      4.954      6.775
REMARK INTER + INTRA:          -8.757
REMARK INTER:                  -7.701
REMARK INTRA:                  -1.056
REMARK UNBOUND:                -0.751
REMARK  Name = 
REMARK  7 active torsions:
REMARK  status: ('A' for Active; 'I' for Inactive)
REMARK    1  A    between atoms: N_1  and  C_2
REMARK    2  A    between atoms: C_2  and  C_3
REMARK    3  A    between atoms: C_7  and  S_8
REMARK    4  A    between atoms: S_8  and  C_9
REMARK    5  A    between atoms: C_9  and  C_10
REMARK    6  A    between atoms: C_10  and  C_11
REMARK    7  A    between atoms: C_15  and  C_16
REMARK                            x       y       z     vdW  Elec       q    Type
REMARK                         _______ _______ _______ _____ _____    ______ ____
ROOT
ATOM      1  C   UNL     1      49.870   7.351  14.732  0.00  0.00    +0.000 C 
ENDROOT
BRANCH   1   2
ATOM      2  S   UNL     1      50.020   8.253  16.314  0.00  0.00    +0.000 S 
BRANCH   2   7
ATOM      3  C   UNL     1      48.008   5.117  17.943  0.00  0.00    +0.000 A 
ATOM      4  C   UNL     1      47.272   5.712  18.976  0.00  0.00    +0.000 A 
ATOM      5  C   UNL     1      47.355   7.085  19.203  0.00  0.00    +0.000 A 
ATOM      6  C   UNL     1      48.186   7.878  18.409  0.00  0.00    +0.000 A 
ATOM      7  C   UNL     1      48.939   7.308  17.380  0.00  0.00    +0.000 A 
ATOM      8  C   UNL     1      48.827   5.930  17.142  0.00  0.00    +0.000 A 
BRANCH   3   9
ATOM      9  C   UNL     1      47.969   3.624  17.731  0.00  0.00    +0.000 C 
BRANCH   9  10
ATOM     10  N   UNL     1      46.619   3.140  17.457  0.00  0.00    +0.000 NA
ATOM     11  H   UNL     1      46.121   3.842  16.915  0.00  0.00    +0.000 HD
ATOM     12  H   UNL     1      46.120   3.049  18.341  0.00  0.00    +0.000 HD
ENDBRANCH   9  10
ENDBRANCH   3   9
ENDBRANCH   2   7
ENDBRANCH   1   2
BRANCH   1  13
ATOM     13  C   UNL     1      48.979   8.130  13.763  0.00  0.00    +0.000 C 
BRANCH  13  14
ATOM     14  C   UNL     1      47.813   7.282  13.310  0.00  0.00    +0.000 A 
ATOM     15  C   UNL     1      46.830   7.818  12.464  0.00  0.00    +0.000 A 
ATOM     16  C   UNL     1      45.776   7.025  12.010  0.00  0.00    +0.000 A 
ATOM     17  C   UNL     1      45.710   5.681  12.372  0.00  0.00    +0.000 A 
ATOM     18  C   UNL     1      46.698   5.122  13.191  0.00  0.00    +0.000 A 
ATOM     19  C   UNL     1      47.732   5.930  13.681  0.00  0.00    +0.000 A 
BRANCH  18  20
ATOM     20  C   UNL     1      46.624   3.668  13.488  0.00  0.00    +0.000 C 
ATOM     21  N   UNL     1      45.671   2.943  12.824  0.00  0.00    +0.000 N 
ATOM     22  O   UNL     1      47.338   3.147  14.332  0.00  0.00    +0.000 OA
ATOM     23  H   UNL     1      44.919   3.373  12.307  0.00  0.00    +0.000 HD
ATOM     24  H   UNL     1      45.531   1.995  13.153  0.00  0.00    +0.000 HD
ENDBRANCH  18  20
ENDBRANCH  13  14
ENDBRANCH   1  13
TORSDOF 7
ENDMDL
MODEL 7
REMARK VINA RESULT:    -5.724      4.578      6.200
REMARK INTER + INTRA:          -8.651
REMARK INTER:                  -8.012
REMARK INTRA:                  -0.638
REMARK UNBOUND:                -0.751
REMARK  Name = 
REMARK  7 active torsions:
REMARK  status: ('A' for Active; 'I' for Inactive)
REMARK    1  A    between atoms: N_1  and  C_2
REMARK    2  A    between atoms: C_2  and  C_3
REMARK    3  A    between atoms: C_7  and  S_8
REMARK    4  A    between atoms: S_8  and  C_9
REMARK    5  A    between atoms: C_9  and  C_10
REMARK    6  A    between atoms: C_10  and  C_11
REMARK    7  A    between atoms: C_15  and  C_16
REMARK                            x       y       z     vdW  Elec       q    Type
REMARK                         _______ _______ _______ _____ _____    ______ ____
ROOT
ATOM      1  C   UNL     1      48.751   7.067  13.813  0.00  0.00    +0.000 C 
ENDROOT
BRANCH   1   2
ATOM      2  S   UNL     1      48.841   7.661  15.538  0.00  0.00    +0.000 S 
BRANCH   2   7
ATOM      3  C   UNL     1      48.960   4.068  17.438  0.00  0.00    +0.000 A 
ATOM      4  C   UNL     1      50.319   3.914  17.744  0.00  0.00    +0.000 A 
ATOM      5  C   UNL     1      51.239   4.900  17.394  0.00  0.00    +0.000 A 
ATOM      6  C   UNL     1      50.815   6.047  16.719  0.00  0.00    +0.000 A 
ATOM      7  C   UNL     1      49.468   6.220  16.392  0.00  0.00    +0.000 A 
ATOM      8  C   UNL     1      48.546   5.234  16.774  0.00  0.00    +0.000 A 
BRANCH   3   9
ATOM      9  C   UNL     1      47.970   2.977  17.760  0.00  0.00    +0.000 C 
BRANCH   9  10
ATOM     10  N   UNL     1      46.599   3.362  17.439  0.00  0.00    +0.000 NA
ATOM     11  H   UNL     1      46.402   3.105  16.475  0.00  0.00    +0.000 HD
ATOM     12  H   UNL     1      46.527   4.378  17.487  0.00  0.00    +0.000 HD
ENDBRANCH   9  10
ENDBRANCH   3   9
ENDBRANCH   2   7
ENDBRANCH   1   2
BRANCH   1  13
ATOM     13  C   UNL     1      47.370   7.364  13.225  0.00  0.00    +0.000 C 
BRANCH  13  14
ATOM     14  C   UNL     1      46.666   6.083  12.841  0.00  0.00    +0.000 A 
ATOM     15  C   UNL     1      46.915   4.896  13.549  0.00  0.00    +0.000 A 
ATOM     16  C   UNL     1      46.235   3.722  13.224  0.00  0.00    +0.000 A 
ATOM     17  C   UNL     1      45.280   3.728  12.209  0.00  0.00    +0.000 A 
ATOM     18  C   UNL     1      44.998   4.909  11.514  0.00  0.00    +0.000 A 
ATOM     19  C   UNL     1      45.712   6.077  11.811  0.00  0.00    +0.000 A 
BRANCH  18  20
ATOM     20  C   UNL     1      43.919   4.882  10.492  0.00  0.00    +0.000 C 
ATOM     21  N   UNL     1      44.272   4.521   9.220  0.00  0.00    +0.000 N 
ATOM     22  O   UNL     1      42.776   5.226  10.756  0.00  0.00    +0.000 OA
ATOM     23  H   UNL     1      45.233   4.464   8.916  0.00  0.00    +0.000 HD
ATOM     24  H   UNL     1      43.564   4.660   8.510  0.00  0.00    +0.000 HD
ENDBRANCH  18  20
ENDBRANCH  13  14
ENDBRANCH   1  13
TORSDOF 7
ENDMDL
MODEL 8
REMARK VINA RESULT:    -5.697      5.557      7.958
REMARK INTER + INTRA:          -8.613
REMARK INTER:                  -7.359
REMARK INTRA:                  -1.254
REMARK UNBOUND:                -0.751
REMARK  Name = 
REMARK  7 active torsions:
REMARK  status: ('A' for Active; 'I' for Inactive)
REMARK    1  A    between atoms: N_1  and  C_2
REMARK    2  A    between atoms: C_2  and  C_3
REMARK    3  A    between atoms: C_7  and  S_8
REMARK    4  A    between atoms: S_8  and  C_9
REMARK    5  A    between atoms: C_9  and  C_10
REMARK    6  A    between atoms: C_10  and  C_11
REMARK    7  A    between atoms: C_15  and  C_16
REMARK                            x       y       z     vdW  Elec       q    Type
REMARK                         _______ _______ _______ _____ _____    ______ ____
ROOT
ATOM      1  C   UNL     1      49.311   8.096  16.689  0.00  0.00    +0.000 C 
ENDROOT
BRANCH   1   2
ATOM      2  S   UNL     1      50.201   7.755  15.131  0.00  0.00    +0.000 S 
BRANCH   2   7
ATOM      3  C   UNL     1      47.187   5.575  13.486  0.00  0.00    +0.000 A 
ATOM      4  C   UNL     1      46.769   6.369  12.411  0.00  0.00    +0.000 A 
ATOM      5  C   UNL     1      47.396   7.585  12.144  0.00  0.00    +0.000 A 
ATOM      6  C   UNL     1      48.439   8.030  12.959  0.00  0.00    +0.000 A 
ATOM      7  C   UNL     1      48.867   7.262  14.045  0.00  0.00    +0.000 A 
ATOM      8  C   UNL     1      48.249   6.027  14.287  0.00  0.00    +0.000 A 
BRANCH   3   9
ATOM      9  C   UNL     1      46.473   4.288  13.816  0.00  0.00    +0.000 C 
BRANCH   9  10
ATOM     10  N   UNL     1      47.390   3.252  14.283  0.00  0.00    +0.000 NA
ATOM     11  H   UNL     1      47.924   3.614  15.068  0.00  0.00    +0.000 HD
ATOM     12  H   UNL     1      48.063   3.054  13.542  0.00  0.00    +0.000 HD
ENDBRANCH   9  10
ENDBRANCH   3   9
ENDBRANCH   2   7
ENDBRANCH   1   2
BRANCH   1  13
ATOM     13  C   UNL     1      49.846   7.201  17.809  0.00  0.00    +0.000 C 
BRANCH  13  14
ATOM     14  C   UNL     1      49.164   5.853  17.787  0.00  0.00    +0.000 A 
ATOM     15  C   UNL     1      47.781   5.752  18.006  0.00  0.00    +0.000 A 
ATOM     16  C   UNL     1      47.143   4.513  17.943  0.00  0.00    +0.000 A 
ATOM     17  C   UNL     1      47.873   3.368  17.634  0.00  0.00    +0.000 A 
ATOM     18  C   UNL     1      49.247   3.454  17.384  0.00  0.00    +0.000 A 
ATOM     19  C   UNL     1      49.895   4.692  17.490  0.00  0.00    +0.000 A 
BRANCH  18  20
ATOM     20  C   UNL     1      49.968   2.217  16.985  0.00  0.00    +0.000 C 
ATOM     21  N   UNL     1      50.965   1.780  17.815  0.00  0.00    +0.000 N 
ATOM     22  O   UNL     1      49.728   1.645  15.933  0.00  0.00    +0.000 OA
ATOM     23  H   UNL     1      51.346   2.348  18.557  0.00  0.00    +0.000 HD
ATOM     24  H   UNL     1      51.545   1.034  17.452  0.00  0.00    +0.000 HD
ENDBRANCH  18  20
ENDBRANCH  13  14
ENDBRANCH   1  13
TORSDOF 7
ENDMDL
MODEL 9
REMARK VINA RESULT:    -5.541      4.132      5.440
REMARK INTER + INTRA:          -8.398
REMARK INTER:                  -7.697
REMARK INTRA:                  -0.701
REMARK UNBOUND:                -0.751
REMARK  Name = 
REMARK  7 active torsions:
REMARK  status: ('A' for Active; 'I' for Inactive)
REMARK    1  A    between atoms: N_1  and  C_2
REMARK    2  A    between atoms: C_2  and  C_3
REMARK    3  A    between atoms: C_7  and  S_8
REMARK    4  A    between atoms: S_8  and  C_9
REMARK    5  A    between atoms: C_9  and  C_10
REMARK    6  A    between atoms: C_10  and  C_11
REMARK    7  A    between atoms: C_15  and  C_16
REMARK                            x       y       z     vdW  Elec       q    Type
REMARK                         _______ _______ _______ _____ _____    ______ ____
ROOT
ATOM      1  C   UNL     1      47.811   6.318  12.772  0.00  0.00    +0.000 C 
ENDROOT
BRANCH   1   2
ATOM      2  S   UNL     1      48.422   7.010  14.349  0.00  0.00    +0.000 S 
BRANCH   2   7
ATOM      3  C   UNL     1      48.185   4.868  17.797  0.00  0.00    +0.000 A 
ATOM      4  C   UNL     1      47.484   3.718  17.410  0.00  0.00    +0.000 A 
ATOM      5  C   UNL     1      47.071   3.552  16.089  0.00  0.00    +0.000 A 
ATOM      6  C   UNL     1      47.341   4.541  15.141  0.00  0.00    +0.000 A 
ATOM      7  C   UNL     1      48.028   5.702  15.503  0.00  0.00    +0.000 A 
ATOM      8  C   UNL     1      48.464   5.846  16.828  0.00  0.00    +0.000 A 
BRANCH   3   9
ATOM      9  C   UNL     1      48.582   5.080  19.236  0.00  0.00    +0.000 C 
BRANCH   9  10
ATOM     10  N   UNL     1      48.568   3.838  20.003  0.00  0.00    +0.000 NA
ATOM     11  H   UNL     1      49.522   3.498  20.095  0.00  0.00    +0.000 HD
ATOM     12  H   UNL     1      48.060   3.132  19.470  0.00  0.00    +0.000 HD
ENDBRANCH   9  10
ENDBRANCH   3   9
ENDBRANCH   2   7
ENDBRANCH   1   2
BRANCH   1  13
ATOM     13  C   UNL     1      46.463   6.944  12.408  0.00  0.00    +0.000 C 
BRANCH  13  14
ATOM     14  C   UNL     1      45.422   5.874  12.178  0.00  0.00    +0.000 A 
ATOM     15  C   UNL     1      44.386   5.681  13.105  0.00  0.00    +0.000 A 
ATOM     16  C   UNL     1      43.399   4.722  12.875  0.00  0.00    +0.000 A 
ATOM     17  C   UNL     1      43.420   3.968  11.703  0.00  0.00    +0.000 A 
ATOM     18  C   UNL     1      44.429   4.169  10.754  0.00  0.00    +0.000 A 
ATOM     19  C   UNL     1      45.443   5.101  11.007  0.00  0.00    +0.000 A 
BRANCH  18  20
ATOM     20  C   UNL     1      44.366   3.394   9.488  0.00  0.00    +0.000 C 
ATOM     21  N   UNL     1      44.272   4.107   8.323  0.00  0.00    +0.000 N 
ATOM     22  O   UNL     1      44.336   2.172   9.483  0.00  0.00    +0.000 OA
ATOM     23  H   UNL     1      44.056   5.092   8.302  0.00  0.00    +0.000 HD
ATOM     24  H   UNL     1      44.071   3.567   7.490  0.00  0.00    +0.000 HD
ENDBRANCH  18  20
ENDBRANCH  13  14
ENDBRANCH   1  13
TORSDOF 7
ENDMDL
