MODEL 1
REMARK VINA RESULT:    -8.091      0.000      0.000
REMARK INTER + INTRA:         -12.325
REMARK INTER:                 -11.402
REMARK INTRA:                  -0.923
REMARK UNBOUND:                -0.923
REMARK  Name = 
REMARK  7 active torsions:
REMARK  status: ('A' for Active; 'I' for Inactive)
REMARK    1  A    between atoms: C_2  and  C_4
REMARK    2  A    between atoms: C_7  and  N_8
REMARK    3  A    between atoms: N_8  and  C_9
REMARK    4  A    between atoms: C_9  and  C_10
REMARK    5  A    between atoms: C_10  and  C_11
REMARK    6  A    between atoms: C_15  and  O_16
REMARK    7  A    between atoms: O_16  and  C_17
REMARK                            x       y       z     vdW  Elec       q    Type
REMARK                         _______ _______ _______ _____ _____    ______ ____
ROOT
ATOM      1  N   UNL     1      43.747   4.806  10.099  0.00  0.00    +0.000 N 
ATOM      2  H   UNL     1      43.085   5.358   9.558  0.00  0.00    +0.000 HD
ENDROOT
BRANCH   1   6
ATOM      3  C   UNL     1      46.408   2.505   7.757  0.00  0.00    +0.000 A 
ATOM      4  C   UNL     1      45.524   1.863   8.626  0.00  0.00    +0.000 A 
ATOM      5  C   UNL     1      44.624   2.614   9.390  0.00  0.00    +0.000 A 
ATOM      6  C   UNL     1      44.562   4.010   9.286  0.00  0.00    +0.000 A 
ATOM      7  C   UNL     1      45.463   4.642   8.419  0.00  0.00    +0.000 A 
ATOM      8  C   UNL     1      46.381   3.898   7.661  0.00  0.00    +0.000 A 
BRANCH   3  10
ATOM      9  N   UNL     1      48.473   2.450   6.465  0.00  0.00    +0.000 N 
ATOM     10  C   UNL     1      47.413   1.747   6.972  0.00  0.00    +0.000 C 
ATOM     11  O   UNL     1      47.322   0.538   6.800  0.00  0.00    +0.000 OA
ATOM     12  H   UNL     1      49.196   1.907   6.009  0.00  0.00    +0.000 HD
ATOM     13  H   UNL     1      48.712   3.376   6.787  0.00  0.00    +0.000 HD
ENDBRANCH   3  10
ENDBRANCH   1   6
BRANCH   1  14
ATOM     14  C   UNL     1      43.228   4.269  11.355  0.00  0.00    +0.000 C 
BRANCH  14  15
ATOM     15  C   UNL     1      43.339   5.295  12.485  0.00  0.00    +0.000 C 
BRANCH  15  16
ATOM     16  C   UNL     1      44.785   5.599  12.804  0.00  0.00    +0.000 A 
ATOM     17  C   UNL     1      45.380   6.780  12.343  0.00  0.00    +0.000 A 
ATOM     18  C   UNL     1      46.723   7.045  12.613  0.00  0.00    +0.000 A 
ATOM     19  C   UNL     1      47.492   6.131  13.338  0.00  0.00    +0.000 A 
ATOM     20  C   UNL     1      46.915   4.947  13.789  0.00  0.00    +0.000 A 
ATOM     21  C   UNL     1      45.566   4.686  13.526  0.00  0.00    +0.000 A 
BRANCH  20  22
ATOM     22  O   UNL     1      47.565   3.991  14.526  0.00  0.00    +0.000 OA
BRANCH  22  23
ATOM     23  C   UNL     1      47.333   3.920  15.951  0.00  0.00    +0.000 C 
ATOM     24  C   UNL     1      48.105   4.925  16.837  0.00  0.00    +0.000 C 
ATOM     25  C   UNL     1      48.530   3.769  17.751  0.00  0.00    +0.000 C 
ATOM     26  C   UNL     1      48.110   2.782  16.656  0.00  0.00    +0.000 C 
ENDBRANCH  22  23
ENDBRANCH  20  22
ENDBRANCH  15  16
ENDBRANCH  14  15
ENDBRANCH   1  14
TORSDOF 7
ENDMDL
MODEL 2
REMARK VINA RESULT:    -7.494      1.924      3.375
REMARK INTER + INTRA:         -11.484
REMARK INTER:                 -10.361
REMARK INTRA:                  -1.123
REMARK UNBOUND:                -0.923
REMARK  Name = 
REMARK  7 active torsions:
REMARK  status: ('A' for Active; 'I' for Inactive)
REMARK    1  A    between atoms: C_2  and  C_4
REMARK    2  A    between atoms: C_7  and  N_8
REMARK    3  A    between atoms: N_8  and  C_9
REMARK    4  A    between atoms: C_9  and  C_10
REMARK    5  A    between atoms: C_10  and  C_11
REMARK    6  A    between atoms: C_15  and  O_16
REMARK    7  A    between atoms: O_16  and  C_17
REMARK                            x       y       z     vdW  Elec       q    Type
REMARK                         _______ _______ _______ _____ _____    ______ ____
ROOT
ATOM      1  N   UNL     1      43.735   4.929   9.939  0.00  0.00    +0.000 N 
ATOM      2  H   UNL     1      43.249   5.564   9.309  0.00  0.00    +0.000 HD
ENDROOT
BRANCH   1   6
ATOM      3  C   UNL     1      46.276   2.187   7.968  0.00  0.00    +0.000 A 
ATOM      4  C   UNL     1      45.317   1.714   8.866  0.00  0.00    +0.000 A 
ATOM      5  C   UNL     1      44.456   2.613   9.507  0.00  0.00    +0.000 A 
ATOM      6  C   UNL     1      44.509   3.989   9.250  0.00  0.00    +0.000 A 
ATOM      7  C   UNL     1      45.484   4.451   8.357  0.00  0.00    +0.000 A 
ATOM      8  C   UNL     1      46.364   3.559   7.721  0.00  0.00    +0.000 A 
BRANCH   3  10
ATOM      9  N   UNL     1      46.975  -0.069   7.368  0.00  0.00    +0.000 N 
ATOM     10  C   UNL     1      47.241   1.272   7.310  0.00  0.00    +0.000 C 
ATOM     11  O   UNL     1      48.226   1.692   6.715  0.00  0.00    +0.000 OA
ATOM     12  H   UNL     1      47.591  -0.673   6.840  0.00  0.00    +0.000 HD
ATOM     13  H   UNL     1      46.068  -0.430   7.624  0.00  0.00    +0.000 HD
ENDBRANCH   3  10
ENDBRANCH   1   6
BRANCH   1  14
ATOM     14  C   UNL     1      42.975   4.521  11.118  0.00  0.00    +0.000 C 
BRANCH  14  15
ATOM     15  C   UNL     1      43.206   5.481  12.288  0.00  0.00    +0.000 C 
BRANCH  15  16
ATOM     16  C   UNL     1      44.651   5.460  12.732  0.00  0.00    +0.000 A 
ATOM     17  C   UNL     1      45.275   4.250  13.061  0.00  0.00    +0.000 A 
ATOM     18  C   UNL     1      46.599   4.237  13.500  0.00  0.00    +0.000 A 
ATOM     19  C   UNL     1      47.316   5.430  13.624  0.00  0.00    +0.000 A 
ATOM     20  C   UNL     1      46.701   6.641  13.313  0.00  0.00    +0.000 A 
ATOM     21  C   UNL     1      45.376   6.653  12.865  0.00  0.00    +0.000 A 
BRANCH  20  22
ATOM     22  O   UNL     1      47.311   7.867  13.376  0.00  0.00    +0.000 OA
BRANCH  22  23
ATOM     23  C   UNL     1      47.837   8.456  12.166  0.00  0.00    +0.000 C 
ATOM     24  C   UNL     1      49.085   7.785  11.546  0.00  0.00    +0.000 C 
ATOM     25  C   UNL     1      49.755   9.162  11.445  0.00  0.00    +0.000 C 
ATOM     26  C   UNL     1      48.700   9.718  12.407  0.00  0.00    +0.000 C 
ENDBRANCH  22  23
ENDBRANCH  20  22
ENDBRANCH  15  16
ENDBRANCH  14  15
ENDBRANCH   1  14
TORSDOF 7
ENDMDL
MODEL 3
REMARK VINA RESULT:    -6.848      2.688      4.739
REMARK INTER + INTRA:         -10.573
REMARK INTER:                  -9.443
REMARK INTRA:                  -1.131
REMARK UNBOUND:                -0.923
REMARK  Name = 
REMARK  7 active torsions:
REMARK  status: ('A' for Active; 'I' for Inactive)
REMARK    1  A    between atoms: C_2  and  C_4
REMARK    2  A    between atoms: C_7  and  N_8
REMARK    3  A    between atoms: N_8  and  C_9
REMARK    4  A    between atoms: C_9  and  C_10
REMARK    5  A    between atoms: C_10  and  C_11
REMARK    6  A    between atoms: C_15  and  O_16
REMARK    7  A    between atoms: O_16  and  C_17
REMARK                            x       y       z     vdW  Elec       q    Type
REMARK                         _______ _______ _______ _____ _____    ______ ____
ROOT
ATOM      1  N   UNL     1      43.670   3.405  10.613  0.00  0.00    +0.000 N 
ATOM      2  H   UNL     1      42.736   3.173  10.284  0.00  0.00    +0.000 HD
ENDROOT
BRANCH   1   6
ATOM      3  C   UNL     1      46.415   2.843   7.450  0.00  0.00    +0.000 A 
ATOM      4  C   UNL     1      46.082   4.138   7.850  0.00  0.00    +0.000 A 
ATOM      5  C   UNL     1      45.191   4.334   8.910  0.00  0.00    +0.000 A 
ATOM      6  C   UNL     1      44.637   3.256   9.613  0.00  0.00    +0.000 A 
ATOM      7  C   UNL     1      44.971   1.962   9.193  0.00  0.00    +0.000 A 
ATOM      8  C   UNL     1      45.851   1.753   8.118  0.00  0.00    +0.000 A 
BRANCH   3  10
ATOM      9  N   UNL     1      48.662   2.620   6.531  0.00  0.00    +0.000 N 
ATOM     10  C   UNL     1      47.314   2.593   6.295  0.00  0.00    +0.000 C 
ATOM     11  O   UNL     1      46.877   2.347   5.178  0.00  0.00    +0.000 OA
ATOM     12  H   UNL     1      49.259   2.360   5.757  0.00  0.00    +0.000 HD
ATOM     13  H   UNL     1      49.049   2.572   7.462  0.00  0.00    +0.000 HD
ENDBRANCH   3  10
ENDBRANCH   1   6
BRANCH   1  14
ATOM     14  C   UNL     1      43.970   2.987  11.980  0.00  0.00    +0.000 C 
BRANCH  14  15
ATOM     15  C   UNL     1      43.840   4.156  12.960  0.00  0.00    +0.000 C 
BRANCH  15  16
ATOM     16  C   UNL     1      44.689   5.329  12.523  0.00  0.00    +0.000 A 
ATOM     17  C   UNL     1      46.086   5.263  12.604  0.00  0.00    +0.000 A 
ATOM     18  C   UNL     1      46.865   6.358  12.228  0.00  0.00    +0.000 A 
ATOM     19  C   UNL     1      46.262   7.534  11.776  0.00  0.00    +0.000 A 
ATOM     20  C   UNL     1      44.874   7.616  11.706  0.00  0.00    +0.000 A 
ATOM     21  C   UNL     1      44.093   6.515  12.073  0.00  0.00    +0.000 A 
BRANCH  20  22
ATOM     22  O   UNL     1      44.176   8.708  11.257  0.00  0.00    +0.000 OA
BRANCH  22  23
ATOM     23  C   UNL     1      44.902   9.847  10.744  0.00  0.00    +0.000 C 
ATOM     24  C   UNL     1      45.100  11.042  11.705  0.00  0.00    +0.000 C 
ATOM     25  C   UNL     1      44.606  11.990  10.604  0.00  0.00    +0.000 C 
ATOM     26  C   UNL     1      44.052  10.778   9.846  0.00  0.00    +0.000 C 
ENDBRANCH  22  23
ENDBRANCH  20  22
ENDBRANCH  15  16
ENDBRANCH  14  15
ENDBRANCH   1  14
TORSDOF 7
ENDMDL
MODEL 4
REMARK VINA RESULT:    -6.741      2.577      7.716
REMARK INTER + INTRA:         -10.422
REMARK INTER:                  -9.675
REMARK INTRA:                  -0.747
REMARK UNBOUND:                -0.923
REMARK  Name = 
REMARK  7 active torsions:
REMARK  status: ('A' for Active; 'I' for Inactive)
REMARK    1  A    between atoms: C_2  and  C_4
REMARK    2  A    between atoms: C_7  and  N_8
REMARK    3  A    between atoms: N_8  and  C_9
REMARK    4  A    between atoms: C_9  and  C_10
REMARK    5  A    between atoms: C_10  and  C_11
REMARK    6  A    between atoms: C_15  and  O_16
REMARK    7  A    between atoms: O_16  and  C_17
REMARK                            x       y       z     vdW  Elec       q    Type
REMARK                         _______ _______ _______ _____ _____    ______ ____
ROOT
ATOM      1  N   UNL     1      47.348   7.271  13.141  0.00  0.00    +0.000 N 
ATOM      2  H   UNL     1      48.020   8.026  13.262  0.00  0.00    +0.000 HD
ENDROOT
BRANCH   1   6
ATOM      3  C   UNL     1      47.801   4.177  15.983  0.00  0.00    +0.000 A 
ATOM      4  C   UNL     1      48.456   5.393  16.179  0.00  0.00    +0.000 A 
ATOM      5  C   UNL     1      48.296   6.431  15.255  0.00  0.00    +0.000 A 
ATOM      6  C   UNL     1      47.461   6.296  14.138  0.00  0.00    +0.000 A 
ATOM      7  C   UNL     1      46.819   5.065  13.947  0.00  0.00    +0.000 A 
ATOM      8  C   UNL     1      46.987   4.011  14.859  0.00  0.00    +0.000 A 
BRANCH   3  10
ATOM      9  N   UNL     1      46.959   2.741  17.764  0.00  0.00    +0.000 N 
ATOM     10  C   UNL     1      47.989   3.034  16.911  0.00  0.00    +0.000 C 
ATOM     11  O   UNL     1      49.010   2.357  16.904  0.00  0.00    +0.000 OA
ATOM     12  H   UNL     1      47.064   1.907  18.327  0.00  0.00    +0.000 HD
ATOM     13  H   UNL     1      46.028   3.107  17.632  0.00  0.00    +0.000 HD
ENDBRANCH   3  10
ENDBRANCH   1   6
BRANCH   1  14
ATOM     14  C   UNL     1      47.105   6.870  11.757  0.00  0.00    +0.000 C 
BRANCH  14  15
ATOM     15  C   UNL     1      45.608   6.872  11.433  0.00  0.00    +0.000 C 
BRANCH  15  16
ATOM     16  C   UNL     1      45.228   5.660  10.612  0.00  0.00    +0.000 A 
ATOM     17  C   UNL     1      44.278   4.749  11.090  0.00  0.00    +0.000 A 
ATOM     18  C   UNL     1      43.951   3.616  10.343  0.00  0.00    +0.000 A 
ATOM     19  C   UNL     1      44.574   3.373   9.116  0.00  0.00    +0.000 A 
ATOM     20  C   UNL     1      45.531   4.265   8.639  0.00  0.00    +0.000 A 
ATOM     21  C   UNL     1      45.852   5.406   9.383  0.00  0.00    +0.000 A 
BRANCH  20  22
ATOM     22  O   UNL     1      46.188   4.141   7.441  0.00  0.00    +0.000 OA
BRANCH  22  23
ATOM     23  C   UNL     1      46.218   2.855   6.783  0.00  0.00    +0.000 C 
ATOM     24  C   UNL     1      47.331   1.872   7.216  0.00  0.00    +0.000 C 
ATOM     25  C   UNL     1      47.675   1.636   5.739  0.00  0.00    +0.000 C 
ATOM     26  C   UNL     1      46.864   2.885   5.377  0.00  0.00    +0.000 C 
ENDBRANCH  22  23
ENDBRANCH  20  22
ENDBRANCH  15  16
ENDBRANCH  14  15
ENDBRANCH   1  14
TORSDOF 7
ENDMDL
MODEL 5
REMARK VINA RESULT:    -6.734      1.665      2.238
REMARK INTER + INTRA:         -10.413
REMARK INTER:                  -9.370
REMARK INTRA:                  -1.043
REMARK UNBOUND:                -0.923
REMARK  Name = 
REMARK  7 active torsions:
REMARK  status: ('A' for Active; 'I' for Inactive)
REMARK    1  A    between atoms: C_2  and  C_4
REMARK    2  A    between atoms: C_7  and  N_8
REMARK    3  A    between atoms: N_8  and  C_9
REMARK    4  A    between atoms: C_9  and  C_10
REMARK    5  A    between atoms: C_10  and  C_11
REMARK    6  A    between atoms: C_15  and  O_16
REMARK    7  A    between atoms: O_16  and  C_17
REMARK                            x       y       z     vdW  Elec       q    Type
REMARK                         _______ _______ _______ _____ _____    ______ ____
ROOT
ATOM      1  N   UNL     1      42.985   3.695  11.179  0.00  0.00    +0.000 N 
ATOM      2  H   UNL     1      42.434   2.853  11.334  0.00  0.00    +0.000 HD
ENDROOT
BRANCH   1   6
ATOM      3  C   UNL     1      45.823   3.003   8.125  0.00  0.00    +0.000 A 
ATOM      4  C   UNL     1      45.458   4.312   8.441  0.00  0.00    +0.000 A 
ATOM      5  C   UNL     1      44.535   4.553   9.466  0.00  0.00    +0.000 A 
ATOM      6  C   UNL     1      43.980   3.506  10.214  0.00  0.00    +0.000 A 
ATOM      7  C   UNL     1      44.347   2.196   9.877  0.00  0.00    +0.000 A 
ATOM      8  C   UNL     1      45.259   1.944   8.840  0.00  0.00    +0.000 A 
BRANCH   3  10
ATOM      9  N   UNL     1      47.655   1.689   7.198  0.00  0.00    +0.000 N 
ATOM     10  C   UNL     1      46.757   2.705   7.010  0.00  0.00    +0.000 C 
ATOM     11  O   UNL     1      46.716   3.319   5.952  0.00  0.00    +0.000 OA
ATOM     12  H   UNL     1      48.223   1.437   6.400  0.00  0.00    +0.000 HD
ATOM     13  H   UNL     1      47.557   1.011   7.939  0.00  0.00    +0.000 HD
ENDBRANCH   3  10
ENDBRANCH   1   6
BRANCH   1  14
ATOM     14  C   UNL     1      43.274   4.478  12.377  0.00  0.00    +0.000 C 
BRANCH  14  15
ATOM     15  C   UNL     1      44.653   4.134  12.946  0.00  0.00    +0.000 C 
BRANCH  15  16
ATOM     16  C   UNL     1      45.519   5.368  13.059  0.00  0.00    +0.000 A 
ATOM     17  C   UNL     1      45.039   6.613  12.633  0.00  0.00    +0.000 A 
ATOM     18  C   UNL     1      45.851   7.745  12.710  0.00  0.00    +0.000 A 
ATOM     19  C   UNL     1      47.154   7.648  13.205  0.00  0.00    +0.000 A 
ATOM     20  C   UNL     1      47.647   6.413  13.618  0.00  0.00    +0.000 A 
ATOM     21  C   UNL     1      46.829   5.280  13.549  0.00  0.00    +0.000 A 
BRANCH  20  22
ATOM     22  O   UNL     1      48.898   6.204  14.140  0.00  0.00    +0.000 OA
BRANCH  22  23
ATOM     23  C   UNL     1      49.275   6.879  15.360  0.00  0.00    +0.000 C 
ATOM     24  C   UNL     1      50.775   7.211  15.542  0.00  0.00    +0.000 C 
ATOM     25  C   UNL     1      50.723   6.601  16.949  0.00  0.00    +0.000 C 
ATOM     26  C   UNL     1      49.388   5.941  16.586  0.00  0.00    +0.000 C 
ENDBRANCH  22  23
ENDBRANCH  20  22
ENDBRANCH  15  16
ENDBRANCH  14  15
ENDBRANCH   1  14
TORSDOF 7
ENDMDL
MODEL 6
REMARK VINA RESULT:    -6.611      2.576      3.158
REMARK INTER + INTRA:         -10.239
REMARK INTER:                  -9.451
REMARK INTRA:                  -0.788
REMARK UNBOUND:                -0.923
REMARK  Name = 
REMARK  7 active torsions:
REMARK  status: ('A' for Active; 'I' for Inactive)
REMARK    1  A    between atoms: C_2  and  C_4
REMARK    2  A    between atoms: C_7  and  N_8
REMARK    3  A    between atoms: N_8  and  C_9
REMARK    4  A    between atoms: C_9  and  C_10
REMARK    5  A    between atoms: C_10  and  C_11
REMARK    6  A    between atoms: C_15  and  O_16
REMARK    7  A    between atoms: O_16  and  C_17
REMARK                            x       y       z     vdW  Elec       q    Type
REMARK                         _______ _______ _______ _____ _____    ______ ____
ROOT
ATOM      1  N   UNL     1      43.748   3.883  10.383  0.00  0.00    +0.000 N 
ATOM      2  H   UNL     1      43.439   3.156  11.025  0.00  0.00    +0.000 HD
ENDROOT
BRANCH   1   6
ATOM      3  C   UNL     1      46.516   2.515   7.498  0.00  0.00    +0.000 A 
ATOM      4  C   UNL     1      45.907   1.599   8.355  0.00  0.00    +0.000 A 
ATOM      5  C   UNL     1      44.973   2.038   9.300  0.00  0.00    +0.000 A 
ATOM      6  C   UNL     1      44.603   3.387   9.393  0.00  0.00    +0.000 A 
ATOM      7  C   UNL     1      45.231   4.298   8.534  0.00  0.00    +0.000 A 
ATOM      8  C   UNL     1      46.183   3.869   7.594  0.00  0.00    +0.000 A 
BRANCH   3  10
ATOM      9  N   UNL     1      47.900   2.996   5.550  0.00  0.00    +0.000 N 
ATOM     10  C   UNL     1      47.551   2.096   6.520  0.00  0.00    +0.000 C 
ATOM     11  O   UNL     1      48.096   1.001   6.586  0.00  0.00    +0.000 OA
ATOM     12  H   UNL     1      48.668   2.732   4.947  0.00  0.00    +0.000 HD
ATOM     13  H   UNL     1      47.663   3.975   5.610  0.00  0.00    +0.000 HD
ENDBRANCH   3  10
ENDBRANCH   1   6
BRANCH   1  14
ATOM     14  C   UNL     1      44.022   5.179  10.997  0.00  0.00    +0.000 C 
BRANCH  14  15
ATOM     15  C   UNL     1      45.225   5.102  11.942  0.00  0.00    +0.000 C 
BRANCH  15  16
ATOM     16  C   UNL     1      45.866   6.460  12.118  0.00  0.00    +0.000 A 
ATOM     17  C   UNL     1      45.124   7.535  12.623  0.00  0.00    +0.000 A 
ATOM     18  C   UNL     1      45.710   8.795  12.756  0.00  0.00    +0.000 A 
ATOM     19  C   UNL     1      47.040   9.000  12.380  0.00  0.00    +0.000 A 
ATOM     20  C   UNL     1      47.783   7.941  11.863  0.00  0.00    +0.000 A 
ATOM     21  C   UNL     1      47.198   6.677  11.738  0.00  0.00    +0.000 A 
BRANCH  20  22
ATOM     22  O   UNL     1      49.098   8.021  11.483  0.00  0.00    +0.000 OA
BRANCH  22  23
ATOM     23  C   UNL     1      50.130   7.936  12.491  0.00  0.00    +0.000 C 
ATOM     24  C   UNL     1      49.705   7.423  13.887  0.00  0.00    +0.000 C 
ATOM     25  C   UNL     1      50.422   8.619  14.527  0.00  0.00    +0.000 C 
ATOM     26  C   UNL     1      50.472   9.293  13.152  0.00  0.00    +0.000 C 
ENDBRANCH  22  23
ENDBRANCH  20  22
ENDBRANCH  15  16
ENDBRANCH  14  15
ENDBRANCH   1  14
TORSDOF 7
ENDMDL
MODEL 7
REMARK VINA RESULT:    -6.609      3.607      8.319
REMARK INTER + INTRA:         -10.237
REMARK INTER:                  -9.558
REMARK INTRA:                  -0.679
REMARK UNBOUND:                -0.923
REMARK  Name = 
REMARK  7 active torsions:
REMARK  status: ('A' for Active; 'I' for Inactive)
REMARK    1  A    between atoms: C_2  and  C_4
REMARK    2  A    between atoms: C_7  and  N_8
REMARK    3  A    between atoms: N_8  and  C_9
REMARK    4  A    between atoms: C_9  and  C_10
REMARK    5  A    between atoms: C_10  and  C_11
REMARK    6  A    between atoms: C_15  and  O_16
REMARK    7  A    between atoms: O_16  and  C_17
REMARK                            x       y       z     vdW  Elec       q    Type
REMARK                         _______ _______ _______ _____ _____    ______ ____
ROOT
ATOM      1  N   UNL     1      46.769   4.302  15.724  0.00  0.00    +0.000 N 
ATOM      2  H   UNL     1      46.143   5.016  16.093  0.00  0.00    +0.000 HD
ENDROOT
BRANCH   1   6
ATOM      3  C   UNL     1      50.472   3.922  17.724  0.00  0.00    +0.000 A 
ATOM      4  C   UNL     1      49.999   5.191  17.389  0.00  0.00    +0.000 A 
ATOM      5  C   UNL     1      48.763   5.329  16.746  0.00  0.00    +0.000 A 
ATOM      6  C   UNL     1      47.962   4.218  16.450  0.00  0.00    +0.000 A 
ATOM      7  C   UNL     1      48.456   2.949  16.781  0.00  0.00    +0.000 A 
ATOM      8  C   UNL     1      49.702   2.799  17.411  0.00  0.00    +0.000 A 
BRANCH   3  10
ATOM      9  N   UNL     1      51.908   4.015  19.692  0.00  0.00    +0.000 N 
ATOM     10  C   UNL     1      51.801   3.731  18.356  0.00  0.00    +0.000 C 
ATOM     11  O   UNL     1      52.763   3.311  17.726  0.00  0.00    +0.000 OA
ATOM     12  H   UNL     1      52.793   3.795  20.129  0.00  0.00    +0.000 HD
ATOM     13  H   UNL     1      51.100   4.120  20.288  0.00  0.00    +0.000 HD
ENDBRANCH   3  10
ENDBRANCH   1   6
BRANCH   1  14
ATOM     14  C   UNL     1      46.795   4.191  14.268  0.00  0.00    +0.000 C 
BRANCH  14  15
ATOM     15  C   UNL     1      46.336   5.491  13.603  0.00  0.00    +0.000 C 
BRANCH  15  16
ATOM     16  C   UNL     1      45.361   5.214  12.481  0.00  0.00    +0.000 A 
ATOM     17  C   UNL     1      44.014   4.954  12.760  0.00  0.00    +0.000 A 
ATOM     18  C   UNL     1      43.122   4.669  11.725  0.00  0.00    +0.000 A 
ATOM     19  C   UNL     1      43.565   4.632  10.400  0.00  0.00    +0.000 A 
ATOM     20  C   UNL     1      44.906   4.874  10.113  0.00  0.00    +0.000 A 
ATOM     21  C   UNL     1      45.797   5.169  11.150  0.00  0.00    +0.000 A 
BRANCH  20  22
ATOM     22  O   UNL     1      45.446   4.886   8.852  0.00  0.00    +0.000 OA
BRANCH  22  23
ATOM     23  C   UNL     1      45.350   3.700   8.033  0.00  0.00    +0.000 C 
ATOM     24  C   UNL     1      45.726   2.355   8.700  0.00  0.00    +0.000 C 
ATOM     25  C   UNL     1      46.623   2.028   7.499  0.00  0.00    +0.000 C 
ATOM     26  C   UNL     1      46.551   3.500   7.077  0.00  0.00    +0.000 C 
ENDBRANCH  22  23
ENDBRANCH  20  22
ENDBRANCH  15  16
ENDBRANCH  14  15
ENDBRANCH   1  14
TORSDOF 7
ENDMDL
MODEL 8
REMARK VINA RESULT:    -6.546      2.660      7.352
REMARK INTER + INTRA:         -10.148
REMARK INTER:                  -9.302
REMARK INTRA:                  -0.846
REMARK UNBOUND:                -0.923
REMARK  Name = 
REMARK  7 active torsions:
REMARK  status: ('A' for Active; 'I' for Inactive)
REMARK    1  A    between atoms: C_2  and  C_4
REMARK    2  A    between atoms: C_7  and  N_8
REMARK    3  A    between atoms: N_8  and  C_9
REMARK    4  A    between atoms: C_9  and  C_10
REMARK    5  A    between atoms: C_10  and  C_11
REMARK    6  A    between atoms: C_15  and  O_16
REMARK    7  A    between atoms: O_16  and  C_17
REMARK                            x       y       z     vdW  Elec       q    Type
REMARK                         _______ _______ _______ _____ _____    ______ ____
ROOT
ATOM      1  N   UNL     1      47.510   7.291  13.274  0.00  0.00    +0.000 N 
ATOM      2  H   UNL     1      48.190   7.237  12.519  0.00  0.00    +0.000 HD
ENDROOT
BRANCH   1   6
ATOM      3  C   UNL     1      47.888   4.327  16.264  0.00  0.00    +0.000 A 
ATOM      4  C   UNL     1      47.099   4.075  15.141  0.00  0.00    +0.000 A 
ATOM      5  C   UNL     1      46.984   5.042  14.135  0.00  0.00    +0.000 A 
ATOM      6  C   UNL     1      47.671   6.261  14.208  0.00  0.00    +0.000 A 
ATOM      7  C   UNL     1      48.450   6.505  15.346  0.00  0.00    +0.000 A 
ATOM      8  C   UNL     1      48.558   5.549  16.369  0.00  0.00    +0.000 A 
BRANCH   3  10
ATOM      9  N   UNL     1      46.847   2.694  17.743  0.00  0.00    +0.000 N 
ATOM     10  C   UNL     1      47.991   3.351  17.376  0.00  0.00    +0.000 C 
ATOM     11  O   UNL     1      49.056   3.115  17.933  0.00  0.00    +0.000 OA
ATOM     12  H   UNL     1      46.949   1.968  18.440  0.00  0.00    +0.000 HD
ATOM     13  H   UNL     1      46.024   2.674  17.159  0.00  0.00    +0.000 HD
ENDBRANCH   3  10
ENDBRANCH   1   6
BRANCH   1  14
ATOM     14  C   UNL     1      46.167   7.703  12.873  0.00  0.00    +0.000 C 
BRANCH  14  15
ATOM     15  C   UNL     1      45.882   7.323  11.417  0.00  0.00    +0.000 C 
BRANCH  15  16
ATOM     16  C   UNL     1      44.939   6.145  11.337  0.00  0.00    +0.000 A 
ATOM     17  C   UNL     1      43.629   6.249  11.821  0.00  0.00    +0.000 A 
ATOM     18  C   UNL     1      42.770   5.150  11.773  0.00  0.00    +0.000 A 
ATOM     19  C   UNL     1      43.209   3.931  11.250  0.00  0.00    +0.000 A 
ATOM     20  C   UNL     1      44.515   3.812  10.779  0.00  0.00    +0.000 A 
ATOM     21  C   UNL     1      45.372   4.916  10.819  0.00  0.00    +0.000 A 
BRANCH  20  22
ATOM     22  O   UNL     1      45.046   2.675  10.226  0.00  0.00    +0.000 OA
BRANCH  22  23
ATOM     23  C   UNL     1      44.953   2.476   8.798  0.00  0.00    +0.000 C 
ATOM     24  C   UNL     1      46.256   2.087   8.060  0.00  0.00    +0.000 C 
ATOM     25  C   UNL     1      45.979   3.185   7.024  0.00  0.00    +0.000 C 
ATOM     26  C   UNL     1      44.946   3.791   7.982  0.00  0.00    +0.000 C 
ENDBRANCH  22  23
ENDBRANCH  20  22
ENDBRANCH  15  16
ENDBRANCH  14  15
ENDBRANCH   1  14
TORSDOF 7
ENDMDL
MODEL 9
REMARK VINA RESULT:    -6.319      3.501      7.526
REMARK INTER + INTRA:          -9.828
REMARK INTER:                  -9.113
REMARK INTRA:                  -0.715
REMARK UNBOUND:                -0.923
REMARK  Name = 
REMARK  7 active torsions:
REMARK  status: ('A' for Active; 'I' for Inactive)
REMARK    1  A    between atoms: C_2  and  C_4
REMARK    2  A    between atoms: C_7  and  N_8
REMARK    3  A    between atoms: N_8  and  C_9
REMARK    4  A    between atoms: C_9  and  C_10
REMARK    5  A    between atoms: C_10  and  C_11
REMARK    6  A    between atoms: C_15  and  O_16
REMARK    7  A    between atoms: O_16  and  C_17
REMARK                            x       y       z     vdW  Elec       q    Type
REMARK                         _______ _______ _______ _____ _____    ______ ____
ROOT
ATOM      1  N   UNL     1      46.079   6.590  13.350  0.00  0.00    +0.000 N 
ATOM      2  H   UNL     1      45.815   6.717  14.325  0.00  0.00    +0.000 HD
ENDROOT
BRANCH   1   6
ATOM      3  C   UNL     1      49.517   8.708  12.105  0.00  0.00    +0.000 A 
ATOM      4  C   UNL     1      48.299   9.379  12.216  0.00  0.00    +0.000 A 
ATOM      5  C   UNL     1      47.159   8.691  12.649  0.00  0.00    +0.000 A 
ATOM      6  C   UNL     1      47.210   7.338  13.006  0.00  0.00    +0.000 A 
ATOM      7  C   UNL     1      48.437   6.674  12.878  0.00  0.00    +0.000 A 
ATOM      8  C   UNL     1      49.583   7.350  12.428  0.00  0.00    +0.000 A 
BRANCH   3  10
ATOM      9  N   UNL     1      51.547   8.677  10.755  0.00  0.00    +0.000 N 
ATOM     10  C   UNL     1      50.735   9.388  11.598  0.00  0.00    +0.000 C 
ATOM     11  O   UNL     1      50.999  10.546  11.894  0.00  0.00    +0.000 OA
ATOM     12  H   UNL     1      52.323   9.181  10.347  0.00  0.00    +0.000 HD
ATOM     13  H   UNL     1      51.242   7.830  10.298  0.00  0.00    +0.000 HD
ENDBRANCH   3  10
ENDBRANCH   1   6
BRANCH   1  14
ATOM     14  C   UNL     1      44.964   6.487  12.413  0.00  0.00    +0.000 C 
BRANCH  14  15
ATOM     15  C   UNL     1      45.461   6.356  10.970  0.00  0.00    +0.000 C 
BRANCH  15  16
ATOM     16  C   UNL     1      45.095   5.010  10.388  0.00  0.00    +0.000 A 
ATOM     17  C   UNL     1      44.514   4.022  11.194  0.00  0.00    +0.000 A 
ATOM     18  C   UNL     1      44.205   2.770  10.661  0.00  0.00    +0.000 A 
ATOM     19  C   UNL     1      44.479   2.484   9.321  0.00  0.00    +0.000 A 
ATOM     20  C   UNL     1      45.071   3.453   8.515  0.00  0.00    +0.000 A 
ATOM     21  C   UNL     1      45.372   4.712   9.047  0.00  0.00    +0.000 A 
BRANCH  20  22
ATOM     22  O   UNL     1      45.363   3.292   7.185  0.00  0.00    +0.000 OA
BRANCH  22  23
ATOM     23  C   UNL     1      46.730   3.041   6.789  0.00  0.00    +0.000 C 
ATOM     24  C   UNL     1      46.973   2.673   5.306  0.00  0.00    +0.000 C 
ATOM     25  C   UNL     1      47.826   1.479   5.759  0.00  0.00    +0.000 C 
ATOM     26  C   UNL     1      47.243   1.630   7.168  0.00  0.00    +0.000 C 
ENDBRANCH  22  23
ENDBRANCH  20  22
ENDBRANCH  15  16
ENDBRANCH  14  15
ENDBRANCH   1  14
TORSDOF 7
ENDMDL
