MODEL 1
REMARK VINA RESULT:    -7.949      0.000      0.000
REMARK INTER + INTRA:         -10.740
REMARK INTER:                 -10.273
REMARK INTRA:                  -0.467
REMARK UNBOUND:                -0.467
REMARK  Name = 
REMARK  7 active torsions:
REMARK  status: ('A' for Active; 'I' for Inactive)
REMARK    1  A    between atoms: C_1  and  N_2
REMARK    2  A    between atoms: N_2  and  C_3
REMARK    3  A    between atoms: C_3  and  C_4
REMARK    4  A    between atoms: C_8  and  C_9
REMARK    5  A    between atoms: C_9  and  N_10
REMARK    6  A    between atoms: N_10  and  C_11
REMARK    7  A    between atoms: C_19  and  C_21
REMARK                            x       y       z     vdW  Elec       q    Type
REMARK                         _______ _______ _______ _____ _____    ______ ____
ROOT
ATOM      1  C   UNL     1      48.176   5.878  15.278  0.00  0.00    +0.000 C 
ENDROOT
BRANCH   1   2
ATOM      2  C   UNL     1      48.018   6.461  13.893  0.00  0.00    +0.000 A 
ATOM      3  C   UNL     1      49.132   7.001  13.240  0.00  0.00    +0.000 A 
ATOM      4  C   UNL     1      48.993   7.586  11.984  0.00  0.00    +0.000 A 
ATOM      5  C   UNL     1      47.755   7.575  11.341  0.00  0.00    +0.000 A 
ATOM      6  C   UNL     1      46.634   6.973  11.937  0.00  0.00    +0.000 A 
ATOM      7  C   UNL     1      46.766   6.464  13.239  0.00  0.00    +0.000 A 
BRANCH   6   8
ATOM      8  C   UNL     1      45.380   6.728  11.106  0.00  0.00    +0.000 C 
BRANCH   8   9
ATOM      9  N   UNL     1      44.733   5.413  11.225  0.00  0.00    +0.000 N 
ATOM     10  C   UNL     1      43.381   5.328  11.765  0.00  0.00    +0.000 C 
ATOM     11  C   UNL     1      44.983   4.599  10.093  0.00  0.00    +0.000 A 
ATOM     12  C   UNL     1      44.428   3.320   9.972  0.00  0.00    +0.000 A 
ATOM     13  C   UNL     1      44.635   2.560   8.817  0.00  0.00    +0.000 A 
ATOM     14  C   UNL     1      45.428   3.067   7.803  0.00  0.00    +0.000 A 
ATOM     15  C   UNL     1      45.988   4.312   8.000  0.00  0.00    +0.000 A 
ATOM     16  N   UNL     1      45.780   5.070   9.105  0.00  0.00    +0.000 NA
ENDBRANCH   8   9
ENDBRANCH   6   8
ENDBRANCH   1   2
BRANCH   1  18
ATOM     17  C   UNL     1      46.813   3.862  14.546  0.00  0.00    +0.000 C 
ATOM     18  N   UNL     1      47.458   4.638  15.599  0.00  0.00    +0.000 N 
ATOM     19  C   UNL     1      47.270   4.150  16.912  0.00  0.00    +0.000 C 
ATOM     20  O   UNL     1      46.635   3.115  17.112  0.00  0.00    +0.000 OA
BRANCH  19  21
ATOM     21  C   UNL     1      47.808   4.900  18.054  0.00  0.00    +0.000 A 
ATOM     22  C   UNL     1      47.060   5.727  18.875  0.00  0.00    +0.000 A 
ATOM     23  S   UNL     1      47.957   6.425  20.150  0.00  0.00    +0.000 S 
ATOM     24  C   UNL     1      49.336   5.517  19.745  0.00  0.00    +0.000 A 
ATOM     25  N   UNL     1      50.453   5.564  20.516  0.00  0.00    +0.000 NA
ATOM     26  C   UNL     1      51.392   4.764  20.133  0.00  0.00    +0.000 A 
ATOM     27  N   UNL     1      51.327   3.952  19.029  0.00  0.00    +0.000 N 
ATOM     28  C   UNL     1      50.271   3.975  18.141  0.00  0.00    +0.000 A 
ATOM     29  O   UNL     1      50.351   3.417  17.054  0.00  0.00    +0.000 OA
ATOM     30  C   UNL     1      49.143   4.770  18.599  0.00  0.00    +0.000 A 
ATOM     31  H   UNL     1      52.122   3.397  18.750  0.00  0.00    +0.000 HD
ENDBRANCH  19  21
ENDBRANCH   1  18
TORSDOF 5
ENDMDL
MODEL 2
REMARK VINA RESULT:    -7.907      2.235      3.743
REMARK INTER + INTRA:         -10.685
REMARK INTER:                 -10.634
REMARK INTRA:                  -0.051
REMARK UNBOUND:                -0.467
REMARK  Name = 
REMARK  7 active torsions:
REMARK  status: ('A' for Active; 'I' for Inactive)
REMARK    1  A    between atoms: C_1  and  N_2
REMARK    2  A    between atoms: N_2  and  C_3
REMARK    3  A    between atoms: C_3  and  C_4
REMARK    4  A    between atoms: C_8  and  C_9
REMARK    5  A    between atoms: C_9  and  N_10
REMARK    6  A    between atoms: N_10  and  C_11
REMARK    7  A    between atoms: C_19  and  C_21
REMARK                            x       y       z     vdW  Elec       q    Type
REMARK                         _______ _______ _______ _____ _____    ______ ____
ROOT
ATOM      1  C   UNL     1      46.226   4.608  14.305  0.00  0.00    +0.000 C 
ENDROOT
BRANCH   1   2
ATOM      2  C   UNL     1      45.199   4.505  13.201  0.00  0.00    +0.000 A 
ATOM      3  C   UNL     1      44.077   5.343  13.220  0.00  0.00    +0.000 A 
ATOM      4  C   UNL     1      43.099   5.226  12.238  0.00  0.00    +0.000 A 
ATOM      5  C   UNL     1      43.265   4.320  11.189  0.00  0.00    +0.000 A 
ATOM      6  C   UNL     1      44.416   3.519  11.100  0.00  0.00    +0.000 A 
ATOM      7  C   UNL     1      45.354   3.583  12.143  0.00  0.00    +0.000 A 
BRANCH   6   8
ATOM      8  C   UNL     1      44.701   2.753   9.813  0.00  0.00    +0.000 C 
BRANCH   8   9
ATOM      9  N   UNL     1      45.190   3.522   8.659  0.00  0.00    +0.000 N 
ATOM     10  C   UNL     1      45.651   4.891   8.856  0.00  0.00    +0.000 C 
ATOM     11  C   UNL     1      45.995   2.731   7.803  0.00  0.00    +0.000 A 
ATOM     12  C   UNL     1      46.603   3.271   6.664  0.00  0.00    +0.000 A 
ATOM     13  C   UNL     1      47.447   2.488   5.869  0.00  0.00    +0.000 A 
ATOM     14  C   UNL     1      47.649   1.159   6.196  0.00  0.00    +0.000 A 
ATOM     15  C   UNL     1      46.983   0.671   7.301  0.00  0.00    +0.000 A 
ATOM     16  N   UNL     1      46.179   1.422   8.093  0.00  0.00    +0.000 NA
ENDBRANCH   8   9
ENDBRANCH   6   8
ENDBRANCH   1   2
BRANCH   1  18
ATOM     17  C   UNL     1      47.559   6.212  12.853  0.00  0.00    +0.000 C 
ATOM     18  N   UNL     1      47.347   5.540  14.130  0.00  0.00    +0.000 N 
ATOM     19  C   UNL     1      48.323   5.797  15.119  0.00  0.00    +0.000 C 
ATOM     20  O   UNL     1      49.252   6.572  14.897  0.00  0.00    +0.000 OA
BRANCH  19  21
ATOM     21  C   UNL     1      48.250   5.109  16.414  0.00  0.00    +0.000 A 
ATOM     22  C   UNL     1      48.259   3.733  16.576  0.00  0.00    +0.000 A 
ATOM     23  S   UNL     1      48.212   3.232  18.208  0.00  0.00    +0.000 S 
ATOM     24  C   UNL     1      48.344   4.836  18.757  0.00  0.00    +0.000 A 
ATOM     25  N   UNL     1      48.464   5.111  20.082  0.00  0.00    +0.000 NA
ATOM     26  C   UNL     1      48.636   6.364  20.347  0.00  0.00    +0.000 A 
ATOM     27  N   UNL     1      48.659   7.366  19.409  0.00  0.00    +0.000 N 
ATOM     28  C   UNL     1      48.402   7.148  18.071  0.00  0.00    +0.000 A 
ATOM     29  O   UNL     1      48.200   8.086  17.309  0.00  0.00    +0.000 OA
ATOM     30  C   UNL     1      48.325   5.741  17.714  0.00  0.00    +0.000 A 
ATOM     31  H   UNL     1      48.734   8.332  19.690  0.00  0.00    +0.000 HD
ENDBRANCH  19  21
ENDBRANCH   1  18
TORSDOF 5
ENDMDL
MODEL 3
REMARK VINA RESULT:    -7.685      3.383      9.081
REMARK INTER + INTRA:         -10.398
REMARK INTER:                  -9.166
REMARK INTRA:                  -1.232
REMARK UNBOUND:                -0.467
REMARK  Name = 
REMARK  7 active torsions:
REMARK  status: ('A' for Active; 'I' for Inactive)
REMARK    1  A    between atoms: C_1  and  N_2
REMARK    2  A    between atoms: N_2  and  C_3
REMARK    3  A    between atoms: C_3  and  C_4
REMARK    4  A    between atoms: C_8  and  C_9
REMARK    5  A    between atoms: C_9  and  N_10
REMARK    6  A    between atoms: N_10  and  C_11
REMARK    7  A    between atoms: C_19  and  C_21
REMARK                            x       y       z     vdW  Elec       q    Type
REMARK                         _______ _______ _______ _____ _____    ______ ____
ROOT
ATOM      1  C   UNL     1      47.448   6.170  12.363  0.00  0.00    +0.000 C 
ENDROOT
BRANCH   1   2
ATOM      2  C   UNL     1      47.547   5.643  13.775  0.00  0.00    +0.000 A 
ATOM      3  C   UNL     1      47.074   4.358  14.068  0.00  0.00    +0.000 A 
ATOM      4  C   UNL     1      47.114   3.877  15.373  0.00  0.00    +0.000 A 
ATOM      5  C   UNL     1      47.689   4.647  16.385  0.00  0.00    +0.000 A 
ATOM      6  C   UNL     1      48.241   5.910  16.109  0.00  0.00    +0.000 A 
ATOM      7  C   UNL     1      48.116   6.420  14.807  0.00  0.00    +0.000 A 
BRANCH   6   8
ATOM      8  C   UNL     1      49.102   6.600  17.161  0.00  0.00    +0.000 C 
BRANCH   8   9
ATOM      9  N   UNL     1      48.857   6.258  18.571  0.00  0.00    +0.000 N 
ATOM     10  C   UNL     1      49.884   5.549  19.324  0.00  0.00    +0.000 C 
ATOM     11  C   UNL     1      48.221   7.317  19.265  0.00  0.00    +0.000 A 
ATOM     12  C   UNL     1      47.931   7.227  20.631  0.00  0.00    +0.000 A 
ATOM     13  C   UNL     1      47.363   8.310  21.311  0.00  0.00    +0.000 A 
ATOM     14  C   UNL     1      47.052   9.463  20.613  0.00  0.00    +0.000 A 
ATOM     15  C   UNL     1      47.316   9.474  19.259  0.00  0.00    +0.000 A 
ATOM     16  N   UNL     1      47.885   8.441  18.590  0.00  0.00    +0.000 NA
ENDBRANCH   8   9
ENDBRANCH   6   8
ENDBRANCH   1   2
BRANCH   1  18
ATOM     17  C   UNL     1      46.705   8.594  12.195  0.00  0.00    +0.000 C 
ATOM     18  N   UNL     1      46.416   7.171  12.062  0.00  0.00    +0.000 N 
ATOM     19  C   UNL     1      45.085   6.853  11.709  0.00  0.00    +0.000 C 
ATOM     20  O   UNL     1      44.264   7.744  11.494  0.00  0.00    +0.000 OA
BRANCH  19  21
ATOM     21  C   UNL     1      44.666   5.449  11.628  0.00  0.00    +0.000 A 
ATOM     22  C   UNL     1      43.916   4.794  12.591  0.00  0.00    +0.000 A 
ATOM     23  S   UNL     1      43.544   3.176  12.191  0.00  0.00    +0.000 S 
ATOM     24  C   UNL     1      44.232   3.346  10.646  0.00  0.00    +0.000 A 
ATOM     25  N   UNL     1      44.158   2.340   9.735  0.00  0.00    +0.000 NA
ATOM     26  C   UNL     1      44.652   2.638   8.580  0.00  0.00    +0.000 A 
ATOM     27  N   UNL     1      45.247   3.834   8.268  0.00  0.00    +0.000 N 
ATOM     28  C   UNL     1      45.469   4.829   9.199  0.00  0.00    +0.000 A 
ATOM     29  O   UNL     1      46.204   5.775   8.946  0.00  0.00    +0.000 OA
ATOM     30  C   UNL     1      44.821   4.584  10.477  0.00  0.00    +0.000 A 
ATOM     31  H   UNL     1      45.670   3.979   7.364  0.00  0.00    +0.000 HD
ENDBRANCH  19  21
ENDBRANCH   1  18
TORSDOF 5
ENDMDL
MODEL 4
REMARK VINA RESULT:    -7.567      3.546      8.871
REMARK INTER + INTRA:         -10.246
REMARK INTER:                  -8.974
REMARK INTRA:                  -1.272
REMARK UNBOUND:                -0.467
REMARK  Name = 
REMARK  7 active torsions:
REMARK  status: ('A' for Active; 'I' for Inactive)
REMARK    1  A    between atoms: C_1  and  N_2
REMARK    2  A    between atoms: N_2  and  C_3
REMARK    3  A    between atoms: C_3  and  C_4
REMARK    4  A    between atoms: C_8  and  C_9
REMARK    5  A    between atoms: C_9  and  N_10
REMARK    6  A    between atoms: N_10  and  C_11
REMARK    7  A    between atoms: C_19  and  C_21
REMARK                            x       y       z     vdW  Elec       q    Type
REMARK                         _______ _______ _______ _____ _____    ______ ____
ROOT
ATOM      1  C   UNL     1      47.457   6.132  12.442  0.00  0.00    +0.000 C 
ENDROOT
BRANCH   1   2
ATOM      2  C   UNL     1      47.656   5.747  13.889  0.00  0.00    +0.000 A 
ATOM      3  C   UNL     1      47.045   4.589  14.385  0.00  0.00    +0.000 A 
ATOM      4  C   UNL     1      47.178   4.247  15.728  0.00  0.00    +0.000 A 
ATOM      5  C   UNL     1      47.979   5.020  16.571  0.00  0.00    +0.000 A 
ATOM      6  C   UNL     1      48.666   6.145  16.085  0.00  0.00    +0.000 A 
ATOM      7  C   UNL     1      48.454   6.530  14.751  0.00  0.00    +0.000 A 
BRANCH   6   8
ATOM      8  C   UNL     1      49.741   6.799  16.946  0.00  0.00    +0.000 C 
BRANCH   8   9
ATOM      9  N   UNL     1      51.007   7.162  16.290  0.00  0.00    +0.000 N 
ATOM     10  C   UNL     1      51.385   8.566  16.194  0.00  0.00    +0.000 C 
ATOM     11  C   UNL     1      52.055   6.277  16.647  0.00  0.00    +0.000 A 
ATOM     12  C   UNL     1      53.360   6.459  16.174  0.00  0.00    +0.000 A 
ATOM     13  C   UNL     1      54.392   5.613  16.591  0.00  0.00    +0.000 A 
ATOM     14  C   UNL     1      54.109   4.566  17.449  0.00  0.00    +0.000 A 
ATOM     15  C   UNL     1      52.795   4.407  17.841  0.00  0.00    +0.000 A 
ATOM     16  N   UNL     1      51.787   5.231  17.463  0.00  0.00    +0.000 NA
ENDBRANCH   8   9
ENDBRANCH   6   8
ENDBRANCH   1   2
BRANCH   1  18
ATOM     17  C   UNL     1      46.732   8.560  12.255  0.00  0.00    +0.000 C 
ATOM     18  N   UNL     1      46.437   7.138  12.121  0.00  0.00    +0.000 N 
ATOM     19  C   UNL     1      45.111   6.828  11.745  0.00  0.00    +0.000 C 
ATOM     20  O   UNL     1      44.299   7.723  11.514  0.00  0.00    +0.000 OA
BRANCH  19  21
ATOM     21  C   UNL     1      44.685   5.426  11.660  0.00  0.00    +0.000 A 
ATOM     22  C   UNL     1      43.935   4.771  12.623  0.00  0.00    +0.000 A 
ATOM     23  S   UNL     1      43.554   3.156  12.218  0.00  0.00    +0.000 S 
ATOM     24  C   UNL     1      44.238   3.328  10.672  0.00  0.00    +0.000 A 
ATOM     25  N   UNL     1      44.156   2.327   9.757  0.00  0.00    +0.000 NA
ATOM     26  C   UNL     1      44.649   2.627   8.601  0.00  0.00    +0.000 A 
ATOM     27  N   UNL     1      45.249   3.821   8.292  0.00  0.00    +0.000 N 
ATOM     28  C   UNL     1      45.478   4.811   9.226  0.00  0.00    +0.000 A 
ATOM     29  O   UNL     1      46.217   5.755   8.974  0.00  0.00    +0.000 OA
ATOM     30  C   UNL     1      44.832   4.565  10.506  0.00  0.00    +0.000 A 
ATOM     31  H   UNL     1      45.670   3.967   7.387  0.00  0.00    +0.000 HD
ENDBRANCH  19  21
ENDBRANCH   1  18
TORSDOF 5
ENDMDL
MODEL 5
REMARK VINA RESULT:    -7.489      2.585      3.422
REMARK INTER + INTRA:         -10.144
REMARK INTER:                  -8.695
REMARK INTRA:                  -1.450
REMARK UNBOUND:                -0.467
REMARK  Name = 
REMARK  7 active torsions:
REMARK  status: ('A' for Active; 'I' for Inactive)
REMARK    1  A    between atoms: C_1  and  N_2
REMARK    2  A    between atoms: N_2  and  C_3
REMARK    3  A    between atoms: C_3  and  C_4
REMARK    4  A    between atoms: C_8  and  C_9
REMARK    5  A    between atoms: C_9  and  N_10
REMARK    6  A    between atoms: N_10  and  C_11
REMARK    7  A    between atoms: C_19  and  C_21
REMARK                            x       y       z     vdW  Elec       q    Type
REMARK                         _______ _______ _______ _____ _____    ______ ____
ROOT
ATOM      1  C   UNL     1      50.513   6.977  15.966  0.00  0.00    +0.000 C 
ENDROOT
BRANCH   1   2
ATOM      2  C   UNL     1      50.030   7.480  14.626  0.00  0.00    +0.000 A 
ATOM      3  C   UNL     1      50.788   8.428  13.930  0.00  0.00    +0.000 A 
ATOM      4  C   UNL     1      50.332   8.938  12.717  0.00  0.00    +0.000 A 
ATOM      5  C   UNL     1      49.149   8.453  12.156  0.00  0.00    +0.000 A 
ATOM      6  C   UNL     1      48.405   7.447  12.793  0.00  0.00    +0.000 A 
ATOM      7  C   UNL     1      48.828   7.004  14.057  0.00  0.00    +0.000 A 
BRANCH   6   8
ATOM      8  C   UNL     1      47.284   6.746  12.034  0.00  0.00    +0.000 C 
BRANCH   8   9
ATOM      9  N   UNL     1      45.908   6.953  12.512  0.00  0.00    +0.000 N 
ATOM     10  C   UNL     1      45.152   8.106  12.038  0.00  0.00    +0.000 C 
ATOM     11  C   UNL     1      45.183   5.737  12.569  0.00  0.00    +0.000 A 
ATOM     12  C   UNL     1      43.838   5.703  12.955  0.00  0.00    +0.000 A 
ATOM     13  C   UNL     1      43.124   4.500  12.940  0.00  0.00    +0.000 A 
ATOM     14  C   UNL     1      43.768   3.331  12.577  0.00  0.00    +0.000 A 
ATOM     15  C   UNL     1      45.106   3.420  12.255  0.00  0.00    +0.000 A 
ATOM     16  N   UNL     1      45.807   4.580  12.244  0.00  0.00    +0.000 NA
ENDBRANCH   8   9
ENDBRANCH   6   8
ENDBRANCH   1   2
BRANCH   1  18
ATOM     17  C   UNL     1      49.894   8.665  17.761  0.00  0.00    +0.000 C 
ATOM     18  N   UNL     1      49.749   7.342  17.166  0.00  0.00    +0.000 N 
ATOM     19  C   UNL     1      48.900   6.453  17.863  0.00  0.00    +0.000 C 
ATOM     20  O   UNL     1      48.307   6.818  18.878  0.00  0.00    +0.000 OA
BRANCH  19  21
ATOM     21  C   UNL     1      48.746   5.070  17.395  0.00  0.00    +0.000 A 
ATOM     22  C   UNL     1      47.713   4.621  16.589  0.00  0.00    +0.000 A 
ATOM     23  S   UNL     1      47.834   2.970  16.171  0.00  0.00    +0.000 S 
ATOM     24  C   UNL     1      49.355   2.840  16.918  0.00  0.00    +0.000 A 
ATOM     25  N   UNL     1      50.075   1.690  16.838  0.00  0.00    +0.000 NA
ATOM     26  C   UNL     1      51.244   1.761  17.383  0.00  0.00    +0.000 A 
ATOM     27  N   UNL     1      51.740   2.864  18.032  0.00  0.00    +0.000 N 
ATOM     28  C   UNL     1      50.992   4.001  18.258  0.00  0.00    +0.000 A 
ATOM     29  O   UNL     1      51.379   4.865  19.036  0.00  0.00    +0.000 OA
ATOM     30  C   UNL     1      49.718   4.009  17.558  0.00  0.00    +0.000 A 
ATOM     31  H   UNL     1      52.637   2.831  18.491  0.00  0.00    +0.000 HD
ENDBRANCH  19  21
ENDBRANCH   1  18
TORSDOF 5
ENDMDL
MODEL 6
REMARK VINA RESULT:    -7.376      2.154      2.910
REMARK INTER + INTRA:          -9.998
REMARK INTER:                  -8.810
REMARK INTRA:                  -1.188
REMARK UNBOUND:                -0.467
REMARK  Name = 
REMARK  7 active torsions:
REMARK  status: ('A' for Active; 'I' for Inactive)
REMARK    1  A    between atoms: C_1  and  N_2
REMARK    2  A    between atoms: N_2  and  C_3
REMARK    3  A    between atoms: C_3  and  C_4
REMARK    4  A    between atoms: C_8  and  C_9
REMARK    5  A    between atoms: C_9  and  N_10
REMARK    6  A    between atoms: N_10  and  C_11
REMARK    7  A    between atoms: C_19  and  C_21
REMARK                            x       y       z     vdW  Elec       q    Type
REMARK                         _______ _______ _______ _____ _____    ______ ____
ROOT
ATOM      1  C   UNL     1      48.038   6.747  14.098  0.00  0.00    +0.000 C 
ENDROOT
BRANCH   1   2
ATOM      2  C   UNL     1      46.882   7.256  13.271  0.00  0.00    +0.000 A 
ATOM      3  C   UNL     1      46.567   8.620  13.289  0.00  0.00    +0.000 A 
ATOM      4  C   UNL     1      45.474   9.097  12.571  0.00  0.00    +0.000 A 
ATOM      5  C   UNL     1      44.727   8.228  11.774  0.00  0.00    +0.000 A 
ATOM      6  C   UNL     1      45.064   6.867  11.675  0.00  0.00    +0.000 A 
ATOM      7  C   UNL     1      46.113   6.382  12.471  0.00  0.00    +0.000 A 
BRANCH   6   8
ATOM      8  C   UNL     1      44.415   6.009  10.595  0.00  0.00    +0.000 C 
BRANCH   8   9
ATOM      9  N   UNL     1      44.449   4.550  10.776  0.00  0.00    +0.000 N 
ATOM     10  C   UNL     1      43.277   3.869  11.314  0.00  0.00    +0.000 C 
ATOM     11  C   UNL     1      45.078   3.899   9.686  0.00  0.00    +0.000 A 
ATOM     12  C   UNL     1      45.182   2.504   9.627  0.00  0.00    +0.000 A 
ATOM     13  C   UNL     1      45.749   1.880   8.511  0.00  0.00    +0.000 A 
ATOM     14  C   UNL     1      46.243   2.654   7.476  0.00  0.00    +0.000 A 
ATOM     15  C   UNL     1      46.157   4.024   7.614  0.00  0.00    +0.000 A 
ATOM     16  N   UNL     1      45.592   4.644   8.680  0.00  0.00    +0.000 NA
ENDBRANCH   8   9
ENDBRANCH   6   8
ENDBRANCH   1   2
BRANCH   1  18
ATOM     17  C   UNL     1      50.108   7.530  12.850  0.00  0.00    +0.000 C 
ATOM     18  N   UNL     1      49.303   7.493  14.065  0.00  0.00    +0.000 N 
ATOM     19  C   UNL     1      49.863   8.149  15.184  0.00  0.00    +0.000 C 
ATOM     20  O   UNL     1      50.941   8.735  15.092  0.00  0.00    +0.000 OA
BRANCH  19  21
ATOM     21  C   UNL     1      49.174   8.103  16.479  0.00  0.00    +0.000 A 
ATOM     22  C   UNL     1      48.318   9.084  16.950  0.00  0.00    +0.000 A 
ATOM     23  S   UNL     1      47.630   8.724  18.471  0.00  0.00    +0.000 S 
ATOM     24  C   UNL     1      48.325   7.173  18.476  0.00  0.00    +0.000 A 
ATOM     25  N   UNL     1      48.045   6.286  19.467  0.00  0.00    +0.000 NA
ATOM     26  C   UNL     1      48.579   5.122  19.299  0.00  0.00    +0.000 A 
ATOM     27  N   UNL     1      49.396   4.780  18.251  0.00  0.00    +0.000 N 
ATOM     28  C   UNL     1      49.818   5.686  17.300  0.00  0.00    +0.000 A 
ATOM     29  O   UNL     1      50.724   5.408  16.524  0.00  0.00    +0.000 OA
ATOM     30  C   UNL     1      49.145   6.973  17.383  0.00  0.00    +0.000 A 
ATOM     31  H   UNL     1      49.832   3.871  18.214  0.00  0.00    +0.000 HD
ENDBRANCH  19  21
ENDBRANCH   1  18
TORSDOF 5
ENDMDL
MODEL 7
REMARK VINA RESULT:    -7.374      3.419      8.692
REMARK INTER + INTRA:          -9.996
REMARK INTER:                  -9.134
REMARK INTRA:                  -0.862
REMARK UNBOUND:                -0.467
REMARK  Name = 
REMARK  7 active torsions:
REMARK  status: ('A' for Active; 'I' for Inactive)
REMARK    1  A    between atoms: C_1  and  N_2
REMARK    2  A    between atoms: N_2  and  C_3
REMARK    3  A    between atoms: C_3  and  C_4
REMARK    4  A    between atoms: C_8  and  C_9
REMARK    5  A    between atoms: C_9  and  N_10
REMARK    6  A    between atoms: N_10  and  C_11
REMARK    7  A    between atoms: C_19  and  C_21
REMARK                            x       y       z     vdW  Elec       q    Type
REMARK                         _______ _______ _______ _____ _____    ______ ____
ROOT
ATOM      1  C   UNL     1      46.532   6.197  12.688  0.00  0.00    +0.000 C 
ENDROOT
BRANCH   1   2
ATOM      2  C   UNL     1      47.889   6.837  12.858  0.00  0.00    +0.000 A 
ATOM      3  C   UNL     1      48.494   7.476  11.768  0.00  0.00    +0.000 A 
ATOM      4  C   UNL     1      49.765   8.028  11.896  0.00  0.00    +0.000 A 
ATOM      5  C   UNL     1      50.415   8.008  13.131  0.00  0.00    +0.000 A 
ATOM      6  C   UNL     1      49.804   7.441  14.262  0.00  0.00    +0.000 A 
ATOM      7  C   UNL     1      48.560   6.811  14.100  0.00  0.00    +0.000 A 
BRANCH   6   8
ATOM      8  C   UNL     1      50.407   7.680  15.641  0.00  0.00    +0.000 C 
BRANCH   8   9
ATOM      9  N   UNL     1      50.861   6.502  16.397  0.00  0.00    +0.000 N 
ATOM     10  C   UNL     1      52.287   6.307  16.630  0.00  0.00    +0.000 C 
ATOM     11  C   UNL     1      50.026   6.238  17.510  0.00  0.00    +0.000 A 
ATOM     12  C   UNL     1      50.295   5.189  18.396  0.00  0.00    +0.000 A 
ATOM     13  C   UNL     1      49.495   4.987  19.526  0.00  0.00    +0.000 A 
ATOM     14  C   UNL     1      48.406   5.813  19.744  0.00  0.00    +0.000 A 
ATOM     15  C   UNL     1      48.163   6.798  18.810  0.00  0.00    +0.000 A 
ATOM     16  N   UNL     1      48.940   7.020  17.721  0.00  0.00    +0.000 NA
ENDBRANCH   8   9
ENDBRANCH   6   8
ENDBRANCH   1   2
BRANCH   1  18
ATOM     17  C   UNL     1      45.427   8.463  12.372  0.00  0.00    +0.000 C 
ATOM     18  N   UNL     1      45.432   7.019  12.167  0.00  0.00    +0.000 N 
ATOM     19  C   UNL     1      44.292   6.495  11.517  0.00  0.00    +0.000 C 
ATOM     20  O   UNL     1      43.395   7.241  11.127  0.00  0.00    +0.000 OA
BRANCH  19  21
ATOM     21  C   UNL     1      44.158   5.045  11.333  0.00  0.00    +0.000 A 
ATOM     22  C   UNL     1      43.362   4.222  12.113  0.00  0.00    +0.000 A 
ATOM     23  S   UNL     1      43.375   2.586  11.623  0.00  0.00    +0.000 S 
ATOM     24  C   UNL     1      44.315   2.950  10.254  0.00  0.00    +0.000 A 
ATOM     25  N   UNL     1      44.606   1.994   9.333  0.00  0.00    +0.000 NA
ATOM     26  C   UNL     1      45.259   2.431   8.308  0.00  0.00    +0.000 A 
ATOM     27  N   UNL     1      45.678   3.727   8.141  0.00  0.00    +0.000 N 
ATOM     28  C   UNL     1      45.527   4.697   9.112  0.00  0.00    +0.000 A 
ATOM     29  O   UNL     1      46.115   5.768   9.027  0.00  0.00    +0.000 OA
ATOM     30  C   UNL     1      44.692   4.279  10.226  0.00  0.00    +0.000 A 
ATOM     31  H   UNL     1      46.240   3.988   7.345  0.00  0.00    +0.000 HD
ENDBRANCH  19  21
ENDBRANCH   1  18
TORSDOF 5
ENDMDL
MODEL 8
REMARK VINA RESULT:    -7.153      2.990      7.765
REMARK INTER + INTRA:          -9.711
REMARK INTER:                  -8.567
REMARK INTRA:                  -1.143
REMARK UNBOUND:                -0.467
REMARK  Name = 
REMARK  7 active torsions:
REMARK  status: ('A' for Active; 'I' for Inactive)
REMARK    1  A    between atoms: C_1  and  N_2
REMARK    2  A    between atoms: N_2  and  C_3
REMARK    3  A    between atoms: C_3  and  C_4
REMARK    4  A    between atoms: C_8  and  C_9
REMARK    5  A    between atoms: C_9  and  N_10
REMARK    6  A    between atoms: N_10  and  C_11
REMARK    7  A    between atoms: C_19  and  C_21
REMARK                            x       y       z     vdW  Elec       q    Type
REMARK                         _______ _______ _______ _____ _____    ______ ____
ROOT
ATOM      1  C   UNL     1      48.279   8.933  15.141  0.00  0.00    +0.000 C 
ENDROOT
BRANCH   1   2
ATOM      2  C   UNL     1      48.347   8.786  16.643  0.00  0.00    +0.000 A 
ATOM      3  C   UNL     1      47.996   9.868  17.460  0.00  0.00    +0.000 A 
ATOM      4  C   UNL     1      48.100   9.764  18.844  0.00  0.00    +0.000 A 
ATOM      5  C   UNL     1      48.490   8.557  19.427  0.00  0.00    +0.000 A 
ATOM      6  C   UNL     1      48.777   7.431  18.638  0.00  0.00    +0.000 A 
ATOM      7  C   UNL     1      48.752   7.573  17.242  0.00  0.00    +0.000 A 
BRANCH   6   8
ATOM      8  C   UNL     1      48.924   6.066  19.302  0.00  0.00    +0.000 C 
BRANCH   8   9
ATOM      9  N   UNL     1      50.137   5.291  18.997  0.00  0.00    +0.000 N 
ATOM     10  C   UNL     1      51.124   5.066  20.046  0.00  0.00    +0.000 C 
ATOM     11  C   UNL     1      49.851   4.166  18.185  0.00  0.00    +0.000 A 
ATOM     12  C   UNL     1      50.850   3.261  17.808  0.00  0.00    +0.000 A 
ATOM     13  C   UNL     1      50.533   2.121  17.062  0.00  0.00    +0.000 A 
ATOM     14  C   UNL     1      49.225   1.911  16.664  0.00  0.00    +0.000 A 
ATOM     15  C   UNL     1      48.294   2.863  17.023  0.00  0.00    +0.000 A 
ATOM     16  N   UNL     1      48.580   3.962  17.764  0.00  0.00    +0.000 NA
ENDBRANCH   8   9
ENDBRANCH   6   8
ENDBRANCH   1   2
BRANCH   1  18
ATOM     17  C   UNL     1      50.602   8.098  14.537  0.00  0.00    +0.000 C 
ATOM     18  N   UNL     1      49.161   8.095  14.317  0.00  0.00    +0.000 N 
ATOM     19  C   UNL     1      48.715   7.305  13.234  0.00  0.00    +0.000 C 
ATOM     20  O   UNL     1      49.512   6.645  12.569  0.00  0.00    +0.000 OA
BRANCH  19  21
ATOM     21  C   UNL     1      47.292   7.294  12.874  0.00  0.00    +0.000 A 
ATOM     22  C   UNL     1      46.663   8.270  12.118  0.00  0.00    +0.000 A 
ATOM     23  S   UNL     1      45.011   7.956  11.825  0.00  0.00    +0.000 S 
ATOM     24  C   UNL     1      45.119   6.426  12.559  0.00  0.00    +0.000 A 
ATOM     25  N   UNL     1      44.060   5.574  12.555  0.00  0.00    +0.000 NA
ATOM     26  C   UNL     1      44.311   4.419  13.077  0.00  0.00    +0.000 A 
ATOM     27  N   UNL     1      45.511   4.056  13.634  0.00  0.00    +0.000 N 
ATOM     28  C   UNL     1      46.566   4.933  13.784  0.00  0.00    +0.000 A 
ATOM     29  O   UNL     1      47.526   4.648  14.489  0.00  0.00    +0.000 OA
ATOM     30  C   UNL     1      46.369   6.203  13.103  0.00  0.00    +0.000 A 
ATOM     31  H   UNL     1      45.620   3.159  14.081  0.00  0.00    +0.000 HD
ENDBRANCH  19  21
ENDBRANCH   1  18
TORSDOF 5
ENDMDL
MODEL 9
REMARK VINA RESULT:    -6.978      2.595      4.592
REMARK INTER + INTRA:          -9.484
REMARK INTER:                  -7.843
REMARK INTRA:                  -1.641
REMARK UNBOUND:                -0.467
REMARK  Name = 
REMARK  7 active torsions:
REMARK  status: ('A' for Active; 'I' for Inactive)
REMARK    1  A    between atoms: C_1  and  N_2
REMARK    2  A    between atoms: N_2  and  C_3
REMARK    3  A    between atoms: C_3  and  C_4
REMARK    4  A    between atoms: C_8  and  C_9
REMARK    5  A    between atoms: C_9  and  N_10
REMARK    6  A    between atoms: N_10  and  C_11
REMARK    7  A    between atoms: C_19  and  C_21
REMARK                            x       y       z     vdW  Elec       q    Type
REMARK                         _______ _______ _______ _____ _____    ______ ____
ROOT
ATOM      1  C   UNL     1      50.365   7.913  18.854  0.00  0.00    +0.000 C 
ENDROOT
BRANCH   1   2
ATOM      2  C   UNL     1      49.690   8.364  17.581  0.00  0.00    +0.000 A 
ATOM      3  C   UNL     1      49.241   9.685  17.467  0.00  0.00    +0.000 A 
ATOM      4  C   UNL     1      48.574  10.103  16.319  0.00  0.00    +0.000 A 
ATOM      5  C   UNL     1      48.409   9.224  15.247  0.00  0.00    +0.000 A 
ATOM      6  C   UNL     1      48.915   7.915  15.300  0.00  0.00    +0.000 A 
ATOM      7  C   UNL     1      49.509   7.478  16.496  0.00  0.00    +0.000 A 
BRANCH   6   8
ATOM      8  C   UNL     1      48.970   7.077  14.027  0.00  0.00    +0.000 C 
BRANCH   8   9
ATOM      9  N   UNL     1      47.905   7.283  13.033  0.00  0.00    +0.000 N 
ATOM     10  C   UNL     1      48.208   8.000  11.800  0.00  0.00    +0.000 C 
ATOM     11  C   UNL     1      47.101   6.128  12.878  0.00  0.00    +0.000 A 
ATOM     12  C   UNL     1      46.053   6.084  11.950  0.00  0.00    +0.000 A 
ATOM     13  C   UNL     1      45.313   4.911  11.767  0.00  0.00    +0.000 A 
ATOM     14  C   UNL     1      45.600   3.799  12.539  0.00  0.00    +0.000 A 
ATOM     15  C   UNL     1      46.610   3.919  13.470  0.00  0.00    +0.000 A 
ATOM     16  N   UNL     1      47.350   5.041  13.646  0.00  0.00    +0.000 NA
ENDBRANCH   8   9
ENDBRANCH   6   8
ENDBRANCH   1   2
BRANCH   1  18
ATOM     17  C   UNL     1      48.955   8.184  20.951  0.00  0.00    +0.000 C 
ATOM     18  N   UNL     1      49.534   7.333  19.917  0.00  0.00    +0.000 N 
ATOM     19  C   UNL     1      49.296   5.949  20.069  0.00  0.00    +0.000 C 
ATOM     20  O   UNL     1      48.609   5.529  21.000  0.00  0.00    +0.000 OA
BRANCH  19  21
ATOM     21  C   UNL     1      49.901   4.996  19.130  0.00  0.00    +0.000 A 
ATOM     22  C   UNL     1      51.228   4.601  19.154  0.00  0.00    +0.000 A 
ATOM     23  S   UNL     1      51.624   3.443  17.964  0.00  0.00    +0.000 S 
ATOM     24  C   UNL     1      49.999   3.309  17.482  0.00  0.00    +0.000 A 
ATOM     25  N   UNL     1      49.621   2.394  16.551  0.00  0.00    +0.000 NA
ATOM     26  C   UNL     1      48.347   2.350  16.342  0.00  0.00    +0.000 A 
ATOM     27  N   UNL     1      47.425   3.163  16.952  0.00  0.00    +0.000 N 
ATOM     28  C   UNL     1      47.777   4.197  17.796  0.00  0.00    +0.000 A 
ATOM     29  O   UNL     1      46.956   5.041  18.133  0.00  0.00    +0.000 OA
ATOM     30  C   UNL     1      49.187   4.203  18.152  0.00  0.00    +0.000 A 
ATOM     31  H   UNL     1      46.450   3.119  16.697  0.00  0.00    +0.000 HD
ENDBRANCH  19  21
ENDBRANCH   1  18
TORSDOF 5
ENDMDL
