MODEL 1
REMARK VINA RESULT:    -8.122      0.000      0.000
REMARK INTER + INTRA:         -12.568
REMARK INTER:                 -11.446
REMARK INTRA:                  -1.122
REMARK UNBOUND:                -1.122
REMARK  Name = 
REMARK  8 active torsions:
REMARK  status: ('A' for Active; 'I' for Inactive)
REMARK    1  A    between atoms: C_1  and  C_2
REMARK    2  A    between atoms: C_2  and  N_3
REMARK    3  A    between atoms: C_2  and  C_11
REMARK    4  A    between atoms: N_3  and  C_4
REMARK    5  A    between atoms: C_4  and  C_5
REMARK    6  A    between atoms: C_14  and  C_15
REMARK    7  A    between atoms: C_15  and  N_16
REMARK    8  A    between atoms: C_17  and  C_19
REMARK                            x       y       z     vdW  Elec       q    Type
REMARK                         _______ _______ _______ _____ _____    ______ ____
ROOT
ATOM      1  C   UNL     1      45.432   4.518  11.975  0.00  0.00    +0.000 A 
ATOM      2  C   UNL     1      45.878   5.737  11.431  0.00  0.00    +0.000 A 
ATOM      3  C   UNL     1      46.861   6.499  12.068  0.00  0.00    +0.000 A 
ATOM      4  C   UNL     1      47.464   6.037  13.242  0.00  0.00    +0.000 A 
ATOM      5  C   UNL     1      47.026   4.828  13.794  0.00  0.00    +0.000 A 
ATOM      6  C   UNL     1      46.017   4.081  13.172  0.00  0.00    +0.000 A 
ENDROOT
BRANCH   1   8
ATOM      7  C   UNL     1      43.579   4.614  10.220  0.00  0.00    +0.000 C 
ATOM      8  C   UNL     1      44.293   3.770  11.286  0.00  0.00    +0.000 C 
BRANCH   8   9
ATOM      9  N   UNL     1      44.732   2.505  10.660  0.00  0.00    +0.000 NA
ATOM     10  H   UNL     1      44.234   1.731  11.096  0.00  0.00    +0.000 HD
BRANCH   9  11
ATOM     11  C   UNL     1      44.475   2.483   9.219  0.00  0.00    +0.000 C 
BRANCH  11  12
ATOM     12  C   UNL     1      45.715   2.342   8.371  0.00  0.00    +0.000 A 
ATOM     13  C   UNL     1      46.221   1.061   8.113  0.00  0.00    +0.000 A 
ATOM     14  C   UNL     1      47.320   0.926   7.280  0.00  0.00    +0.000 A 
ATOM     15  N   UNL     1      47.939   1.968   6.689  0.00  0.00    +0.000 NA
ATOM     16  C   UNL     1      47.428   3.195   6.938  0.00  0.00    +0.000 A 
ATOM     17  C   UNL     1      46.332   3.432   7.752  0.00  0.00    +0.000 A 
ENDBRANCH  11  12
ENDBRANCH   9  11
ENDBRANCH   8   9
ENDBRANCH   1   8
BRANCH   4  18
ATOM     18  C   UNL     1      48.542   6.850  13.908  0.00  0.00    +0.000 C 
BRANCH  18  19
ATOM     19  N   UNL     1      48.251   7.052  15.306  0.00  0.00    +0.000 N 
ATOM     20  C   UNL     1      49.111   6.635  16.290  0.00  0.00    +0.000 C 
ATOM     21  O   UNL     1      50.205   6.138  16.034  0.00  0.00    +0.000 OA
ATOM     22  H   UNL     1      47.287   7.258  15.543  0.00  0.00    +0.000 HD
BRANCH  20  23
ATOM     23  C   UNL     1      48.688   6.872  17.674  0.00  0.00    +0.000 A 
ATOM     24  C   UNL     1      48.329   8.153  18.071  0.00  0.00    +0.000 A 
ATOM     25  S   UNL     1      47.833   8.252  19.699  0.00  0.00    +0.000 S 
ATOM     26  C   UNL     1      48.127   6.592  19.946  0.00  0.00    +0.000 A 
ATOM     27  N   UNL     1      47.926   6.025  21.165  0.00  0.00    +0.000 NA
ATOM     28  C   UNL     1      48.219   4.769  21.221  0.00  0.00    +0.000 A 
ATOM     29  N   UNL     1      48.688   4.030  20.166  0.00  0.00    +0.000 N 
ATOM     30  C   UNL     1      48.873   4.555  18.908  0.00  0.00    +0.000 A 
ATOM     31  O   UNL     1      49.239   3.853  17.970  0.00  0.00    +0.000 OA
ATOM     32  C   UNL     1      48.575   5.971  18.797  0.00  0.00    +0.000 A 
ATOM     33  H   UNL     1      48.885   3.047  20.275  0.00  0.00    +0.000 HD
ENDBRANCH  20  23
ENDBRANCH  18  19
ENDBRANCH   4  18
TORSDOF 7
ENDMDL
MODEL 2
REMARK VINA RESULT:    -7.939      1.308      1.985
REMARK INTER + INTRA:         -12.310
REMARK INTER:                 -11.037
REMARK INTRA:                  -1.273
REMARK UNBOUND:                -1.122
REMARK  Name = 
REMARK  8 active torsions:
REMARK  status: ('A' for Active; 'I' for Inactive)
REMARK    1  A    between atoms: C_1  and  C_2
REMARK    2  A    between atoms: C_2  and  N_3
REMARK    3  A    between atoms: C_2  and  C_11
REMARK    4  A    between atoms: N_3  and  C_4
REMARK    5  A    between atoms: C_4  and  C_5
REMARK    6  A    between atoms: C_14  and  C_15
REMARK    7  A    between atoms: C_15  and  N_16
REMARK    8  A    between atoms: C_17  and  C_19
REMARK                            x       y       z     vdW  Elec       q    Type
REMARK                         _______ _______ _______ _____ _____    ______ ____
ROOT
ATOM      1  C   UNL     1      45.380   4.558  11.973  0.00  0.00    +0.000 A 
ATOM      2  C   UNL     1      45.823   5.797  11.475  0.00  0.00    +0.000 A 
ATOM      3  C   UNL     1      46.732   6.582  12.189  0.00  0.00    +0.000 A 
ATOM      4  C   UNL     1      47.264   6.125  13.399  0.00  0.00    +0.000 A 
ATOM      5  C   UNL     1      46.827   4.896  13.905  0.00  0.00    +0.000 A 
ATOM      6  C   UNL     1      45.891   4.125  13.204  0.00  0.00    +0.000 A 
ENDROOT
BRANCH   1   8
ATOM      7  C   UNL     1      43.647   4.620  10.098  0.00  0.00    +0.000 C 
ATOM      8  C   UNL     1      44.318   3.783  11.196  0.00  0.00    +0.000 C 
BRANCH   8   9
ATOM      9  N   UNL     1      44.845   2.546  10.581  0.00  0.00    +0.000 NA
ATOM     10  H   UNL     1      44.414   1.742  11.034  0.00  0.00    +0.000 HD
BRANCH   9  11
ATOM     11  C   UNL     1      44.572   2.483   9.144  0.00  0.00    +0.000 C 
BRANCH  11  12
ATOM     12  C   UNL     1      45.802   2.317   8.286  0.00  0.00    +0.000 A 
ATOM     13  C   UNL     1      46.293   1.027   8.045  0.00  0.00    +0.000 A 
ATOM     14  C   UNL     1      47.382   0.868   7.204  0.00  0.00    +0.000 A 
ATOM     15  N   UNL     1      48.005   1.893   6.589  0.00  0.00    +0.000 NA
ATOM     16  C   UNL     1      47.507   3.129   6.822  0.00  0.00    +0.000 A 
ATOM     17  C   UNL     1      46.422   3.390   7.642  0.00  0.00    +0.000 A 
ENDBRANCH  11  12
ENDBRANCH   9  11
ENDBRANCH   8   9
ENDBRANCH   1   8
BRANCH   4  18
ATOM     18  C   UNL     1      48.264   6.964  14.149  0.00  0.00    +0.000 C 
BRANCH  18  19
ATOM     19  N   UNL     1      48.089   6.830  15.574  0.00  0.00    +0.000 N 
ATOM     20  C   UNL     1      49.100   6.385  16.387  0.00  0.00    +0.000 C 
ATOM     21  O   UNL     1      50.228   6.152  15.959  0.00  0.00    +0.000 OA
ATOM     22  H   UNL     1      47.133   6.810  15.913  0.00  0.00    +0.000 HD
BRANCH  20  23
ATOM     23  C   UNL     1      48.789   6.264  17.815  0.00  0.00    +0.000 A 
ATOM     24  C   UNL     1      49.007   5.057  18.464  0.00  0.00    +0.000 A 
ATOM     25  S   UNL     1      48.626   5.092  20.125  0.00  0.00    +0.000 S 
ATOM     26  C   UNL     1      48.108   6.713  20.026  0.00  0.00    +0.000 A 
ATOM     27  N   UNL     1      47.622   7.354  21.122  0.00  0.00    +0.000 NA
ATOM     28  C   UNL     1      47.236   8.565  20.899  0.00  0.00    +0.000 A 
ATOM     29  N   UNL     1      47.300   9.193  19.683  0.00  0.00    +0.000 N 
ATOM     30  C   UNL     1      47.816   8.594  18.557  0.00  0.00    +0.000 A 
ATOM     31  O   UNL     1      47.912   9.203  17.496  0.00  0.00    +0.000 OA
ATOM     32  C   UNL     1      48.247   7.222  18.751  0.00  0.00    +0.000 A 
ATOM     33  H   UNL     1      46.993  10.149  19.581  0.00  0.00    +0.000 HD
ENDBRANCH  20  23
ENDBRANCH  18  19
ENDBRANCH   4  18
TORSDOF 7
ENDMDL
MODEL 3
REMARK VINA RESULT:    -7.464      3.575      8.450
REMARK INTER + INTRA:         -11.641
REMARK INTER:                  -9.968
REMARK INTRA:                  -1.673
REMARK UNBOUND:                -1.122
REMARK  Name = 
REMARK  8 active torsions:
REMARK  status: ('A' for Active; 'I' for Inactive)
REMARK    1  A    between atoms: C_1  and  C_2
REMARK    2  A    between atoms: C_2  and  N_3
REMARK    3  A    between atoms: C_2  and  C_11
REMARK    4  A    between atoms: N_3  and  C_4
REMARK    5  A    between atoms: C_4  and  C_5
REMARK    6  A    between atoms: C_14  and  C_15
REMARK    7  A    between atoms: C_15  and  N_16
REMARK    8  A    between atoms: C_17  and  C_19
REMARK                            x       y       z     vdW  Elec       q    Type
REMARK                         _______ _______ _______ _____ _____    ______ ____
ROOT
ATOM      1  C   UNL     1      48.687   7.510  16.399  0.00  0.00    +0.000 A 
ATOM      2  C   UNL     1      48.829   6.443  15.493  0.00  0.00    +0.000 A 
ATOM      3  C   UNL     1      48.669   6.632  14.118  0.00  0.00    +0.000 A 
ATOM      4  C   UNL     1      48.413   7.908  13.605  0.00  0.00    +0.000 A 
ATOM      5  C   UNL     1      48.266   8.976  14.497  0.00  0.00    +0.000 A 
ATOM      6  C   UNL     1      48.394   8.778  15.878  0.00  0.00    +0.000 A 
ENDROOT
BRANCH   1   8
ATOM      7  C   UNL     1      48.684   8.501  18.753  0.00  0.00    +0.000 C 
ATOM      8  C   UNL     1      48.783   7.230  17.897  0.00  0.00    +0.000 C 
BRANCH   8   9
ATOM      9  N   UNL     1      47.761   6.272  18.368  0.00  0.00    +0.000 NA
ATOM     10  H   UNL     1      47.238   5.925  17.566  0.00  0.00    +0.000 HD
BRANCH   9  11
ATOM     11  C   UNL     1      48.353   5.134  19.076  0.00  0.00    +0.000 C 
BRANCH  11  12
ATOM     12  C   UNL     1      48.782   4.001  18.177  0.00  0.00    +0.000 A 
ATOM     13  C   UNL     1      47.831   3.394  17.346  0.00  0.00    +0.000 A 
ATOM     14  C   UNL     1      48.237   2.399  16.472  0.00  0.00    +0.000 A 
ATOM     15  N   UNL     1      49.512   1.974  16.368  0.00  0.00    +0.000 NA
ATOM     16  C   UNL     1      50.419   2.582  17.167  0.00  0.00    +0.000 A 
ATOM     17  C   UNL     1      50.111   3.588  18.069  0.00  0.00    +0.000 A 
ENDBRANCH  11  12
ENDBRANCH   9  11
ENDBRANCH   8   9
ENDBRANCH   1   8
BRANCH   4  18
ATOM     18  C   UNL     1      48.269   8.110  12.120  0.00  0.00    +0.000 C 
BRANCH  18  19
ATOM     19  N   UNL     1      47.580   7.001  11.509  0.00  0.00    +0.000 N 
ATOM     20  C   UNL     1      46.213   6.964  11.414  0.00  0.00    +0.000 C 
ATOM     21  O   UNL     1      45.508   7.903  11.774  0.00  0.00    +0.000 OA
ATOM     22  H   UNL     1      48.109   6.142  11.402  0.00  0.00    +0.000 HD
BRANCH  20  23
ATOM     23  C   UNL     1      45.629   5.767  10.798  0.00  0.00    +0.000 A 
ATOM     24  C   UNL     1      45.783   5.555   9.435  0.00  0.00    +0.000 A 
ATOM     25  S   UNL     1      45.075   4.106   8.882  0.00  0.00    +0.000 S 
ATOM     26  C   UNL     1      44.495   3.733  10.441  0.00  0.00    +0.000 A 
ATOM     27  N   UNL     1      43.764   2.608  10.659  0.00  0.00    +0.000 NA
ATOM     28  C   UNL     1      43.360   2.465  11.876  0.00  0.00    +0.000 A 
ATOM     29  N   UNL     1      43.630   3.341  12.895  0.00  0.00    +0.000 N 
ATOM     30  C   UNL     1      44.395   4.472  12.727  0.00  0.00    +0.000 A 
ATOM     31  O   UNL     1      44.666   5.206  13.673  0.00  0.00    +0.000 OA
ATOM     32  C   UNL     1      44.857   4.689  11.368  0.00  0.00    +0.000 A 
ATOM     33  H   UNL     1      43.295   3.161  13.830  0.00  0.00    +0.000 HD
ENDBRANCH  20  23
ENDBRANCH  18  19
ENDBRANCH   4  18
TORSDOF 7
ENDMDL
MODEL 4
REMARK VINA RESULT:    -7.304      3.427      8.802
REMARK INTER + INTRA:         -11.416
REMARK INTER:                  -9.514
REMARK INTRA:                  -1.902
REMARK UNBOUND:                -1.122
REMARK  Name = 
REMARK  8 active torsions:
REMARK  status: ('A' for Active; 'I' for Inactive)
REMARK    1  A    between atoms: C_1  and  C_2
REMARK    2  A    between atoms: C_2  and  N_3
REMARK    3  A    between atoms: C_2  and  C_11
REMARK    4  A    between atoms: N_3  and  C_4
REMARK    5  A    between atoms: C_4  and  C_5
REMARK    6  A    between atoms: C_14  and  C_15
REMARK    7  A    between atoms: C_15  and  N_16
REMARK    8  A    between atoms: C_17  and  C_19
REMARK                            x       y       z     vdW  Elec       q    Type
REMARK                         _______ _______ _______ _____ _____    ______ ____
ROOT
ATOM      1  C   UNL     1      49.426   8.169  15.950  0.00  0.00    +0.000 A 
ATOM      2  C   UNL     1      49.964   7.299  14.983  0.00  0.00    +0.000 A 
ATOM      3  C   UNL     1      49.413   7.207  13.703  0.00  0.00    +0.000 A 
ATOM      4  C   UNL     1      48.339   8.023  13.335  0.00  0.00    +0.000 A 
ATOM      5  C   UNL     1      47.793   8.889  14.289  0.00  0.00    +0.000 A 
ATOM      6  C   UNL     1      48.325   8.956  15.583  0.00  0.00    +0.000 A 
ENDROOT
BRANCH   1   8
ATOM      7  C   UNL     1      48.971   8.504  18.440  0.00  0.00    +0.000 C 
ATOM      8  C   UNL     1      50.009   8.164  17.361  0.00  0.00    +0.000 C 
BRANCH   8   9
ATOM      9  N   UNL     1      50.643   6.877  17.715  0.00  0.00    +0.000 NA
ATOM     10  H   UNL     1      51.448   7.058  18.312  0.00  0.00    +0.000 HD
BRANCH   9  11
ATOM     11  C   UNL     1      49.722   5.982  18.420  0.00  0.00    +0.000 C 
BRANCH  11  12
ATOM     12  C   UNL     1      49.299   4.774  17.621  0.00  0.00    +0.000 A 
ATOM     13  C   UNL     1      50.082   3.614  17.676  0.00  0.00    +0.000 A 
ATOM     14  C   UNL     1      49.660   2.483  16.997  0.00  0.00    +0.000 A 
ATOM     15  N   UNL     1      48.521   2.428  16.278  0.00  0.00    +0.000 NA
ATOM     16  C   UNL     1      47.771   3.553  16.248  0.00  0.00    +0.000 A 
ATOM     17  C   UNL     1      48.106   4.730  16.897  0.00  0.00    +0.000 A 
ENDBRANCH  11  12
ENDBRANCH   9  11
ENDBRANCH   8   9
ENDBRANCH   1   8
BRANCH   4  18
ATOM     18  C   UNL     1      47.768   7.939  11.944  0.00  0.00    +0.000 C 
BRANCH  18  19
ATOM     19  N   UNL     1      47.025   6.717  11.760  0.00  0.00    +0.000 N 
ATOM     20  C   UNL     1      45.665   6.667  11.927  0.00  0.00    +0.000 C 
ATOM     21  O   UNL     1      44.999   7.671  12.165  0.00  0.00    +0.000 OA
ATOM     22  H   UNL     1      47.560   5.855  11.775  0.00  0.00    +0.000 HD
BRANCH  20  23
ATOM     23  C   UNL     1      45.029   5.358  11.740  0.00  0.00    +0.000 A 
ATOM     24  C   UNL     1      44.357   4.766  12.801  0.00  0.00    +0.000 A 
ATOM     25  S   UNL     1      43.647   3.266  12.411  0.00  0.00    +0.000 S 
ATOM     26  C   UNL     1      44.255   3.331  10.820  0.00  0.00    +0.000 A 
ATOM     27  N   UNL     1      44.025   2.316   9.946  0.00  0.00    +0.000 NA
ATOM     28  C   UNL     1      44.570   2.479   8.788  0.00  0.00    +0.000 A 
ATOM     29  N   UNL     1      45.316   3.570   8.424  0.00  0.00    +0.000 N 
ATOM     30  C   UNL     1      45.544   4.635   9.263  0.00  0.00    +0.000 A 
ATOM     31  O   UNL     1      46.168   5.623   8.887  0.00  0.00    +0.000 OA
ATOM     32  C   UNL     1      44.968   4.490  10.588  0.00  0.00    +0.000 A 
ATOM     33  H   UNL     1      45.703   3.640   7.494  0.00  0.00    +0.000 HD
ENDBRANCH  20  23
ENDBRANCH  18  19
ENDBRANCH   4  18
TORSDOF 7
ENDMDL
MODEL 5
REMARK VINA RESULT:    -7.207      3.669      8.604
REMARK INTER + INTRA:         -11.278
REMARK INTER:                  -9.284
REMARK INTRA:                  -1.994
REMARK UNBOUND:                -1.122
REMARK  Name = 
REMARK  8 active torsions:
REMARK  status: ('A' for Active; 'I' for Inactive)
REMARK    1  A    between atoms: C_1  and  C_2
REMARK    2  A    between atoms: C_2  and  N_3
REMARK    3  A    between atoms: C_2  and  C_11
REMARK    4  A    between atoms: N_3  and  C_4
REMARK    5  A    between atoms: C_4  and  C_5
REMARK    6  A    between atoms: C_14  and  C_15
REMARK    7  A    between atoms: C_15  and  N_16
REMARK    8  A    between atoms: C_17  and  C_19
REMARK                            x       y       z     vdW  Elec       q    Type
REMARK                         _______ _______ _______ _____ _____    ______ ____
ROOT
ATOM      1  C   UNL     1      50.057   6.739  18.591  0.00  0.00    +0.000 A 
ATOM      2  C   UNL     1      50.624   6.291  17.384  0.00  0.00    +0.000 A 
ATOM      3  C   UNL     1      50.141   6.730  16.149  0.00  0.00    +0.000 A 
ATOM      4  C   UNL     1      49.108   7.671  16.087  0.00  0.00    +0.000 A 
ATOM      5  C   UNL     1      48.534   8.121  17.282  0.00  0.00    +0.000 A 
ATOM      6  C   UNL     1      48.998   7.655  18.519  0.00  0.00    +0.000 A 
ENDROOT
BRANCH   1   8
ATOM      7  C   UNL     1      49.935   6.828  21.141  0.00  0.00    +0.000 C 
ATOM      8  C   UNL     1      50.564   6.159  19.910  0.00  0.00    +0.000 C 
BRANCH   8   9
ATOM      9  N   UNL     1      50.352   4.701  20.014  0.00  0.00    +0.000 NA
ATOM     10  H   UNL     1      50.704   4.379  20.914  0.00  0.00    +0.000 HD
BRANCH   9  11
ATOM     11  C   UNL     1      48.937   4.338  19.902  0.00  0.00    +0.000 C 
BRANCH  11  12
ATOM     12  C   UNL     1      48.537   3.816  18.544  0.00  0.00    +0.000 A 
ATOM     13  C   UNL     1      47.446   4.399  17.886  0.00  0.00    +0.000 A 
ATOM     14  C   UNL     1      47.119   3.966  16.612  0.00  0.00    +0.000 A 
ATOM     15  N   UNL     1      47.798   3.006  15.954  0.00  0.00    +0.000 NA
ATOM     16  C   UNL     1      48.857   2.465  16.599  0.00  0.00    +0.000 A 
ATOM     17  C   UNL     1      49.265   2.833  17.871  0.00  0.00    +0.000 A 
ENDBRANCH  11  12
ENDBRANCH   9  11
ENDBRANCH   8   9
ENDBRANCH   1   8
BRANCH   4  18
ATOM     18  C   UNL     1      48.610   8.161  14.753  0.00  0.00    +0.000 C 
BRANCH  18  19
ATOM     19  N   UNL     1      47.544   7.326  14.259  0.00  0.00    +0.000 N 
ATOM     20  C   UNL     1      47.764   6.357  13.314  0.00  0.00    +0.000 C 
ATOM     21  O   UNL     1      48.889   6.096  12.896  0.00  0.00    +0.000 OA
ATOM     22  H   UNL     1      46.598   7.655  14.423  0.00  0.00    +0.000 HD
BRANCH  20  23
ATOM     23  C   UNL     1      46.592   5.594  12.871  0.00  0.00    +0.000 A 
ATOM     24  C   UNL     1      46.598   4.209  12.973  0.00  0.00    +0.000 A 
ATOM     25  S   UNL     1      45.151   3.477  12.447  0.00  0.00    +0.000 S 
ATOM     26  C   UNL     1      44.482   4.985  12.016  0.00  0.00    +0.000 A 
ATOM     27  N   UNL     1      43.242   5.062  11.465  0.00  0.00    +0.000 NA
ATOM     28  C   UNL     1      42.872   6.260  11.156  0.00  0.00    +0.000 A 
ATOM     29  N   UNL     1      43.628   7.385  11.358  0.00  0.00    +0.000 N 
ATOM     30  C   UNL     1      44.872   7.357  11.945  0.00  0.00    +0.000 A 
ATOM     31  O   UNL     1      45.499   8.389  12.164  0.00  0.00    +0.000 OA
ATOM     32  C   UNL     1      45.343   6.028  12.292  0.00  0.00    +0.000 A 
ATOM     33  H   UNL     1      43.272   8.295  11.106  0.00  0.00    +0.000 HD
ENDBRANCH  20  23
ENDBRANCH  18  19
ENDBRANCH   4  18
TORSDOF 7
ENDMDL
MODEL 6
REMARK VINA RESULT:    -6.988      4.102      8.815
REMARK INTER + INTRA:         -10.970
REMARK INTER:                  -9.352
REMARK INTRA:                  -1.618
REMARK UNBOUND:                -1.122
REMARK  Name = 
REMARK  8 active torsions:
REMARK  status: ('A' for Active; 'I' for Inactive)
REMARK    1  A    between atoms: C_1  and  C_2
REMARK    2  A    between atoms: C_2  and  N_3
REMARK    3  A    between atoms: C_2  and  C_11
REMARK    4  A    between atoms: N_3  and  C_4
REMARK    5  A    between atoms: C_4  and  C_5
REMARK    6  A    between atoms: C_14  and  C_15
REMARK    7  A    between atoms: C_15  and  N_16
REMARK    8  A    between atoms: C_17  and  C_19
REMARK                            x       y       z     vdW  Elec       q    Type
REMARK                         _______ _______ _______ _____ _____    ______ ____
ROOT
ATOM      1  C   UNL     1      51.283   3.804  18.227  0.00  0.00    +0.000 A 
ATOM      2  C   UNL     1      50.293   4.728  18.610  0.00  0.00    +0.000 A 
ATOM      3  C   UNL     1      48.967   4.586  18.193  0.00  0.00    +0.000 A 
ATOM      4  C   UNL     1      48.583   3.484  17.422  0.00  0.00    +0.000 A 
ATOM      5  C   UNL     1      49.559   2.561  17.032  0.00  0.00    +0.000 A 
ATOM      6  C   UNL     1      50.895   2.723  17.423  0.00  0.00    +0.000 A 
ENDROOT
BRANCH   1   8
ATOM      7  C   UNL     1      53.729   3.148  17.902  0.00  0.00    +0.000 C 
ATOM      8  C   UNL     1      52.732   4.057  18.635  0.00  0.00    +0.000 C 
BRANCH   8   9
ATOM      9  N   UNL     1      53.149   5.461  18.434  0.00  0.00    +0.000 NA
ATOM     10  H   UNL     1      53.765   5.735  19.198  0.00  0.00    +0.000 HD
BRANCH   9  11
ATOM     11  C   UNL     1      53.853   5.653  17.165  0.00  0.00    +0.000 C 
BRANCH  11  12
ATOM     12  C   UNL     1      53.153   6.581  16.203  0.00  0.00    +0.000 A 
ATOM     13  C   UNL     1      53.894   7.177  15.173  0.00  0.00    +0.000 A 
ATOM     14  C   UNL     1      53.241   7.977  14.250  0.00  0.00    +0.000 A 
ATOM     15  N   UNL     1      51.915   8.216  14.278  0.00  0.00    +0.000 NA
ATOM     16  C   UNL     1      51.214   7.621  15.270  0.00  0.00    +0.000 A 
ATOM     17  C   UNL     1      51.775   6.802  16.237  0.00  0.00    +0.000 A 
ENDBRANCH  11  12
ENDBRANCH   9  11
ENDBRANCH   8   9
ENDBRANCH   1   8
BRANCH   4  18
ATOM     18  C   UNL     1      47.146   3.322  17.000  0.00  0.00    +0.000 C 
BRANCH  18  19
ATOM     19  N   UNL     1      46.775   4.321  16.028  0.00  0.00    +0.000 N 
ATOM     20  C   UNL     1      46.915   4.104  14.681  0.00  0.00    +0.000 C 
ATOM     21  O   UNL     1      47.290   3.026  14.228  0.00  0.00    +0.000 OA
ATOM     22  H   UNL     1      46.669   5.270  16.371  0.00  0.00    +0.000 HD
BRANCH  20  23
ATOM     23  C   UNL     1      46.529   5.209  13.796  0.00  0.00    +0.000 A 
ATOM     24  C   UNL     1      47.383   6.292  13.640  0.00  0.00    +0.000 A 
ATOM     25  S   UNL     1      46.803   7.471  12.554  0.00  0.00    +0.000 S 
ATOM     26  C   UNL     1      45.364   6.597  12.290  0.00  0.00    +0.000 A 
ATOM     27  N   UNL     1      44.400   7.081  11.463  0.00  0.00    +0.000 NA
ATOM     28  C   UNL     1      43.350   6.335  11.379  0.00  0.00    +0.000 A 
ATOM     29  N   UNL     1      43.183   5.146  12.041  0.00  0.00    +0.000 N 
ATOM     30  C   UNL     1      44.146   4.603  12.858  0.00  0.00    +0.000 A 
ATOM     31  O   UNL     1      43.989   3.509  13.391  0.00  0.00    +0.000 OA
ATOM     32  C   UNL     1      45.341   5.415  13.002  0.00  0.00    +0.000 A 
ATOM     33  H   UNL     1      42.340   4.605  11.919  0.00  0.00    +0.000 HD
ENDBRANCH  20  23
ENDBRANCH  18  19
ENDBRANCH   4  18
TORSDOF 7
ENDMDL
MODEL 7
REMARK VINA RESULT:    -6.912      3.989      5.903
REMARK INTER + INTRA:         -10.863
REMARK INTER:                  -9.608
REMARK INTRA:                  -1.255
REMARK UNBOUND:                -1.122
REMARK  Name = 
REMARK  8 active torsions:
REMARK  status: ('A' for Active; 'I' for Inactive)
REMARK    1  A    between atoms: C_1  and  C_2
REMARK    2  A    between atoms: C_2  and  N_3
REMARK    3  A    between atoms: C_2  and  C_11
REMARK    4  A    between atoms: N_3  and  C_4
REMARK    5  A    between atoms: C_4  and  C_5
REMARK    6  A    between atoms: C_14  and  C_15
REMARK    7  A    between atoms: C_15  and  N_16
REMARK    8  A    between atoms: C_17  and  C_19
REMARK                            x       y       z     vdW  Elec       q    Type
REMARK                         _______ _______ _______ _____ _____    ______ ____
ROOT
ATOM      1  C   UNL     1      44.779   4.727  12.595  0.00  0.00    +0.000 A 
ATOM      2  C   UNL     1      44.913   6.123  12.710  0.00  0.00    +0.000 A 
ATOM      3  C   UNL     1      46.072   6.700  13.233  0.00  0.00    +0.000 A 
ATOM      4  C   UNL     1      47.154   5.897  13.610  0.00  0.00    +0.000 A 
ATOM      5  C   UNL     1      47.030   4.507  13.505  0.00  0.00    +0.000 A 
ATOM      6  C   UNL     1      45.854   3.929  13.010  0.00  0.00    +0.000 A 
ENDROOT
BRANCH   1   8
ATOM      7  C   UNL     1      42.409   5.223  11.784  0.00  0.00    +0.000 C 
ATOM      8  C   UNL     1      43.456   4.146  12.101  0.00  0.00    +0.000 C 
BRANCH   8   9
ATOM      9  N   UNL     1      43.616   3.289  10.908  0.00  0.00    +0.000 NA
ATOM     10  H   UNL     1      42.741   2.799  10.733  0.00  0.00    +0.000 HD
BRANCH   9  11
ATOM     11  C   UNL     1      43.974   4.060   9.716  0.00  0.00    +0.000 C 
BRANCH  11  12
ATOM     12  C   UNL     1      44.999   3.394   8.831  0.00  0.00    +0.000 A 
ATOM     13  C   UNL     1      45.837   4.193   8.042  0.00  0.00    +0.000 A 
ATOM     14  C   UNL     1      46.824   3.587   7.281  0.00  0.00    +0.000 A 
ATOM     15  N   UNL     1      47.032   2.256   7.256  0.00  0.00    +0.000 NA
ATOM     16  C   UNL     1      46.223   1.502   8.035  0.00  0.00    +0.000 A 
ATOM     17  C   UNL     1      45.213   2.015   8.833  0.00  0.00    +0.000 A 
ENDBRANCH  11  12
ENDBRANCH   9  11
ENDBRANCH   8   9
ENDBRANCH   1   8
BRANCH   4  18
ATOM     18  C   UNL     1      48.412   6.527  14.148  0.00  0.00    +0.000 C 
BRANCH  18  19
ATOM     19  N   UNL     1      48.626   7.831  13.572  0.00  0.00    +0.000 N 
ATOM     20  C   UNL     1      49.209   7.990  12.341  0.00  0.00    +0.000 C 
ATOM     21  O   UNL     1      49.508   7.032  11.632  0.00  0.00    +0.000 OA
ATOM     22  H   UNL     1      48.587   8.621  14.208  0.00  0.00    +0.000 HD
BRANCH  20  23
ATOM     23  C   UNL     1      49.399   9.368  11.877  0.00  0.00    +0.000 A 
ATOM     24  C   UNL     1      50.651   9.777  11.440  0.00  0.00    +0.000 A 
ATOM     25  S   UNL     1      50.696  11.395  10.905  0.00  0.00    +0.000 S 
ATOM     26  C   UNL     1      49.050  11.622  11.283  0.00  0.00    +0.000 A 
ATOM     27  N   UNL     1      48.452  12.827  11.087  0.00  0.00    +0.000 NA
ATOM     28  C   UNL     1      47.213  12.869  11.447  0.00  0.00    +0.000 A 
ATOM     29  N   UNL     1      46.519  11.813  11.976  0.00  0.00    +0.000 N 
ATOM     30  C   UNL     1      47.074  10.568  12.160  0.00  0.00    +0.000 A 
ATOM     31  O   UNL     1      46.409   9.628  12.583  0.00  0.00    +0.000 OA
ATOM     32  C   UNL     1      48.474  10.474  11.789  0.00  0.00    +0.000 A 
ATOM     33  H   UNL     1      45.545  11.911  12.224  0.00  0.00    +0.000 HD
ENDBRANCH  20  23
ENDBRANCH  18  19
ENDBRANCH   4  18
TORSDOF 7
ENDMDL
MODEL 8
REMARK VINA RESULT:    -6.863      4.761      9.410
REMARK INTER + INTRA:         -10.794
REMARK INTER:                  -9.596
REMARK INTRA:                  -1.198
REMARK UNBOUND:                -1.122
REMARK  Name = 
REMARK  8 active torsions:
REMARK  status: ('A' for Active; 'I' for Inactive)
REMARK    1  A    between atoms: C_1  and  C_2
REMARK    2  A    between atoms: C_2  and  N_3
REMARK    3  A    between atoms: C_2  and  C_11
REMARK    4  A    between atoms: N_3  and  C_4
REMARK    5  A    between atoms: C_4  and  C_5
REMARK    6  A    between atoms: C_14  and  C_15
REMARK    7  A    between atoms: C_15  and  N_16
REMARK    8  A    between atoms: C_17  and  C_19
REMARK                            x       y       z     vdW  Elec       q    Type
REMARK                         _______ _______ _______ _____ _____    ______ ____
ROOT
ATOM      1  C   UNL     1      51.482   3.845  17.824  0.00  0.00    +0.000 A 
ATOM      2  C   UNL     1      50.593   4.933  17.902  0.00  0.00    +0.000 A 
ATOM      3  C   UNL     1      49.241   4.789  17.584  0.00  0.00    +0.000 A 
ATOM      4  C   UNL     1      48.727   3.538  17.226  0.00  0.00    +0.000 A 
ATOM      5  C   UNL     1      49.603   2.450  17.141  0.00  0.00    +0.000 A 
ATOM      6  C   UNL     1      50.965   2.603  17.429  0.00  0.00    +0.000 A 
ENDROOT
BRANCH   1   8
ATOM      7  C   UNL     1      53.295   5.541  18.422  0.00  0.00    +0.000 C 
ATOM      8  C   UNL     1      52.967   4.077  18.096  0.00  0.00    +0.000 C 
BRANCH   8   9
ATOM      9  N   UNL     1      53.490   3.229  19.187  0.00  0.00    +0.000 NA
ATOM     10  H   UNL     1      52.830   2.475  19.365  0.00  0.00    +0.000 HD
BRANCH   9  11
ATOM     11  C   UNL     1      54.795   2.650  18.861  0.00  0.00    +0.000 C 
BRANCH  11  12
ATOM     12  C   UNL     1      54.724   1.285  18.222  0.00  0.00    +0.000 A 
ATOM     13  C   UNL     1      54.778   1.184  16.825  0.00  0.00    +0.000 A 
ATOM     14  C   UNL     1      54.781  -0.071  16.240  0.00  0.00    +0.000 A 
ATOM     15  N   UNL     1      54.738  -1.220  16.943  0.00  0.00    +0.000 NA
ATOM     16  C   UNL     1      54.701  -1.104  18.290  0.00  0.00    +0.000 A 
ATOM     17  C   UNL     1      54.699   0.105  18.967  0.00  0.00    +0.000 A 
ENDBRANCH  11  12
ENDBRANCH   9  11
ENDBRANCH   8   9
ENDBRANCH   1   8
BRANCH   4  18
ATOM     18  C   UNL     1      47.263   3.384  16.911  0.00  0.00    +0.000 C 
BRANCH  18  19
ATOM     19  N   UNL     1      46.832   4.371  15.953  0.00  0.00    +0.000 N 
ATOM     20  C   UNL     1      46.888   4.138  14.602  0.00  0.00    +0.000 C 
ATOM     21  O   UNL     1      47.235   3.054  14.141  0.00  0.00    +0.000 OA
ATOM     22  H   UNL     1      46.747   5.324  16.289  0.00  0.00    +0.000 HD
BRANCH  20  23
ATOM     23  C   UNL     1      46.448   5.231  13.728  0.00  0.00    +0.000 A 
ATOM     24  C   UNL     1      47.283   6.320  13.521  0.00  0.00    +0.000 A 
ATOM     25  S   UNL     1      46.638   7.485  12.456  0.00  0.00    +0.000 S 
ATOM     26  C   UNL     1      45.195   6.596  12.272  0.00  0.00    +0.000 A 
ATOM     27  N   UNL     1      44.186   7.065  11.492  0.00  0.00    +0.000 NA
ATOM     28  C   UNL     1      43.140   6.309  11.468  0.00  0.00    +0.000 A 
ATOM     29  N   UNL     1      43.017   5.125  12.147  0.00  0.00    +0.000 N 
ATOM     30  C   UNL     1      44.026   4.597  12.919  0.00  0.00    +0.000 A 
ATOM     31  O   UNL     1      43.905   3.506  13.468  0.00  0.00    +0.000 OA
ATOM     32  C   UNL     1      45.219   5.420  12.995  0.00  0.00    +0.000 A 
ATOM     33  H   UNL     1      42.174   4.576  12.074  0.00  0.00    +0.000 HD
ENDBRANCH  20  23
ENDBRANCH  18  19
ENDBRANCH   4  18
TORSDOF 7
ENDMDL
MODEL 9
REMARK VINA RESULT:    -6.841      3.884      9.178
REMARK INTER + INTRA:         -10.763
REMARK INTER:                  -8.897
REMARK INTRA:                  -1.866
REMARK UNBOUND:                -1.122
REMARK  Name = 
REMARK  8 active torsions:
REMARK  status: ('A' for Active; 'I' for Inactive)
REMARK    1  A    between atoms: C_1  and  C_2
REMARK    2  A    between atoms: C_2  and  N_3
REMARK    3  A    between atoms: C_2  and  C_11
REMARK    4  A    between atoms: N_3  and  C_4
REMARK    5  A    between atoms: C_4  and  C_5
REMARK    6  A    between atoms: C_14  and  C_15
REMARK    7  A    between atoms: C_15  and  N_16
REMARK    8  A    between atoms: C_17  and  C_19
REMARK                            x       y       z     vdW  Elec       q    Type
REMARK                         _______ _______ _______ _____ _____    ______ ____
ROOT
ATOM      1  C   UNL     1      49.874   5.529  19.455  0.00  0.00    +0.000 A 
ATOM      2  C   UNL     1      48.482   5.733  19.443  0.00  0.00    +0.000 A 
ATOM      3  C   UNL     1      47.663   5.094  18.508  0.00  0.00    +0.000 A 
ATOM      4  C   UNL     1      48.209   4.191  17.590  0.00  0.00    +0.000 A 
ATOM      5  C   UNL     1      49.593   3.984  17.590  0.00  0.00    +0.000 A 
ATOM      6  C   UNL     1      50.417   4.650  18.507  0.00  0.00    +0.000 A 
ENDROOT
BRANCH   1   8
ATOM      7  C   UNL     1      52.222   5.960  20.361  0.00  0.00    +0.000 C 
ATOM      8  C   UNL     1      50.732   6.321  20.439  0.00  0.00    +0.000 C 
BRANCH   8   9
ATOM      9  N   UNL     1      50.598   7.783  20.269  0.00  0.00    +0.000 NA
ATOM     10  H   UNL     1      51.053   8.250  21.052  0.00  0.00    +0.000 HD
BRANCH   9  11
ATOM     11  C   UNL     1      51.203   8.253  19.021  0.00  0.00    +0.000 C 
BRANCH  11  12
ATOM     12  C   UNL     1      50.213   8.515  17.913  0.00  0.00    +0.000 A 
ATOM     13  C   UNL     1      50.438   7.948  16.652  0.00  0.00    +0.000 A 
ATOM     14  C   UNL     1      49.497   8.133  15.653  0.00  0.00    +0.000 A 
ATOM     15  N   UNL     1      48.357   8.833  15.823  0.00  0.00    +0.000 NA
ATOM     16  C   UNL     1      48.150   9.360  17.051  0.00  0.00    +0.000 A 
ATOM     17  C   UNL     1      49.029   9.227  18.114  0.00  0.00    +0.000 A 
ENDBRANCH  11  12
ENDBRANCH   9  11
ENDBRANCH   8   9
ENDBRANCH   1   8
BRANCH   4  18
ATOM     18  C   UNL     1      47.318   3.485  16.603  0.00  0.00    +0.000 C 
BRANCH  18  19
ATOM     19  N   UNL     1      46.727   4.418  15.676  0.00  0.00    +0.000 N 
ATOM     20  C   UNL     1      46.768   4.214  14.321  0.00  0.00    +0.000 C 
ATOM     21  O   UNL     1      47.240   3.192  13.829  0.00  0.00    +0.000 OA
ATOM     22  H   UNL     1      46.527   5.347  16.033  0.00  0.00    +0.000 HD
BRANCH  20  23
ATOM     23  C   UNL     1      46.157   5.250  13.482  0.00  0.00    +0.000 A 
ATOM     24  C   UNL     1      46.830   6.445  13.270  0.00  0.00    +0.000 A 
ATOM     25  S   UNL     1      46.000   7.528  12.248  0.00  0.00    +0.000 S 
ATOM     26  C   UNL     1      44.685   6.455  12.090  0.00  0.00    +0.000 A 
ATOM     27  N   UNL     1      43.598   6.795  11.349  0.00  0.00    +0.000 NA
ATOM     28  C   UNL     1      42.662   5.905  11.342  0.00  0.00    +0.000 A 
ATOM     29  N   UNL     1      42.723   4.705  12.001  0.00  0.00    +0.000 N 
ATOM     30  C   UNL     1      43.817   4.307  12.733  0.00  0.00    +0.000 A 
ATOM     31  O   UNL     1      43.863   3.201  13.264  0.00  0.00    +0.000 OA
ATOM     32  C   UNL     1      44.890   5.283  12.789  0.00  0.00    +0.000 A 
ATOM     33  H   UNL     1      41.959   4.048  11.942  0.00  0.00    +0.000 HD
ENDBRANCH  20  23
ENDBRANCH  18  19
ENDBRANCH   4  18
TORSDOF 7
ENDMDL
