MODEL 1
REMARK VINA RESULT:    -7.741      0.000      0.000
REMARK INTER + INTRA:         -11.830
REMARK INTER:                 -10.909
REMARK INTRA:                  -0.922
REMARK UNBOUND:                -0.922
REMARK  Name = 
REMARK  8 active torsions:
REMARK  status: ('A' for Active; 'I' for Inactive)
REMARK    1  A    between atoms: C_1  and  N_2
REMARK    2  A    between atoms: N_2  and  C_3
REMARK    3  A    between atoms: N_2  and  C_24
REMARK    4  A    between atoms: C_3  and  C_4
REMARK    5  A    between atoms: C_7  and  C_8
REMARK    6  A    between atoms: C_8  and  N_9
REMARK    7  A    between atoms: C_10  and  C_12
REMARK    8  A    between atoms: C_24  and  C_25
REMARK                            x       y       z     vdW  Elec       q    Type
REMARK                         _______ _______ _______ _____ _____    ______ ____
ROOT
ATOM      1  C   UNL     1      46.202   4.972  12.720  0.00  0.00    +0.000 A 
ATOM      2  C   UNL     1      46.827   6.153  12.289  0.00  0.00    +0.000 A 
ATOM      3  C   UNL     1      47.700   6.859  13.126  0.00  0.00    +0.000 A 
ATOM      4  C   UNL     1      47.969   6.404  14.423  0.00  0.00    +0.000 A 
ATOM      5  C   UNL     1      47.326   5.241  14.868  0.00  0.00    +0.000 A 
ATOM      6  C   UNL     1      46.464   4.526  14.022  0.00  0.00    +0.000 A 
ENDROOT
BRANCH   1   7
ATOM      7  C   UNL     1      45.204   4.256  11.824  0.00  0.00    +0.000 C 
BRANCH   7   9
ATOM      8  C   UNL     1      43.454   5.888  11.337  0.00  0.00    +0.000 C 
ATOM      9  N   UNL     1      44.526   5.059  10.775  0.00  0.00    +0.000 NA
BRANCH   9  10
ATOM     10  C   UNL     1      43.974   4.123   9.762  0.00  0.00    +0.000 C 
BRANCH  10  11
ATOM     11  C   UNL     1      45.011   3.398   8.936  0.00  0.00    +0.000 A 
ATOM     12  C   UNL     1      45.829   4.065   8.021  0.00  0.00    +0.000 A 
ATOM     13  C   UNL     1      46.757   3.347   7.269  0.00  0.00    +0.000 A 
ATOM     14  C   UNL     1      46.841   1.977   7.462  0.00  0.00    +0.000 A 
ATOM     15  N   UNL     1      46.079   1.296   8.343  0.00  0.00    +0.000 NA
ATOM     16  C   UNL     1      45.186   2.021   9.057  0.00  0.00    +0.000 A 
ENDBRANCH  10  11
ENDBRANCH   9  10
ENDBRANCH   7   9
ENDBRANCH   1   7
BRANCH   4  17
ATOM     17  C   UNL     1      48.904   7.169  15.326  0.00  0.00    +0.000 C 
BRANCH  17  18
ATOM     18  N   UNL     1      49.944   6.321  15.855  0.00  0.00    +0.000 N 
ATOM     19  C   UNL     1      49.917   5.884  17.157  0.00  0.00    +0.000 C 
ATOM     20  O   UNL     1      48.985   6.150  17.913  0.00  0.00    +0.000 OA
ATOM     21  H   UNL     1      50.809   6.267  15.327  0.00  0.00    +0.000 HD
BRANCH  19  22
ATOM     22  C   UNL     1      51.033   5.028  17.589  0.00  0.00    +0.000 A 
ATOM     23  C   UNL     1      52.168   5.608  18.139  0.00  0.00    +0.000 A 
ATOM     24  S   UNL     1      53.348   4.477  18.627  0.00  0.00    +0.000 S 
ATOM     25  C   UNL     1      52.405   3.174  18.074  0.00  0.00    +0.000 A 
ATOM     26  N   UNL     1      52.861   1.896  18.170  0.00  0.00    +0.000 NA
ATOM     27  C   UNL     1      52.062   1.006  17.683  0.00  0.00    +0.000 A 
ATOM     28  N   UNL     1      50.844   1.280  17.114  0.00  0.00    +0.000 N 
ATOM     29  C   UNL     1      50.328   2.554  17.027  0.00  0.00    +0.000 A 
ATOM     30  O   UNL     1      49.214   2.758  16.558  0.00  0.00    +0.000 OA
ATOM     31  C   UNL     1      51.202   3.591  17.545  0.00  0.00    +0.000 A 
ATOM     32  H   UNL     1      50.261   0.537  16.762  0.00  0.00    +0.000 HD
ENDBRANCH  19  22
ENDBRANCH  17  18
ENDBRANCH   4  17
TORSDOF 7
ENDMDL
MODEL 2
REMARK VINA RESULT:    -7.539      2.463      3.017
REMARK INTER + INTRA:         -11.545
REMARK INTER:                 -10.568
REMARK INTRA:                  -0.977
REMARK UNBOUND:                -0.922
REMARK  Name = 
REMARK  8 active torsions:
REMARK  status: ('A' for Active; 'I' for Inactive)
REMARK    1  A    between atoms: C_1  and  N_2
REMARK    2  A    between atoms: N_2  and  C_3
REMARK    3  A    between atoms: N_2  and  C_24
REMARK    4  A    between atoms: C_3  and  C_4
REMARK    5  A    between atoms: C_7  and  C_8
REMARK    6  A    between atoms: C_8  and  N_9
REMARK    7  A    between atoms: C_10  and  C_12
REMARK    8  A    between atoms: C_24  and  C_25
REMARK                            x       y       z     vdW  Elec       q    Type
REMARK                         _______ _______ _______ _____ _____    ______ ____
ROOT
ATOM      1  C   UNL     1      45.941   4.758  12.816  0.00  0.00    +0.000 A 
ATOM      2  C   UNL     1      46.587   4.445  14.022  0.00  0.00    +0.000 A 
ATOM      3  C   UNL     1      47.599   5.264  14.537  0.00  0.00    +0.000 A 
ATOM      4  C   UNL     1      47.997   6.421  13.855  0.00  0.00    +0.000 A 
ATOM      5  C   UNL     1      47.375   6.724  12.637  0.00  0.00    +0.000 A 
ATOM      6  C   UNL     1      46.349   5.910  12.130  0.00  0.00    +0.000 A 
ENDROOT
BRANCH   1   7
ATOM      7  C   UNL     1      44.893   3.822  12.236  0.00  0.00    +0.000 C 
BRANCH   7   9
ATOM      8  C   UNL     1      42.824   4.814  11.400  0.00  0.00    +0.000 C 
ATOM      9  N   UNL     1      44.145   4.287  11.041  0.00  0.00    +0.000 NA
BRANCH   9  10
ATOM     10  C   UNL     1      44.004   3.138  10.110  0.00  0.00    +0.000 C 
BRANCH  10  11
ATOM     11  C   UNL     1      45.065   3.056   9.038  0.00  0.00    +0.000 A 
ATOM     12  C   UNL     1      45.654   1.844   8.669  0.00  0.00    +0.000 A 
ATOM     13  C   UNL     1      46.643   1.824   7.688  0.00  0.00    +0.000 A 
ATOM     14  C   UNL     1      47.009   3.024   7.099  0.00  0.00    +0.000 A 
ATOM     15  N   UNL     1      46.458   4.213   7.416  0.00  0.00    +0.000 NA
ATOM     16  C   UNL     1      45.502   4.201   8.375  0.00  0.00    +0.000 A 
ENDBRANCH  10  11
ENDBRANCH   9  10
ENDBRANCH   7   9
ENDBRANCH   1   7
BRANCH   4  17
ATOM     17  C   UNL     1      49.093   7.299  14.407  0.00  0.00    +0.000 C 
BRANCH  17  18
ATOM     18  N   UNL     1      49.001   7.423  15.842  0.00  0.00    +0.000 N 
ATOM     19  C   UNL     1      49.830   6.712  16.675  0.00  0.00    +0.000 C 
ATOM     20  O   UNL     1      50.717   5.981  16.241  0.00  0.00    +0.000 OA
ATOM     21  H   UNL     1      48.158   7.845  16.215  0.00  0.00    +0.000 HD
BRANCH  19  22
ATOM     22  C   UNL     1      49.642   6.915  18.120  0.00  0.00    +0.000 A 
ATOM     23  C   UNL     1      49.877   8.166  18.674  0.00  0.00    +0.000 A 
ATOM     24  S   UNL     1      49.572   8.244  20.350  0.00  0.00    +0.000 S 
ATOM     25  C   UNL     1      49.163   6.594  20.405  0.00  0.00    +0.000 A 
ATOM     26  N   UNL     1      48.821   6.001  21.582  0.00  0.00    +0.000 NA
ATOM     27  C   UNL     1      48.566   4.739  21.490  0.00  0.00    +0.000 A 
ATOM     28  N   UNL     1      48.616   4.017  20.324  0.00  0.00    +0.000 N 
ATOM     29  C   UNL     1      48.923   4.582  19.106  0.00  0.00    +0.000 A 
ATOM     30  O   UNL     1      48.910   3.917  18.076  0.00  0.00    +0.000 OA
ATOM     31  C   UNL     1      49.237   5.998  19.164  0.00  0.00    +0.000 A 
ATOM     32  H   UNL     1      48.394   3.033  20.317  0.00  0.00    +0.000 HD
ENDBRANCH  19  22
ENDBRANCH  17  18
ENDBRANCH   4  17
TORSDOF 7
ENDMDL
MODEL 3
REMARK VINA RESULT:    -7.436      1.482      1.822
REMARK INTER + INTRA:         -11.400
REMARK INTER:                 -10.301
REMARK INTRA:                  -1.099
REMARK UNBOUND:                -0.922
REMARK  Name = 
REMARK  8 active torsions:
REMARK  status: ('A' for Active; 'I' for Inactive)
REMARK    1  A    between atoms: C_1  and  N_2
REMARK    2  A    between atoms: N_2  and  C_3
REMARK    3  A    between atoms: N_2  and  C_24
REMARK    4  A    between atoms: C_3  and  C_4
REMARK    5  A    between atoms: C_7  and  C_8
REMARK    6  A    between atoms: C_8  and  N_9
REMARK    7  A    between atoms: C_10  and  C_12
REMARK    8  A    between atoms: C_24  and  C_25
REMARK                            x       y       z     vdW  Elec       q    Type
REMARK                         _______ _______ _______ _____ _____    ______ ____
ROOT
ATOM      1  C   UNL     1      46.087   5.059  12.619  0.00  0.00    +0.000 A 
ATOM      2  C   UNL     1      46.445   6.096  11.742  0.00  0.00    +0.000 A 
ATOM      3  C   UNL     1      47.453   7.009  12.072  0.00  0.00    +0.000 A 
ATOM      4  C   UNL     1      48.132   6.913  13.294  0.00  0.00    +0.000 A 
ATOM      5  C   UNL     1      47.760   5.896  14.184  0.00  0.00    +0.000 A 
ATOM      6  C   UNL     1      46.760   4.972  13.845  0.00  0.00    +0.000 A 
ENDROOT
BRANCH   1   7
ATOM      7  C   UNL     1      44.942   4.119  12.276  0.00  0.00    +0.000 C 
BRANCH   7   9
ATOM      8  C   UNL     1      42.788   4.928  11.459  0.00  0.00    +0.000 C 
ATOM      9  N   UNL     1      44.122   4.446  11.083  0.00  0.00    +0.000 NA
BRANCH   9  10
ATOM     10  C   UNL     1      44.009   3.221  10.250  0.00  0.00    +0.000 C 
BRANCH  10  11
ATOM     11  C   UNL     1      45.030   3.109   9.143  0.00  0.00    +0.000 A 
ATOM     12  C   UNL     1      45.594   1.885   8.774  0.00  0.00    +0.000 A 
ATOM     13  C   UNL     1      46.547   1.840   7.758  0.00  0.00    +0.000 A 
ATOM     14  C   UNL     1      46.903   3.025   7.136  0.00  0.00    +0.000 A 
ATOM     15  N   UNL     1      46.375   4.226   7.453  0.00  0.00    +0.000 NA
ATOM     16  C   UNL     1      45.455   4.239   8.445  0.00  0.00    +0.000 A 
ENDBRANCH  10  11
ENDBRANCH   9  10
ENDBRANCH   7   9
ENDBRANCH   1   7
BRANCH   4  17
ATOM     17  C   UNL     1      49.214   7.902  13.651  0.00  0.00    +0.000 C 
BRANCH  17  18
ATOM     18  N   UNL     1      50.306   7.266  14.348  0.00  0.00    +0.000 N 
ATOM     19  C   UNL     1      50.445   7.377  15.709  0.00  0.00    +0.000 C 
ATOM     20  O   UNL     1      49.625   7.976  16.400  0.00  0.00    +0.000 OA
ATOM     21  H   UNL     1      51.092   6.955  13.787  0.00  0.00    +0.000 HD
BRANCH  19  22
ATOM     22  C   UNL     1      51.600   6.691  16.312  0.00  0.00    +0.000 A 
ATOM     23  C   UNL     1      52.863   7.260  16.215  0.00  0.00    +0.000 A 
ATOM     24  S   UNL     1      54.082   6.364  17.001  0.00  0.00    +0.000 S 
ATOM     25  C   UNL     1      52.973   5.157  17.457  0.00  0.00    +0.000 A 
ATOM     26  N   UNL     1      53.385   4.060  18.150  0.00  0.00    +0.000 NA
ATOM     27  C   UNL     1      52.451   3.207  18.404  0.00  0.00    +0.000 A 
ATOM     28  N   UNL     1      51.139   3.354  18.031  0.00  0.00    +0.000 N 
ATOM     29  C   UNL     1      50.671   4.462  17.360  0.00  0.00    +0.000 A 
ATOM     30  O   UNL     1      49.483   4.584  17.086  0.00  0.00    +0.000 OA
ATOM     31  C   UNL     1      51.692   5.441  17.036  0.00  0.00    +0.000 A 
ATOM     32  H   UNL     1      50.453   2.654  18.270  0.00  0.00    +0.000 HD
ENDBRANCH  19  22
ENDBRANCH  17  18
ENDBRANCH   4  17
TORSDOF 7
ENDMDL
MODEL 4
REMARK VINA RESULT:    -7.391      3.724      8.705
REMARK INTER + INTRA:         -11.337
REMARK INTER:                  -9.664
REMARK INTRA:                  -1.673
REMARK UNBOUND:                -0.922
REMARK  Name = 
REMARK  8 active torsions:
REMARK  status: ('A' for Active; 'I' for Inactive)
REMARK    1  A    between atoms: C_1  and  N_2
REMARK    2  A    between atoms: N_2  and  C_3
REMARK    3  A    between atoms: N_2  and  C_24
REMARK    4  A    between atoms: C_3  and  C_4
REMARK    5  A    between atoms: C_7  and  C_8
REMARK    6  A    between atoms: C_8  and  N_9
REMARK    7  A    between atoms: C_10  and  C_12
REMARK    8  A    between atoms: C_24  and  C_25
REMARK                            x       y       z     vdW  Elec       q    Type
REMARK                         _______ _______ _______ _____ _____    ______ ____
ROOT
ATOM      1  C   UNL     1      49.024   7.997  16.221  0.00  0.00    +0.000 A 
ATOM      2  C   UNL     1      49.311   6.880  15.420  0.00  0.00    +0.000 A 
ATOM      3  C   UNL     1      48.893   6.818  14.086  0.00  0.00    +0.000 A 
ATOM      4  C   UNL     1      48.170   7.873  13.514  0.00  0.00    +0.000 A 
ATOM      5  C   UNL     1      47.858   8.978  14.316  0.00  0.00    +0.000 A 
ATOM      6  C   UNL     1      48.291   9.047  15.650  0.00  0.00    +0.000 A 
ENDROOT
BRANCH   1   7
ATOM      7  C   UNL     1      49.425   8.019  17.688  0.00  0.00    +0.000 C 
BRANCH   7   9
ATOM      8  C   UNL     1      48.208   8.493  19.751  0.00  0.00    +0.000 C 
ATOM      9  N   UNL     1      48.435   7.522  18.675  0.00  0.00    +0.000 NA
BRANCH   9  10
ATOM     10  C   UNL     1      48.944   6.244  19.236  0.00  0.00    +0.000 C 
BRANCH  10  11
ATOM     11  C   UNL     1      48.587   5.013  18.438  0.00  0.00    +0.000 A 
ATOM     12  C   UNL     1      49.553   4.093  18.020  0.00  0.00    +0.000 A 
ATOM     13  C   UNL     1      49.173   2.983  17.269  0.00  0.00    +0.000 A 
ATOM     14  C   UNL     1      47.831   2.823  16.963  0.00  0.00    +0.000 A 
ATOM     15  N   UNL     1      46.866   3.679  17.356  0.00  0.00    +0.000 NA
ATOM     16  C   UNL     1      47.266   4.750  18.082  0.00  0.00    +0.000 A 
ENDBRANCH  10  11
ENDBRANCH   9  10
ENDBRANCH   7   9
ENDBRANCH   1   7
BRANCH   4  17
ATOM     17  C   UNL     1      47.715   7.801  12.077  0.00  0.00    +0.000 C 
BRANCH  17  18
ATOM     18  N   UNL     1      46.993   6.581  11.809  0.00  0.00    +0.000 N 
ATOM     19  C   UNL     1      45.639   6.491  12.020  0.00  0.00    +0.000 C 
ATOM     20  O   UNL     1      44.974   7.454  12.395  0.00  0.00    +0.000 OA
ATOM     21  H   UNL     1      47.541   5.734  11.708  0.00  0.00    +0.000 HD
BRANCH  19  22
ATOM     22  C   UNL     1      45.009   5.196  11.718  0.00  0.00    +0.000 A 
ATOM     23  C   UNL     1      44.315   4.522  12.715  0.00  0.00    +0.000 A 
ATOM     24  S   UNL     1      43.610   3.060  12.191  0.00  0.00    +0.000 S 
ATOM     25  C   UNL     1      44.249   3.251  10.626  0.00  0.00    +0.000 A 
ATOM     26  N   UNL     1      44.036   2.308   9.668  0.00  0.00    +0.000 NA
ATOM     27  C   UNL     1      44.604   2.559   8.536  0.00  0.00    +0.000 A 
ATOM     28  N   UNL     1      45.362   3.672   8.274  0.00  0.00    +0.000 N 
ATOM     29  C   UNL     1      45.575   4.668   9.202  0.00  0.00    +0.000 A 
ATOM     30  O   UNL     1      46.216   5.673   8.919  0.00  0.00    +0.000 OA
ATOM     31  C   UNL     1      44.971   4.418  10.498  0.00  0.00    +0.000 A 
ATOM     32  H   UNL     1      45.769   3.815   7.363  0.00  0.00    +0.000 HD
ENDBRANCH  19  22
ENDBRANCH  17  18
ENDBRANCH   4  17
TORSDOF 7
ENDMDL
MODEL 5
REMARK VINA RESULT:    -7.191      3.771      4.548
REMARK INTER + INTRA:         -11.056
REMARK INTER:                 -10.069
REMARK INTRA:                  -0.986
REMARK UNBOUND:                -0.922
REMARK  Name = 
REMARK  8 active torsions:
REMARK  status: ('A' for Active; 'I' for Inactive)
REMARK    1  A    between atoms: C_1  and  N_2
REMARK    2  A    between atoms: N_2  and  C_3
REMARK    3  A    between atoms: N_2  and  C_24
REMARK    4  A    between atoms: C_3  and  C_4
REMARK    5  A    between atoms: C_7  and  C_8
REMARK    6  A    between atoms: C_8  and  N_9
REMARK    7  A    between atoms: C_10  and  C_12
REMARK    8  A    between atoms: C_24  and  C_25
REMARK                            x       y       z     vdW  Elec       q    Type
REMARK                         _______ _______ _______ _____ _____    ______ ____
ROOT
ATOM      1  C   UNL     1      45.892   5.115  12.486  0.00  0.00    +0.000 A 
ATOM      2  C   UNL     1      46.896   5.038  13.465  0.00  0.00    +0.000 A 
ATOM      3  C   UNL     1      47.528   6.190  13.948  0.00  0.00    +0.000 A 
ATOM      4  C   UNL     1      47.174   7.455  13.462  0.00  0.00    +0.000 A 
ATOM      5  C   UNL     1      46.192   7.535  12.466  0.00  0.00    +0.000 A 
ATOM      6  C   UNL     1      45.549   6.381  11.994  0.00  0.00    +0.000 A 
ENDROOT
BRANCH   1   7
ATOM      7  C   UNL     1      45.266   3.850  11.922  0.00  0.00    +0.000 C 
BRANCH   7   9
ATOM      8  C   UNL     1      42.902   4.231  11.442  0.00  0.00    +0.000 C 
ATOM      9  N   UNL     1      44.234   4.009  10.867  0.00  0.00    +0.000 NA
BRANCH   9  10
ATOM     10  C   UNL     1      44.234   2.780  10.032  0.00  0.00    +0.000 C 
BRANCH  10  11
ATOM     11  C   UNL     1      45.251   2.770   8.916  0.00  0.00    +0.000 A 
ATOM     12  C   UNL     1      45.605   3.932   8.225  0.00  0.00    +0.000 A 
ATOM     13  C   UNL     1      46.536   3.866   7.190  0.00  0.00    +0.000 A 
ATOM     14  C   UNL     1      47.090   2.634   6.881  0.00  0.00    +0.000 A 
ATOM     15  N   UNL     1      46.786   1.492   7.530  0.00  0.00    +0.000 NA
ATOM     16  C   UNL     1      45.877   1.587   8.529  0.00  0.00    +0.000 A 
ENDBRANCH  10  11
ENDBRANCH   9  10
ENDBRANCH   7   9
ENDBRANCH   1   7
BRANCH   4  17
ATOM     17  C   UNL     1      47.861   8.695  13.980  0.00  0.00    +0.000 C 
BRANCH  17  18
ATOM     18  N   UNL     1      47.552   8.932  15.369  0.00  0.00    +0.000 N 
ATOM     19  C   UNL     1      48.433   9.586  16.195  0.00  0.00    +0.000 C 
ATOM     20  O   UNL     1      49.495  10.043  15.781  0.00  0.00    +0.000 OA
ATOM     21  H   UNL     1      46.796   8.389  15.773  0.00  0.00    +0.000 HD
BRANCH  19  22
ATOM     22  C   UNL     1      48.014   9.767  17.595  0.00  0.00    +0.000 A 
ATOM     23  C   UNL     1      47.708  11.039  18.060  0.00  0.00    +0.000 A 
ATOM     24  S   UNL     1      47.200  11.069  19.688  0.00  0.00    +0.000 S 
ATOM     25  C   UNL     1      47.418   9.390  19.843  0.00  0.00    +0.000 A 
ATOM     26  N   UNL     1      47.180   8.764  21.028  0.00  0.00    +0.000 NA
ATOM     27  C   UNL     1      47.417   7.495  21.019  0.00  0.00    +0.000 A 
ATOM     28  N   UNL     1      47.865   6.794  19.928  0.00  0.00    +0.000 N 
ATOM     29  C   UNL     1      48.086   7.379  18.701  0.00  0.00    +0.000 A 
ATOM     30  O   UNL     1      48.439   6.713  17.735  0.00  0.00    +0.000 OA
ATOM     31  C   UNL     1      47.851   8.811  18.669  0.00  0.00    +0.000 A 
ATOM     32  H   UNL     1      48.020   5.799  19.984  0.00  0.00    +0.000 HD
ENDBRANCH  19  22
ENDBRANCH  17  18
ENDBRANCH   4  17
TORSDOF 7
ENDMDL
MODEL 6
REMARK VINA RESULT:    -7.082      3.460      8.474
REMARK INTER + INTRA:         -10.901
REMARK INTER:                  -9.406
REMARK INTRA:                  -1.495
REMARK UNBOUND:                -0.922
REMARK  Name = 
REMARK  8 active torsions:
REMARK  status: ('A' for Active; 'I' for Inactive)
REMARK    1  A    between atoms: C_1  and  N_2
REMARK    2  A    between atoms: N_2  and  C_3
REMARK    3  A    between atoms: N_2  and  C_24
REMARK    4  A    between atoms: C_3  and  C_4
REMARK    5  A    between atoms: C_7  and  C_8
REMARK    6  A    between atoms: C_8  and  N_9
REMARK    7  A    between atoms: C_10  and  C_12
REMARK    8  A    between atoms: C_24  and  C_25
REMARK                            x       y       z     vdW  Elec       q    Type
REMARK                         _______ _______ _______ _____ _____    ______ ____
ROOT
ATOM      1  C   UNL     1      50.128   7.221  15.719  0.00  0.00    +0.000 A 
ATOM      2  C   UNL     1      50.820   7.875  14.687  0.00  0.00    +0.000 A 
ATOM      3  C   UNL     1      50.199   8.163  13.466  0.00  0.00    +0.000 A 
ATOM      4  C   UNL     1      48.865   7.801  13.241  0.00  0.00    +0.000 A 
ATOM      5  C   UNL     1      48.177   7.125  14.258  0.00  0.00    +0.000 A 
ATOM      6  C   UNL     1      48.797   6.851  15.488  0.00  0.00    +0.000 A 
ENDROOT
BRANCH   1   7
ATOM      7  C   UNL     1      50.839   6.854  17.012  0.00  0.00    +0.000 C 
BRANCH   7   9
ATOM      8  C   UNL     1      50.220   7.568  19.264  0.00  0.00    +0.000 C 
ATOM      9  N   UNL     1      49.995   6.581  18.203  0.00  0.00    +0.000 NA
BRANCH   9  10
ATOM     10  C   UNL     1      50.318   5.216  18.693  0.00  0.00    +0.000 C 
BRANCH  10  11
ATOM     11  C   UNL     1      49.687   4.092  17.906  0.00  0.00    +0.000 A 
ATOM     12  C   UNL     1      48.304   3.988  17.740  0.00  0.00    +0.000 A 
ATOM     13  C   UNL     1      47.771   2.921  17.020  0.00  0.00    +0.000 A 
ATOM     14  C   UNL     1      48.643   1.989  16.482  0.00  0.00    +0.000 A 
ATOM     15  N   UNL     1      49.985   2.058  16.608  0.00  0.00    +0.000 NA
ATOM     16  C   UNL     1      50.473   3.104  17.314  0.00  0.00    +0.000 A 
ENDBRANCH  10  11
ENDBRANCH   9  10
ENDBRANCH   7   9
ENDBRANCH   1   7
BRANCH   4  17
ATOM     17  C   UNL     1      48.198   8.106  11.922  0.00  0.00    +0.000 C 
BRANCH  17  18
ATOM     18  N   UNL     1      47.514   6.951  11.394  0.00  0.00    +0.000 N 
ATOM     19  C   UNL     1      46.143   6.909  11.311  0.00  0.00    +0.000 C 
ATOM     20  O   UNL     1      45.443   7.865  11.633  0.00  0.00    +0.000 OA
ATOM     21  H   UNL     1      48.046   6.091  11.325  0.00  0.00    +0.000 HD
BRANCH  19  22
ATOM     22  C   UNL     1      45.554   5.678  10.760  0.00  0.00    +0.000 A 
ATOM     23  C   UNL     1      45.691   5.398   9.407  0.00  0.00    +0.000 A 
ATOM     24  S   UNL     1      44.991   3.915   8.938  0.00  0.00    +0.000 S 
ATOM     25  C   UNL     1      44.435   3.618  10.518  0.00  0.00    +0.000 A 
ATOM     26  N   UNL     1      43.716   2.498  10.803  0.00  0.00    +0.000 NA
ATOM     27  C   UNL     1      43.328   2.411  12.031  0.00  0.00    +0.000 A 
ATOM     28  N   UNL     1      43.600   3.341  13.003  0.00  0.00    +0.000 N 
ATOM     29  C   UNL     1      44.353   4.471  12.768  0.00  0.00    +0.000 A 
ATOM     30  O   UNL     1      44.619   5.256  13.670  0.00  0.00    +0.000 OA
ATOM     31  C   UNL     1      44.795   4.621  11.394  0.00  0.00    +0.000 A 
ATOM     32  H   UNL     1      43.277   3.208  13.948  0.00  0.00    +0.000 HD
ENDBRANCH  19  22
ENDBRANCH  17  18
ENDBRANCH   4  17
TORSDOF 7
ENDMDL
MODEL 7
REMARK VINA RESULT:    -6.941      2.651      3.560
REMARK INTER + INTRA:         -10.703
REMARK INTER:                 -10.655
REMARK INTRA:                  -0.047
REMARK UNBOUND:                -0.922
REMARK  Name = 
REMARK  8 active torsions:
REMARK  status: ('A' for Active; 'I' for Inactive)
REMARK    1  A    between atoms: C_1  and  N_2
REMARK    2  A    between atoms: N_2  and  C_3
REMARK    3  A    between atoms: N_2  and  C_24
REMARK    4  A    between atoms: C_3  and  C_4
REMARK    5  A    between atoms: C_7  and  C_8
REMARK    6  A    between atoms: C_8  and  N_9
REMARK    7  A    between atoms: C_10  and  C_12
REMARK    8  A    between atoms: C_24  and  C_25
REMARK                            x       y       z     vdW  Elec       q    Type
REMARK                         _______ _______ _______ _____ _____    ______ ____
ROOT
ATOM      1  C   UNL     1      45.014   4.982  10.854  0.00  0.00    +0.000 A 
ATOM      2  C   UNL     1      45.713   6.164  10.559  0.00  0.00    +0.000 A 
ATOM      3  C   UNL     1      46.607   6.727  11.478  0.00  0.00    +0.000 A 
ATOM      4  C   UNL     1      46.824   6.125  12.723  0.00  0.00    +0.000 A 
ATOM      5  C   UNL     1      46.109   4.961  13.034  0.00  0.00    +0.000 A 
ATOM      6  C   UNL     1      45.225   4.388  12.106  0.00  0.00    +0.000 A 
ENDROOT
BRANCH   1   7
ATOM      7  C   UNL     1      43.997   4.422   9.874  0.00  0.00    +0.000 C 
BRANCH   7   9
ATOM      8  C   UNL     1      44.413   2.037   9.556  0.00  0.00    +0.000 C 
ATOM      9  N   UNL     1      44.457   3.366   8.938  0.00  0.00    +0.000 NA
BRANCH   9  10
ATOM     10  C   UNL     1      45.846   3.692   8.522  0.00  0.00    +0.000 C 
BRANCH  10  11
ATOM     11  C   UNL     1      46.407   2.809   7.432  0.00  0.00    +0.000 A 
ATOM     12  C   UNL     1      46.556   3.256   6.117  0.00  0.00    +0.000 A 
ATOM     13  C   UNL     1      47.061   2.395   5.145  0.00  0.00    +0.000 A 
ATOM     14  C   UNL     1      47.408   1.108   5.523  0.00  0.00    +0.000 A 
ATOM     15  N   UNL     1      47.292   0.640   6.783  0.00  0.00    +0.000 NA
ATOM     16  C   UNL     1      46.796   1.498   7.704  0.00  0.00    +0.000 A 
ENDBRANCH  10  11
ENDBRANCH   9  10
ENDBRANCH   7   9
ENDBRANCH   1   7
BRANCH   4  17
ATOM     17  C   UNL     1      47.782   6.737  13.715  0.00  0.00    +0.000 C 
BRANCH  17  18
ATOM     18  N   UNL     1      47.753   6.043  14.980  0.00  0.00    +0.000 N 
ATOM     19  C   UNL     1      48.854   6.007  15.800  0.00  0.00    +0.000 C 
ATOM     20  O   UNL     1      49.892   6.603  15.522  0.00  0.00    +0.000 OA
ATOM     21  H   UNL     1      46.998   5.381  15.125  0.00  0.00    +0.000 HD
BRANCH  19  22
ATOM     22  C   UNL     1      48.711   5.264  17.062  0.00  0.00    +0.000 A 
ATOM     23  C   UNL     1      48.545   3.886  17.032  0.00  0.00    +0.000 A 
ATOM     24  S   UNL     1      48.438   3.173  18.578  0.00  0.00    +0.000 S 
ATOM     25  C   UNL     1      48.560   4.688  19.342  0.00  0.00    +0.000 A 
ATOM     26  N   UNL     1      48.507   4.788  20.699  0.00  0.00    +0.000 NA
ATOM     27  C   UNL     1      48.578   5.996  21.148  0.00  0.00    +0.000 A 
ATOM     28  N   UNL     1      48.703   7.114  20.362  0.00  0.00    +0.000 N 
ATOM     29  C   UNL     1      48.795   7.057  18.989  0.00  0.00    +0.000 A 
ATOM     30  O   UNL     1      48.957   8.071  18.320  0.00  0.00    +0.000 OA
ATOM     31  C   UNL     1      48.701   5.718  18.437  0.00  0.00    +0.000 A 
ATOM     32  H   UNL     1      48.765   8.031  20.776  0.00  0.00    +0.000 HD
ENDBRANCH  19  22
ENDBRANCH  17  18
ENDBRANCH   4  17
TORSDOF 7
ENDMDL
MODEL 8
REMARK VINA RESULT:    -6.760      2.277      2.868
REMARK INTER + INTRA:         -10.447
REMARK INTER:                  -9.156
REMARK INTRA:                  -1.291
REMARK UNBOUND:                -0.922
REMARK  Name = 
REMARK  8 active torsions:
REMARK  status: ('A' for Active; 'I' for Inactive)
REMARK    1  A    between atoms: C_1  and  N_2
REMARK    2  A    between atoms: N_2  and  C_3
REMARK    3  A    between atoms: N_2  and  C_24
REMARK    4  A    between atoms: C_3  and  C_4
REMARK    5  A    between atoms: C_7  and  C_8
REMARK    6  A    between atoms: C_8  and  N_9
REMARK    7  A    between atoms: C_10  and  C_12
REMARK    8  A    between atoms: C_24  and  C_25
REMARK                            x       y       z     vdW  Elec       q    Type
REMARK                         _______ _______ _______ _____ _____    ______ ____
ROOT
ATOM      1  C   UNL     1      46.141   5.379  12.378  0.00  0.00    +0.000 A 
ATOM      2  C   UNL     1      46.487   6.472  11.567  0.00  0.00    +0.000 A 
ATOM      3  C   UNL     1      47.592   7.277  11.867  0.00  0.00    +0.000 A 
ATOM      4  C   UNL     1      48.382   7.013  12.993  0.00  0.00    +0.000 A 
ATOM      5  C   UNL     1      48.026   5.941  13.821  0.00  0.00    +0.000 A 
ATOM      6  C   UNL     1      46.927   5.124  13.510  0.00  0.00    +0.000 A 
ENDROOT
BRANCH   1   7
ATOM      7  C   UNL     1      44.898   4.557  12.077  0.00  0.00    +0.000 C 
BRANCH   7   9
ATOM      8  C   UNL     1      42.871   5.554  11.149  0.00  0.00    +0.000 C 
ATOM      9  N   UNL     1      44.141   4.887  10.843  0.00  0.00    +0.000 NA
BRANCH   9  10
ATOM     10  C   UNL     1      43.892   3.623  10.103  0.00  0.00    +0.000 C 
BRANCH  10  11
ATOM     11  C   UNL     1      44.961   3.251   9.103  0.00  0.00    +0.000 A 
ATOM     12  C   UNL     1      45.585   4.204   8.295  0.00  0.00    +0.000 A 
ATOM     13  C   UNL     1      46.552   3.806   7.374  0.00  0.00    +0.000 A 
ATOM     14  C   UNL     1      46.871   2.460   7.296  0.00  0.00    +0.000 A 
ATOM     15  N   UNL     1      46.303   1.509   8.065  0.00  0.00    +0.000 NA
ATOM     16  C   UNL     1      45.365   1.926   8.948  0.00  0.00    +0.000 A 
ENDBRANCH  10  11
ENDBRANCH   9  10
ENDBRANCH   7   9
ENDBRANCH   1   7
BRANCH   4  17
ATOM     17  C   UNL     1      49.569   7.886  13.319  0.00  0.00    +0.000 C 
BRANCH  17  18
ATOM     18  N   UNL     1      49.768   8.001  14.743  0.00  0.00    +0.000 N 
ATOM     19  C   UNL     1      51.027   7.983  15.292  0.00  0.00    +0.000 C 
ATOM     20  O   UNL     1      52.039   7.920  14.597  0.00  0.00    +0.000 OA
ATOM     21  H   UNL     1      48.961   7.841  15.336  0.00  0.00    +0.000 HD
BRANCH  19  22
ATOM     22  C   UNL     1      51.109   8.101  16.757  0.00  0.00    +0.000 A 
ATOM     23  C   UNL     1      51.651   9.248  17.322  0.00  0.00    +0.000 A 
ATOM     24  S   UNL     1      51.633   9.247  19.028  0.00  0.00    +0.000 S 
ATOM     25  C   UNL     1      50.946   7.691  19.071  0.00  0.00    +0.000 A 
ATOM     26  N   UNL     1      50.693   7.076  20.259  0.00  0.00    +0.000 NA
ATOM     27  C   UNL     1      50.202   5.887  20.150  0.00  0.00    +0.000 A 
ATOM     28  N   UNL     1      49.936   5.259  18.959  0.00  0.00    +0.000 N 
ATOM     29  C   UNL     1      50.144   5.856  17.736  0.00  0.00    +0.000 A 
ATOM     30  O   UNL     1      49.849   5.285  16.692  0.00  0.00    +0.000 OA
ATOM     31  C   UNL     1      50.714   7.189  17.809  0.00  0.00    +0.000 A 
ATOM     32  H   UNL     1      49.541   4.332  18.943  0.00  0.00    +0.000 HD
ENDBRANCH  19  22
ENDBRANCH  17  18
ENDBRANCH   4  17
TORSDOF 7
ENDMDL
MODEL 9
REMARK VINA RESULT:    -6.135      5.913      7.452
REMARK INTER + INTRA:          -9.567
REMARK INTER:                  -8.357
REMARK INTRA:                  -1.210
REMARK UNBOUND:                -0.922
REMARK  Name = 
REMARK  8 active torsions:
REMARK  status: ('A' for Active; 'I' for Inactive)
REMARK    1  A    between atoms: C_1  and  N_2
REMARK    2  A    between atoms: N_2  and  C_3
REMARK    3  A    between atoms: N_2  and  C_24
REMARK    4  A    between atoms: C_3  and  C_4
REMARK    5  A    between atoms: C_7  and  C_8
REMARK    6  A    between atoms: C_8  and  N_9
REMARK    7  A    between atoms: C_10  and  C_12
REMARK    8  A    between atoms: C_24  and  C_25
REMARK                            x       y       z     vdW  Elec       q    Type
REMARK                         _______ _______ _______ _____ _____    ______ ____
ROOT
ATOM      1  C   UNL     1      47.308   8.397  12.456  0.00  0.00    +0.000 A 
ATOM      2  C   UNL     1      47.980   7.305  11.882  0.00  0.00    +0.000 A 
ATOM      3  C   UNL     1      49.361   7.342  11.656  0.00  0.00    +0.000 A 
ATOM      4  C   UNL     1      50.110   8.475  11.994  0.00  0.00    +0.000 A 
ATOM      5  C   UNL     1      49.441   9.577  12.542  0.00  0.00    +0.000 A 
ATOM      6  C   UNL     1      48.058   9.534  12.783  0.00  0.00    +0.000 A 
ENDROOT
BRANCH   1   7
ATOM      7  C   UNL     1      45.798   8.368  12.631  0.00  0.00    +0.000 C 
BRANCH   7   9
ATOM      8  C   UNL     1      43.976   8.689  11.037  0.00  0.00    +0.000 C 
ATOM      9  N   UNL     1      44.994   7.760  11.541  0.00  0.00    +0.000 NA
BRANCH   9  10
ATOM     10  C   UNL     1      44.350   6.532  12.073  0.00  0.00    +0.000 C 
BRANCH  10  11
ATOM     11  C   UNL     1      44.415   5.333  11.157  0.00  0.00    +0.000 A 
ATOM     12  C   UNL     1      45.254   5.297  10.041  0.00  0.00    +0.000 A 
ATOM     13  C   UNL     1      45.262   4.174   9.216  0.00  0.00    +0.000 A 
ATOM     14  C   UNL     1      44.431   3.114   9.539  0.00  0.00    +0.000 A 
ATOM     15  N   UNL     1      43.615   3.102  10.613  0.00  0.00    +0.000 NA
ATOM     16  C   UNL     1      43.626   4.208  11.394  0.00  0.00    +0.000 A 
ENDBRANCH  10  11
ENDBRANCH   9  10
ENDBRANCH   7   9
ENDBRANCH   1   7
BRANCH   4  17
ATOM     17  C   UNL     1      51.598   8.515  11.743  0.00  0.00    +0.000 C 
BRANCH  17  18
ATOM     18  N   UNL     1      51.923   8.073  10.409  0.00  0.00    +0.000 N 
ATOM     19  C   UNL     1      52.957   8.637   9.702  0.00  0.00    +0.000 C 
ATOM     20  O   UNL     1      53.682   9.502  10.188  0.00  0.00    +0.000 OA
ATOM     21  H   UNL     1      51.222   7.526   9.921  0.00  0.00    +0.000 HD
BRANCH  19  22
ATOM     22  C   UNL     1      53.194   8.110   8.348  0.00  0.00    +0.000 A 
ATOM     23  C   UNL     1      53.116   8.966   7.257  0.00  0.00    +0.000 A 
ATOM     24  S   UNL     1      53.459   8.210   5.767  0.00  0.00    +0.000 S 
ATOM     25  C   UNL     1      53.675   6.701   6.522  0.00  0.00    +0.000 A 
ATOM     26  N   UNL     1      53.967   5.592   5.789  0.00  0.00    +0.000 NA
ATOM     27  C   UNL     1      54.072   4.508   6.480  0.00  0.00    +0.000 A 
ATOM     28  N   UNL     1      53.917   4.432   7.842  0.00  0.00    +0.000 N 
ATOM     29  C   UNL     1      53.655   5.534   8.627  0.00  0.00    +0.000 A 
ATOM     30  O   UNL     1      53.572   5.439   9.846  0.00  0.00    +0.000 OA
ATOM     31  C   UNL     1      53.509   6.775   7.889  0.00  0.00    +0.000 A 
ATOM     32  H   UNL     1      54.023   3.554   8.325  0.00  0.00    +0.000 HD
ENDBRANCH  19  22
ENDBRANCH  17  18
ENDBRANCH   4  17
TORSDOF 7
ENDMDL
