MODEL 1
REMARK VINA RESULT:    -7.632      0.000      0.000
REMARK INTER + INTRA:         -11.678
REMARK INTER:                 -10.755
REMARK INTRA:                  -0.923
REMARK UNBOUND:                -0.923
REMARK  Name = 
REMARK  9 active torsions:
REMARK  status: ('A' for Active; 'I' for Inactive)
REMARK    1  A    between atoms: C_1  and  N_2
REMARK    2  A    between atoms: N_2  and  C_3
REMARK    3  A    between atoms: N_2  and  C_4
REMARK    4  A    between atoms: C_4  and  C_5
REMARK    5  A    between atoms: C_4  and  C_19
REMARK    6  A    between atoms: C_5  and  C_6
REMARK    7  A    between atoms: C_9  and  C_10
REMARK    8  A    between atoms: C_10  and  N_11
REMARK    9  A    between atoms: C_19  and  C_21
REMARK                            x       y       z     vdW  Elec       q    Type
REMARK                         _______ _______ _______ _____ _____    ______ ____
ROOT
ATOM      1  C   UNL     1      46.766   7.653  13.343  0.00  0.00    +0.000 C 
ENDROOT
BRANCH   1   3
ATOM      2  C   UNL     1      46.043   9.620  12.052  0.00  0.00    +0.000 C 
ATOM      3  N   UNL     1      47.131   8.657  12.282  0.00  0.00    +0.000 NA
ATOM      4  C   UNL     1      48.338   9.412  12.647  0.00  0.00    +0.000 C 
ENDBRANCH   1   3
BRANCH   1   5
ATOM      5  C   UNL     1      47.892   6.641  13.652  0.00  0.00    +0.000 C 
ATOM      6  O   UNL     1      48.526   6.107  12.736  0.00  0.00    +0.000 OA
BRANCH   5   7
ATOM      7  C   UNL     1      48.267   6.310  15.056  0.00  0.00    +0.000 A 
ATOM      8  C   UNL     1      48.941   7.269  15.806  0.00  0.00    +0.000 A 
ATOM      9  S   UNL     1      49.169   6.842  17.437  0.00  0.00    +0.000 S 
ATOM     10  C   UNL     1      48.383   5.353  17.208  0.00  0.00    +0.000 A 
ATOM     11  N   UNL     1      48.159   4.525  18.266  0.00  0.00    +0.000 NA
ATOM     12  C   UNL     1      47.510   3.445  17.968  0.00  0.00    +0.000 A 
ATOM     13  N   UNL     1      47.103   3.108  16.710  0.00  0.00    +0.000 N 
ATOM     14  C   UNL     1      47.478   3.823  15.598  0.00  0.00    +0.000 A 
ATOM     15  O   UNL     1      47.388   3.309  14.492  0.00  0.00    +0.000 OA
ATOM     16  C   UNL     1      48.035   5.136  15.881  0.00  0.00    +0.000 A 
ATOM     17  H   UNL     1      46.703   2.197  16.529  0.00  0.00    +0.000 HD
ENDBRANCH   5   7
ENDBRANCH   1   5
BRANCH   1  18
ATOM     18  C   UNL     1      45.487   6.823  13.070  0.00  0.00    +0.000 C 
BRANCH  18  19
ATOM     19  C   UNL     1      45.506   5.827  11.931  0.00  0.00    +0.000 A 
ATOM     20  C   UNL     1      45.060   4.514  12.134  0.00  0.00    +0.000 A 
ATOM     21  C   UNL     1      44.892   3.649  11.051  0.00  0.00    +0.000 A 
ATOM     22  C   UNL     1      45.169   4.081   9.749  0.00  0.00    +0.000 A 
ATOM     23  C   UNL     1      45.688   5.364   9.556  0.00  0.00    +0.000 A 
ATOM     24  C   UNL     1      45.859   6.222  10.637  0.00  0.00    +0.000 A 
BRANCH  22  25
ATOM     25  C   UNL     1      44.899   3.192   8.561  0.00  0.00    +0.000 C 
BRANCH  25  26
ATOM     26  N   UNL     1      46.126   2.670   7.916  0.00  0.00    +0.000 NA
ATOM     27  C   UNL     1      46.210   1.204   8.042  0.00  0.00    +0.000 C 
ATOM     28  C   UNL     1      47.368   0.598   7.247  0.00  0.00    +0.000 C 
ATOM     29  C   UNL     1      47.307   1.019   5.787  0.00  0.00    +0.000 C 
ATOM     30  C   UNL     1      47.297   2.538   5.703  0.00  0.00    +0.000 C 
ATOM     31  C   UNL     1      46.149   3.129   6.519  0.00  0.00    +0.000 C 
ENDBRANCH  25  26
ENDBRANCH  22  25
ENDBRANCH  18  19
ENDBRANCH   1  18
TORSDOF 7
ENDMDL
MODEL 2
REMARK VINA RESULT:    -7.102      2.911      4.680
REMARK INTER + INTRA:         -10.932
REMARK INTER:                  -9.778
REMARK INTRA:                  -1.154
REMARK UNBOUND:                -0.923
REMARK  Name = 
REMARK  9 active torsions:
REMARK  status: ('A' for Active; 'I' for Inactive)
REMARK    1  A    between atoms: C_1  and  N_2
REMARK    2  A    between atoms: N_2  and  C_3
REMARK    3  A    between atoms: N_2  and  C_4
REMARK    4  A    between atoms: C_4  and  C_5
REMARK    5  A    between atoms: C_4  and  C_19
REMARK    6  A    between atoms: C_5  and  C_6
REMARK    7  A    between atoms: C_9  and  C_10
REMARK    8  A    between atoms: C_10  and  N_11
REMARK    9  A    between atoms: C_19  and  C_21
REMARK                            x       y       z     vdW  Elec       q    Type
REMARK                         _______ _______ _______ _____ _____    ______ ____
ROOT
ATOM      1  C   UNL     1      48.436   6.078  17.666  0.00  0.00    +0.000 C 
ENDROOT
BRANCH   1   3
ATOM      2  C   UNL     1      49.499   8.295  17.781  0.00  0.00    +0.000 C 
ATOM      3  N   UNL     1      48.702   7.297  18.510  0.00  0.00    +0.000 NA
ATOM      4  C   UNL     1      47.451   7.938  18.939  0.00  0.00    +0.000 C 
ENDBRANCH   1   3
BRANCH   1   5
ATOM      5  C   UNL     1      48.890   4.757  18.326  0.00  0.00    +0.000 C 
ATOM      6  O   UNL     1      48.069   4.009  18.867  0.00  0.00    +0.000 OA
BRANCH   5   7
ATOM      7  C   UNL     1      50.319   4.333  18.295  0.00  0.00    +0.000 A 
ATOM      8  C   UNL     1      51.268   5.157  18.893  0.00  0.00    +0.000 A 
ATOM      9  S   UNL     1      52.834   4.493  18.941  0.00  0.00    +0.000 S 
ATOM     10  C   UNL     1      52.311   3.078  18.158  0.00  0.00    +0.000 A 
ATOM     11  N   UNL     1      53.171   2.039  17.970  0.00  0.00    +0.000 NA
ATOM     12  C   UNL     1      52.638   1.003  17.406  0.00  0.00    +0.000 A 
ATOM     13  N   UNL     1      51.342   0.931  16.983  0.00  0.00    +0.000 N 
ATOM     14  C   UNL     1      50.507   2.022  16.983  0.00  0.00    +0.000 A 
ATOM     15  O   UNL     1      49.496   2.007  16.294  0.00  0.00    +0.000 OA
ATOM     16  C   UNL     1      50.978   3.147  17.773  0.00  0.00    +0.000 A 
ATOM     17  H   UNL     1      51.024   0.136  16.446  0.00  0.00    +0.000 HD
ENDBRANCH   5   7
ENDBRANCH   1   5
BRANCH   1  18
ATOM     18  C   UNL     1      49.052   6.099  16.245  0.00  0.00    +0.000 C 
BRANCH  18  19
ATOM     19  C   UNL     1      48.145   5.834  15.064  0.00  0.00    +0.000 A 
ATOM     20  C   UNL     1      47.308   4.710  15.055  0.00  0.00    +0.000 A 
ATOM     21  C   UNL     1      46.334   4.562  14.066  0.00  0.00    +0.000 A 
ATOM     22  C   UNL     1      46.182   5.533  13.068  0.00  0.00    +0.000 A 
ATOM     23  C   UNL     1      47.069   6.612  13.032  0.00  0.00    +0.000 A 
ATOM     24  C   UNL     1      48.042   6.754  14.017  0.00  0.00    +0.000 A 
BRANCH  22  25
ATOM     25  C   UNL     1      45.073   5.437  12.052  0.00  0.00    +0.000 C 
BRANCH  25  26
ATOM     26  N   UNL     1      45.370   4.517  10.929  0.00  0.00    +0.000 NA
ATOM     27  C   UNL     1      44.316   3.497  10.785  0.00  0.00    +0.000 C 
ATOM     28  C   UNL     1      44.489   2.629   9.537  0.00  0.00    +0.000 C 
ATOM     29  C   UNL     1      44.594   3.488   8.286  0.00  0.00    +0.000 C 
ATOM     30  C   UNL     1      45.739   4.475   8.449  0.00  0.00    +0.000 C 
ATOM     31  C   UNL     1      45.565   5.318   9.711  0.00  0.00    +0.000 C 
ENDBRANCH  25  26
ENDBRANCH  22  25
ENDBRANCH  18  19
ENDBRANCH   1  18
TORSDOF 7
ENDMDL
MODEL 3
REMARK VINA RESULT:    -6.640      2.623      4.132
REMARK INTER + INTRA:         -10.280
REMARK INTER:                  -8.747
REMARK INTRA:                  -1.533
REMARK UNBOUND:                -0.923
REMARK  Name = 
REMARK  9 active torsions:
REMARK  status: ('A' for Active; 'I' for Inactive)
REMARK    1  A    between atoms: C_1  and  N_2
REMARK    2  A    between atoms: N_2  and  C_3
REMARK    3  A    between atoms: N_2  and  C_4
REMARK    4  A    between atoms: C_4  and  C_5
REMARK    5  A    between atoms: C_4  and  C_19
REMARK    6  A    between atoms: C_5  and  C_6
REMARK    7  A    between atoms: C_9  and  C_10
REMARK    8  A    between atoms: C_10  and  N_11
REMARK    9  A    between atoms: C_19  and  C_21
REMARK                            x       y       z     vdW  Elec       q    Type
REMARK                         _______ _______ _______ _____ _____    ______ ____
ROOT
ATOM      1  C   UNL     1      49.134   8.381  15.828  0.00  0.00    +0.000 C 
ENDROOT
BRANCH   1   3
ATOM      2  C   UNL     1      49.667  10.704  16.442  0.00  0.00    +0.000 C 
ATOM      3  N   UNL     1      49.263   9.382  16.945  0.00  0.00    +0.000 NA
ATOM      4  C   UNL     1      47.998   9.539  17.676  0.00  0.00    +0.000 C 
ENDBRANCH   1   3
BRANCH   1   5
ATOM      5  C   UNL     1      50.221   7.283  15.850  0.00  0.00    +0.000 C 
ATOM      6  O   UNL     1      51.260   7.413  15.193  0.00  0.00    +0.000 OA
BRANCH   5   7
ATOM      7  C   UNL     1      50.066   6.062  16.690  0.00  0.00    +0.000 A 
ATOM      8  C   UNL     1      51.028   5.797  17.661  0.00  0.00    +0.000 A 
ATOM      9  S   UNL     1      50.660   4.472  18.662  0.00  0.00    +0.000 S 
ATOM     10  C   UNL     1      49.202   4.191  17.836  0.00  0.00    +0.000 A 
ATOM     11  N   UNL     1      48.344   3.224  18.267  0.00  0.00    +0.000 NA
ATOM     12  C   UNL     1      47.248   3.142  17.582  0.00  0.00    +0.000 A 
ATOM     13  N   UNL     1      46.956   3.910  16.492  0.00  0.00    +0.000 N 
ATOM     14  C   UNL     1      47.875   4.756  15.919  0.00  0.00    +0.000 A 
ATOM     15  O   UNL     1      47.700   5.151  14.775  0.00  0.00    +0.000 OA
ATOM     16  C   UNL     1      49.039   5.034  16.744  0.00  0.00    +0.000 A 
ATOM     17  H   UNL     1      46.135   3.714  15.935  0.00  0.00    +0.000 HD
ENDBRANCH   5   7
ENDBRANCH   1   5
BRANCH   1  18
ATOM     18  C   UNL     1      49.131   8.971  14.396  0.00  0.00    +0.000 C 
BRANCH  18  19
ATOM     19  C   UNL     1      48.086   8.480  13.418  0.00  0.00    +0.000 A 
ATOM     20  C   UNL     1      48.444   7.610  12.379  0.00  0.00    +0.000 A 
ATOM     21  C   UNL     1      47.460   7.003  11.595  0.00  0.00    +0.000 A 
ATOM     22  C   UNL     1      46.105   7.257  11.835  0.00  0.00    +0.000 A 
ATOM     23  C   UNL     1      45.752   8.184  12.819  0.00  0.00    +0.000 A 
ATOM     24  C   UNL     1      46.734   8.792  13.595  0.00  0.00    +0.000 A 
BRANCH  22  25
ATOM     25  C   UNL     1      45.030   6.534  11.063  0.00  0.00    +0.000 C 
BRANCH  25  26
ATOM     26  N   UNL     1      44.921   5.095  11.396  0.00  0.00    +0.000 NA
ATOM     27  C   UNL     1      43.945   4.872  12.477  0.00  0.00    +0.000 C 
ATOM     28  C   UNL     1      43.670   3.390  12.740  0.00  0.00    +0.000 C 
ATOM     29  C   UNL     1      43.246   2.678  11.465  0.00  0.00    +0.000 C 
ATOM     30  C   UNL     1      44.316   2.874  10.402  0.00  0.00    +0.000 C 
ATOM     31  C   UNL     1      44.595   4.357  10.166  0.00  0.00    +0.000 C 
ENDBRANCH  25  26
ENDBRANCH  22  25
ENDBRANCH  18  19
ENDBRANCH   1  18
TORSDOF 7
ENDMDL
MODEL 4
REMARK VINA RESULT:    -6.610      2.364      3.587
REMARK INTER + INTRA:         -10.238
REMARK INTER:                  -9.375
REMARK INTRA:                  -0.863
REMARK UNBOUND:                -0.923
REMARK  Name = 
REMARK  9 active torsions:
REMARK  status: ('A' for Active; 'I' for Inactive)
REMARK    1  A    between atoms: C_1  and  N_2
REMARK    2  A    between atoms: N_2  and  C_3
REMARK    3  A    between atoms: N_2  and  C_4
REMARK    4  A    between atoms: C_4  and  C_5
REMARK    5  A    between atoms: C_4  and  C_19
REMARK    6  A    between atoms: C_5  and  C_6
REMARK    7  A    between atoms: C_9  and  C_10
REMARK    8  A    between atoms: C_10  and  N_11
REMARK    9  A    between atoms: C_19  and  C_21
REMARK                            x       y       z     vdW  Elec       q    Type
REMARK                         _______ _______ _______ _____ _____    ______ ____
ROOT
ATOM      1  C   UNL     1      48.967   7.665  14.399  0.00  0.00    +0.000 C 
ENDROOT
BRANCH   1   3
ATOM      2  C   UNL     1      50.353   8.726  12.664  0.00  0.00    +0.000 C 
ATOM      3  N   UNL     1      49.677   8.917  13.957  0.00  0.00    +0.000 NA
ATOM      4  C   UNL     1      48.746  10.045  13.822  0.00  0.00    +0.000 C 
ENDBRANCH   1   3
BRANCH   1   5
ATOM      5  C   UNL     1      49.619   6.981  15.621  0.00  0.00    +0.000 C 
ATOM      6  O   UNL     1      50.849   6.920  15.726  0.00  0.00    +0.000 OA
BRANCH   5   7
ATOM      7  C   UNL     1      48.788   6.412  16.720  0.00  0.00    +0.000 A 
ATOM      8  C   UNL     1      48.343   5.099  16.603  0.00  0.00    +0.000 A 
ATOM      9  S   UNL     1      47.547   4.508  17.986  0.00  0.00    +0.000 S 
ATOM     10  C   UNL     1      47.758   5.986  18.798  0.00  0.00    +0.000 A 
ATOM     11  N   UNL     1      47.368   6.117  20.097  0.00  0.00    +0.000 NA
ATOM     12  C   UNL     1      47.627   7.275  20.615  0.00  0.00    +0.000 A 
ATOM     13  N   UNL     1      48.200   8.315  19.941  0.00  0.00    +0.000 N 
ATOM     14  C   UNL     1      48.427   8.279  18.586  0.00  0.00    +0.000 A 
ATOM     15  O   UNL     1      48.612   9.324  17.978  0.00  0.00    +0.000 OA
ATOM     16  C   UNL     1      48.341   6.955  17.992  0.00  0.00    +0.000 A 
ATOM     17  H   UNL     1      48.267   9.227  20.372  0.00  0.00    +0.000 HD
ENDBRANCH   5   7
ENDBRANCH   1   5
BRANCH   1  18
ATOM     18  C   UNL     1      48.801   6.570  13.315  0.00  0.00    +0.000 C 
BRANCH  18  19
ATOM     19  C   UNL     1      47.407   6.258  12.816  0.00  0.00    +0.000 A 
ATOM     20  C   UNL     1      46.781   7.107  11.893  0.00  0.00    +0.000 A 
ATOM     21  C   UNL     1      45.584   6.728  11.283  0.00  0.00    +0.000 A 
ATOM     22  C   UNL     1      44.991   5.497  11.587  0.00  0.00    +0.000 A 
ATOM     23  C   UNL     1      45.574   4.687  12.565  0.00  0.00    +0.000 A 
ATOM     24  C   UNL     1      46.764   5.069  13.175  0.00  0.00    +0.000 A 
BRANCH  22  25
ATOM     25  C   UNL     1      43.752   5.031  10.865  0.00  0.00    +0.000 C 
BRANCH  25  26
ATOM     26  N   UNL     1      44.032   4.161   9.699  0.00  0.00    +0.000 NA
ATOM     27  C   UNL     1      45.217   4.629   8.959  0.00  0.00    +0.000 C 
ATOM     28  C   UNL     1      45.648   3.669   7.848  0.00  0.00    +0.000 C 
ATOM     29  C   UNL     1      45.862   2.265   8.393  0.00  0.00    +0.000 C 
ATOM     30  C   UNL     1      44.591   1.795   9.083  0.00  0.00    +0.000 C 
ATOM     31  C   UNL     1      44.161   2.775  10.174  0.00  0.00    +0.000 C 
ENDBRANCH  25  26
ENDBRANCH  22  25
ENDBRANCH  18  19
ENDBRANCH   1  18
TORSDOF 7
ENDMDL
MODEL 5
REMARK VINA RESULT:    -6.516      1.446      2.274
REMARK INTER + INTRA:         -10.105
REMARK INTER:                  -9.506
REMARK INTRA:                  -0.600
REMARK UNBOUND:                -0.923
REMARK  Name = 
REMARK  9 active torsions:
REMARK  status: ('A' for Active; 'I' for Inactive)
REMARK    1  A    between atoms: C_1  and  N_2
REMARK    2  A    between atoms: N_2  and  C_3
REMARK    3  A    between atoms: N_2  and  C_4
REMARK    4  A    between atoms: C_4  and  C_5
REMARK    5  A    between atoms: C_4  and  C_19
REMARK    6  A    between atoms: C_5  and  C_6
REMARK    7  A    between atoms: C_9  and  C_10
REMARK    8  A    between atoms: C_10  and  N_11
REMARK    9  A    between atoms: C_19  and  C_21
REMARK                            x       y       z     vdW  Elec       q    Type
REMARK                         _______ _______ _______ _____ _____    ______ ____
ROOT
ATOM      1  C   UNL     1      46.141   7.340  13.161  0.00  0.00    +0.000 C 
ENDROOT
BRANCH   1   3
ATOM      2  C   UNL     1      45.173   9.154  11.808  0.00  0.00    +0.000 C 
ATOM      3  N   UNL     1      46.334   8.269  11.992  0.00  0.00    +0.000 NA
ATOM      4  C   UNL     1      47.525   9.111  12.164  0.00  0.00    +0.000 C 
ENDBRANCH   1   3
BRANCH   1   5
ATOM      5  C   UNL     1      47.283   6.313  13.330  0.00  0.00    +0.000 C 
ATOM      6  O   UNL     1      47.982   5.984  12.366  0.00  0.00    +0.000 OA
BRANCH   5   7
ATOM      7  C   UNL     1      47.595   5.721  14.662  0.00  0.00    +0.000 A 
ATOM      8  C   UNL     1      47.042   4.485  14.985  0.00  0.00    +0.000 A 
ATOM      9  S   UNL     1      47.599   3.836  16.455  0.00  0.00    +0.000 S 
ATOM     10  C   UNL     1      48.598   5.183  16.727  0.00  0.00    +0.000 A 
ATOM     11  N   UNL     1      49.434   5.212  17.803  0.00  0.00    +0.000 NA
ATOM     12  C   UNL     1      50.177   6.270  17.870  0.00  0.00    +0.000 A 
ATOM     13  N   UNL     1      50.129   7.309  16.986  0.00  0.00    +0.000 N 
ATOM     14  C   UNL     1      49.169   7.398  16.007  0.00  0.00    +0.000 A 
ATOM     15  O   UNL     1      48.950   8.477  15.474  0.00  0.00    +0.000 OA
ATOM     16  C   UNL     1      48.439   6.166  15.759  0.00  0.00    +0.000 A 
ATOM     17  H   UNL     1      50.653   8.155  17.163  0.00  0.00    +0.000 HD
ENDBRANCH   5   7
ENDBRANCH   1   5
BRANCH   1  18
ATOM     18  C   UNL     1      44.818   6.535  13.167  0.00  0.00    +0.000 C 
BRANCH  18  19
ATOM     19  C   UNL     1      44.631   5.450  12.129  0.00  0.00    +0.000 A 
ATOM     20  C   UNL     1      44.674   5.764  10.763  0.00  0.00    +0.000 A 
ATOM     21  C   UNL     1      44.697   4.749   9.805  0.00  0.00    +0.000 A 
ATOM     22  C   UNL     1      44.675   3.404  10.196  0.00  0.00    +0.000 A 
ATOM     23  C   UNL     1      44.552   3.094  11.552  0.00  0.00    +0.000 A 
ATOM     24  C   UNL     1      44.524   4.108  12.505  0.00  0.00    +0.000 A 
BRANCH  22  25
ATOM     25  C   UNL     1      44.798   2.298   9.179  0.00  0.00    +0.000 C 
BRANCH  25  26
ATOM     26  N   UNL     1      46.001   2.406   8.321  0.00  0.00    +0.000 NA
ATOM     27  C   UNL     1      46.505   1.074   7.942  0.00  0.00    +0.000 C 
ATOM     28  C   UNL     1      47.641   1.132   6.919  0.00  0.00    +0.000 C 
ATOM     29  C   UNL     1      47.231   1.931   5.692  0.00  0.00    +0.000 C 
ATOM     30  C   UNL     1      46.788   3.321   6.123  0.00  0.00    +0.000 C 
ATOM     31  C   UNL     1      45.669   3.247   7.160  0.00  0.00    +0.000 C 
ENDBRANCH  25  26
ENDBRANCH  22  25
ENDBRANCH  18  19
ENDBRANCH   1  18
TORSDOF 7
ENDMDL
MODEL 6
REMARK VINA RESULT:    -6.440      2.795      4.164
REMARK INTER + INTRA:          -9.999
REMARK INTER:                  -8.683
REMARK INTRA:                  -1.316
REMARK UNBOUND:                -0.923
REMARK  Name = 
REMARK  9 active torsions:
REMARK  status: ('A' for Active; 'I' for Inactive)
REMARK    1  A    between atoms: C_1  and  N_2
REMARK    2  A    between atoms: N_2  and  C_3
REMARK    3  A    between atoms: N_2  and  C_4
REMARK    4  A    between atoms: C_4  and  C_5
REMARK    5  A    between atoms: C_4  and  C_19
REMARK    6  A    between atoms: C_5  and  C_6
REMARK    7  A    between atoms: C_9  and  C_10
REMARK    8  A    between atoms: C_10  and  N_11
REMARK    9  A    between atoms: C_19  and  C_21
REMARK                            x       y       z     vdW  Elec       q    Type
REMARK                         _______ _______ _______ _____ _____    ______ ____
ROOT
ATOM      1  C   UNL     1      48.784   7.653  16.702  0.00  0.00    +0.000 C 
ENDROOT
BRANCH   1   3
ATOM      2  C   UNL     1      50.792   9.074  16.626  0.00  0.00    +0.000 C 
ATOM      3  N   UNL     1      49.351   9.030  16.921  0.00  0.00    +0.000 NA
ATOM      4  C   UNL     1      48.682  10.028  16.076  0.00  0.00    +0.000 C 
ENDBRANCH   1   3
BRANCH   1   5
ATOM      5  C   UNL     1      48.898   6.732  17.938  0.00  0.00    +0.000 C 
ATOM      6  O   UNL     1      49.115   7.207  19.058  0.00  0.00    +0.000 OA
BRANCH   5   7
ATOM      7  C   UNL     1      48.713   5.258  17.820  0.00  0.00    +0.000 A 
ATOM      8  C   UNL     1      47.417   4.758  17.721  0.00  0.00    +0.000 A 
ATOM      9  S   UNL     1      47.339   3.084  17.427  0.00  0.00    +0.000 S 
ATOM     10  C   UNL     1      49.033   2.955  17.428  0.00  0.00    +0.000 A 
ATOM     11  N   UNL     1      49.631   1.766  17.137  0.00  0.00    +0.000 NA
ATOM     12  C   UNL     1      50.925   1.811  17.123  0.00  0.00    +0.000 A 
ATOM     13  N   UNL     1      51.665   2.922  17.412  0.00  0.00    +0.000 N 
ATOM     14  C   UNL     1      51.100   4.078  17.893  0.00  0.00    +0.000 A 
ATOM     15  O   UNL     1      51.806   4.906  18.453  0.00  0.00    +0.000 OA
ATOM     16  C   UNL     1      49.656   4.155  17.747  0.00  0.00    +0.000 A 
ATOM     17  H   UNL     1      52.670   2.857  17.496  0.00  0.00    +0.000 HD
ENDBRANCH   5   7
ENDBRANCH   1   5
BRANCH   1  18
ATOM     18  C   UNL     1      49.377   6.865  15.508  0.00  0.00    +0.000 C 
BRANCH  18  19
ATOM     19  C   UNL     1      48.475   6.552  14.334  0.00  0.00    +0.000 A 
ATOM     20  C   UNL     1      47.657   5.414  14.356  0.00  0.00    +0.000 A 
ATOM     21  C   UNL     1      46.687   5.222  13.371  0.00  0.00    +0.000 A 
ATOM     22  C   UNL     1      46.519   6.162  12.347  0.00  0.00    +0.000 A 
ATOM     23  C   UNL     1      47.387   7.255  12.281  0.00  0.00    +0.000 A 
ATOM     24  C   UNL     1      48.357   7.441  13.262  0.00  0.00    +0.000 A 
BRANCH  22  25
ATOM     25  C   UNL     1      45.412   6.020  11.334  0.00  0.00    +0.000 C 
BRANCH  25  26
ATOM     26  N   UNL     1      45.535   4.814  10.481  0.00  0.00    +0.000 NA
ATOM     27  C   UNL     1      44.321   3.982  10.559  0.00  0.00    +0.000 C 
ATOM     28  C   UNL     1      44.329   2.817   9.567  0.00  0.00    +0.000 C 
ATOM     29  C   UNL     1      44.565   3.309   8.148  0.00  0.00    +0.000 C 
ATOM     30  C   UNL     1      45.864   4.099   8.100  0.00  0.00    +0.000 C 
ATOM     31  C   UNL     1      45.850   5.245   9.110  0.00  0.00    +0.000 C 
ENDBRANCH  25  26
ENDBRANCH  22  25
ENDBRANCH  18  19
ENDBRANCH   1  18
TORSDOF 7
ENDMDL
MODEL 7
REMARK VINA RESULT:    -6.357      3.844      7.304
REMARK INTER + INTRA:          -9.882
REMARK INTER:                  -8.898
REMARK INTRA:                  -0.984
REMARK UNBOUND:                -0.923
REMARK  Name = 
REMARK  9 active torsions:
REMARK  status: ('A' for Active; 'I' for Inactive)
REMARK    1  A    between atoms: C_1  and  N_2
REMARK    2  A    between atoms: N_2  and  C_3
REMARK    3  A    between atoms: N_2  and  C_4
REMARK    4  A    between atoms: C_4  and  C_5
REMARK    5  A    between atoms: C_4  and  C_19
REMARK    6  A    between atoms: C_5  and  C_6
REMARK    7  A    between atoms: C_9  and  C_10
REMARK    8  A    between atoms: C_10  and  N_11
REMARK    9  A    between atoms: C_19  and  C_21
REMARK                            x       y       z     vdW  Elec       q    Type
REMARK                         _______ _______ _______ _____ _____    ______ ____
ROOT
ATOM      1  C   UNL     1      48.167   8.441  13.076  0.00  0.00    +0.000 C 
ENDROOT
BRANCH   1   3
ATOM      2  C   UNL     1      48.106  10.621  11.934  0.00  0.00    +0.000 C 
ATOM      3  N   UNL     1      48.452   9.197  11.805  0.00  0.00    +0.000 NA
ATOM      4  C   UNL     1      49.869   9.104  11.430  0.00  0.00    +0.000 C 
ENDBRANCH   1   3
BRANCH   1   5
ATOM      5  C   UNL     1      46.716   7.920  13.175  0.00  0.00    +0.000 C 
ATOM      6  O   UNL     1      45.769   8.708  13.270  0.00  0.00    +0.000 OA
BRANCH   5   7
ATOM      7  C   UNL     1      46.416   6.461  13.120  0.00  0.00    +0.000 A 
ATOM      8  C   UNL     1      47.348   5.572  13.646  0.00  0.00    +0.000 A 
ATOM      9  S   UNL     1      46.826   3.953  13.677  0.00  0.00    +0.000 S 
ATOM     10  C   UNL     1      45.333   4.371  12.982  0.00  0.00    +0.000 A 
ATOM     11  N   UNL     1      44.364   3.427  12.818  0.00  0.00    +0.000 NA
ATOM     12  C   UNL     1      43.258   3.882  12.323  0.00  0.00    +0.000 A 
ATOM     13  N   UNL     1      43.052   5.178  11.945  0.00  0.00    +0.000 N 
ATOM     14  C   UNL     1      44.065   6.106  11.918  0.00  0.00    +0.000 A 
ATOM     15  O   UNL     1      43.926   7.130  11.263  0.00  0.00    +0.000 OA
ATOM     16  C   UNL     1      45.266   5.715  12.637  0.00  0.00    +0.000 A 
ATOM     17  H   UNL     1      42.205   5.439  11.458  0.00  0.00    +0.000 HD
ENDBRANCH   5   7
ENDBRANCH   1   5
BRANCH   1  18
ATOM     18  C   UNL     1      48.452   9.208  14.390  0.00  0.00    +0.000 C 
BRANCH  18  19
ATOM     19  C   UNL     1      48.977   8.431  15.577  0.00  0.00    +0.000 A 
ATOM     20  C   UNL     1      48.398   8.598  16.843  0.00  0.00    +0.000 A 
ATOM     21  C   UNL     1      48.744   7.749  17.896  0.00  0.00    +0.000 A 
ATOM     22  C   UNL     1      49.675   6.722  17.702  0.00  0.00    +0.000 A 
ATOM     23  C   UNL     1      50.310   6.606  16.463  0.00  0.00    +0.000 A 
ATOM     24  C   UNL     1      49.968   7.457  15.417  0.00  0.00    +0.000 A 
BRANCH  22  25
ATOM     25  C   UNL     1      49.986   5.737  18.801  0.00  0.00    +0.000 C 
BRANCH  25  26
ATOM     26  N   UNL     1      49.480   4.369  18.537  0.00  0.00    +0.000 NA
ATOM     27  C   UNL     1      48.140   4.407  17.926  0.00  0.00    +0.000 C 
ATOM     28  C   UNL     1      47.646   3.030  17.479  0.00  0.00    +0.000 C 
ATOM     29  C   UNL     1      48.651   2.364  16.552  0.00  0.00    +0.000 C 
ATOM     30  C   UNL     1      49.999   2.281  17.250  0.00  0.00    +0.000 C 
ATOM     31  C   UNL     1      50.469   3.659  17.711  0.00  0.00    +0.000 C 
ENDBRANCH  25  26
ENDBRANCH  22  25
ENDBRANCH  18  19
ENDBRANCH   1  18
TORSDOF 7
ENDMDL
MODEL 8
REMARK VINA RESULT:    -6.183      2.358      3.637
REMARK INTER + INTRA:          -9.636
REMARK INTER:                  -8.242
REMARK INTRA:                  -1.394
REMARK UNBOUND:                -0.923
REMARK  Name = 
REMARK  9 active torsions:
REMARK  status: ('A' for Active; 'I' for Inactive)
REMARK    1  A    between atoms: C_1  and  N_2
REMARK    2  A    between atoms: N_2  and  C_3
REMARK    3  A    between atoms: N_2  and  C_4
REMARK    4  A    between atoms: C_4  and  C_5
REMARK    5  A    between atoms: C_4  and  C_19
REMARK    6  A    between atoms: C_5  and  C_6
REMARK    7  A    between atoms: C_9  and  C_10
REMARK    8  A    between atoms: C_10  and  N_11
REMARK    9  A    between atoms: C_19  and  C_21
REMARK                            x       y       z     vdW  Elec       q    Type
REMARK                         _______ _______ _______ _____ _____    ______ ____
ROOT
ATOM      1  C   UNL     1      48.936   8.997  15.791  0.00  0.00    +0.000 C 
ENDROOT
BRANCH   1   3
ATOM      2  C   UNL     1      50.756  10.365  14.856  0.00  0.00    +0.000 C 
ATOM      3  N   UNL     1      49.883  10.145  16.019  0.00  0.00    +0.000 NA
ATOM      4  C   UNL     1      49.158  11.395  16.288  0.00  0.00    +0.000 C 
ENDBRANCH   1   3
BRANCH   1   5
ATOM      5  C   UNL     1      48.912   7.974  16.948  0.00  0.00    +0.000 C 
ATOM      6  O   UNL     1      48.097   8.084  17.870  0.00  0.00    +0.000 OA
BRANCH   5   7
ATOM      7  C   UNL     1      49.843   6.810  16.966  0.00  0.00    +0.000 A 
ATOM      8  C   UNL     1      51.211   7.055  17.050  0.00  0.00    +0.000 A 
ATOM      9  S   UNL     1      52.159   5.653  17.229  0.00  0.00    +0.000 S 
ATOM     10  C   UNL     1      50.782   4.658  17.194  0.00  0.00    +0.000 A 
ATOM     11  N   UNL     1      50.900   3.316  17.394  0.00  0.00    +0.000 NA
ATOM     12  C   UNL     1      49.774   2.677  17.391  0.00  0.00    +0.000 A 
ATOM     13  N   UNL     1      48.557   3.253  17.170  0.00  0.00    +0.000 N 
ATOM     14  C   UNL     1      48.422   4.563  16.777  0.00  0.00    +0.000 A 
ATOM     15  O   UNL     1      47.375   4.935  16.266  0.00  0.00    +0.000 OA
ATOM     16  C   UNL     1      49.617   5.374  16.950  0.00  0.00    +0.000 A 
ATOM     17  H   UNL     1      47.731   2.679  17.066  0.00  0.00    +0.000 HD
ENDBRANCH   5   7
ENDBRANCH   1   5
BRANCH   1  18
ATOM     18  C   UNL     1      49.165   8.188  14.490  0.00  0.00    +0.000 C 
BRANCH  18  19
ATOM     19  C   UNL     1      47.963   7.580  13.800  0.00  0.00    +0.000 A 
ATOM     20  C   UNL     1      46.840   8.368  13.513  0.00  0.00    +0.000 A 
ATOM     21  C   UNL     1      45.813   7.868  12.710  0.00  0.00    +0.000 A 
ATOM     22  C   UNL     1      45.890   6.574  12.183  0.00  0.00    +0.000 A 
ATOM     23  C   UNL     1      46.972   5.762  12.534  0.00  0.00    +0.000 A 
ATOM     24  C   UNL     1      47.991   6.261  13.339  0.00  0.00    +0.000 A 
BRANCH  22  25
ATOM     25  C   UNL     1      44.838   6.056  11.235  0.00  0.00    +0.000 C 
BRANCH  25  26
ATOM     26  N   UNL     1      45.243   4.833  10.504  0.00  0.00    +0.000 NA
ATOM     27  C   UNL     1      44.176   3.817  10.536  0.00  0.00    +0.000 C 
ATOM     28  C   UNL     1      44.477   2.604   9.654  0.00  0.00    +0.000 C 
ATOM     29  C   UNL     1      44.783   3.030   8.226  0.00  0.00    +0.000 C 
ATOM     30  C   UNL     1      45.937   4.021   8.235  0.00  0.00    +0.000 C 
ATOM     31  C   UNL     1      45.631   5.215   9.138  0.00  0.00    +0.000 C 
ENDBRANCH  25  26
ENDBRANCH  22  25
ENDBRANCH  18  19
ENDBRANCH   1  18
TORSDOF 7
ENDMDL
MODEL 9
REMARK VINA RESULT:    -5.857      2.761      4.157
REMARK INTER + INTRA:          -9.178
REMARK INTER:                  -8.342
REMARK INTRA:                  -0.836
REMARK UNBOUND:                -0.923
REMARK  Name = 
REMARK  9 active torsions:
REMARK  status: ('A' for Active; 'I' for Inactive)
REMARK    1  A    between atoms: C_1  and  N_2
REMARK    2  A    between atoms: N_2  and  C_3
REMARK    3  A    between atoms: N_2  and  C_4
REMARK    4  A    between atoms: C_4  and  C_5
REMARK    5  A    between atoms: C_4  and  C_19
REMARK    6  A    between atoms: C_5  and  C_6
REMARK    7  A    between atoms: C_9  and  C_10
REMARK    8  A    between atoms: C_10  and  N_11
REMARK    9  A    between atoms: C_19  and  C_21
REMARK                            x       y       z     vdW  Elec       q    Type
REMARK                         _______ _______ _______ _____ _____    ______ ____
ROOT
ATOM      1  C   UNL     1      49.022   7.408  16.120  0.00  0.00    +0.000 C 
ENDROOT
BRANCH   1   3
ATOM      2  C   UNL     1      49.371   9.680  15.239  0.00  0.00    +0.000 C 
ATOM      3  N   UNL     1      49.212   8.864  16.453  0.00  0.00    +0.000 NA
ATOM      4  C   UNL     1      48.072   9.396  17.213  0.00  0.00    +0.000 C 
ENDBRANCH   1   3
BRANCH   1   5
ATOM      5  C   UNL     1      50.008   6.471  16.852  0.00  0.00    +0.000 C 
ATOM      6  O   UNL     1      50.827   5.799  16.218  0.00  0.00    +0.000 OA
BRANCH   5   7
ATOM      7  C   UNL     1      50.023   6.380  18.340  0.00  0.00    +0.000 A 
ATOM      8  C   UNL     1      51.205   6.683  19.011  0.00  0.00    +0.000 A 
ATOM      9  S   UNL     1      51.056   6.705  20.706  0.00  0.00    +0.000 S 
ATOM     10  C   UNL     1      49.408   6.303  20.615  0.00  0.00    +0.000 A 
ATOM     11  N   UNL     1      48.651   6.251  21.747  0.00  0.00    +0.000 NA
ATOM     12  C   UNL     1      47.402   5.981  21.539  0.00  0.00    +0.000 A 
ATOM     13  N   UNL     1      46.859   5.723  20.313  0.00  0.00    +0.000 N 
ATOM     14  C   UNL     1      47.626   5.579  19.183  0.00  0.00    +0.000 A 
ATOM     15  O   UNL     1      47.155   5.022  18.201  0.00  0.00    +0.000 OA
ATOM     16  C   UNL     1      48.993   6.056  19.313  0.00  0.00    +0.000 A 
ATOM     17  H   UNL     1      45.902   5.406  20.236  0.00  0.00    +0.000 HD
ENDBRANCH   5   7
ENDBRANCH   1   5
BRANCH   1  18
ATOM     18  C   UNL     1      49.105   7.048  14.615  0.00  0.00    +0.000 C 
BRANCH  18  19
ATOM     19  C   UNL     1      47.843   6.595  13.914  0.00  0.00    +0.000 A 
ATOM     20  C   UNL     1      47.350   5.298  14.114  0.00  0.00    +0.000 A 
ATOM     21  C   UNL     1      46.092   4.937  13.629  0.00  0.00    +0.000 A 
ATOM     22  C   UNL     1      45.307   5.865  12.934  0.00  0.00    +0.000 A 
ATOM     23  C   UNL     1      45.832   7.132  12.666  0.00  0.00    +0.000 A 
ATOM     24  C   UNL     1      47.088   7.487  13.146  0.00  0.00    +0.000 A 
BRANCH  22  25
ATOM     25  C   UNL     1      43.908   5.521  12.489  0.00  0.00    +0.000 C 
BRANCH  25  26
ATOM     26  N   UNL     1      43.855   4.761  11.219  0.00  0.00    +0.000 NA
ATOM     27  C   UNL     1      44.929   5.183  10.302  0.00  0.00    +0.000 C 
ATOM     28  C   UNL     1      45.022   4.312   9.048  0.00  0.00    +0.000 C 
ATOM     29  C   UNL     1      45.160   2.842   9.413  0.00  0.00    +0.000 C 
ATOM     30  C   UNL     1      43.993   2.433  10.298  0.00  0.00    +0.000 C 
ATOM     31  C   UNL     1      43.899   3.325  11.534  0.00  0.00    +0.000 C 
ENDBRANCH  25  26
ENDBRANCH  22  25
ENDBRANCH  18  19
ENDBRANCH   1  18
TORSDOF 7
ENDMDL
