MODEL 1
REMARK VINA RESULT:    -7.013      0.000      0.000
REMARK INTER + INTRA:          -9.811
REMARK INTER:                  -8.653
REMARK INTRA:                  -1.158
REMARK UNBOUND:                -1.158
REMARK  Name = 
REMARK  4 active torsions:
REMARK  status: ('A' for Active; 'I' for Inactive)
REMARK    1  A    between atoms: C_8  and  N_9
REMARK    2  A    between atoms: N_9  and  C_10
REMARK    3  A    between atoms: C_10  and  C_11
REMARK    4  A    between atoms: C_15  and  C_16
REMARK                            x       y       z     vdW  Elec       q    Type
REMARK                         _______ _______ _______ _____ _____    ______ ____
ROOT
ATOM      1  C   UNL     1      46.251   7.210  12.349  0.00  0.00    +0.000 C 
ATOM      2  C   UNL     1      47.315   6.640  13.291  0.00  0.00    +0.000 C 
ATOM      3  C   UNL     1      47.700   7.079  11.922  0.00  0.00    +0.000 C 
ENDROOT
BRANCH   1   4
ATOM      4  C   UNL     1      45.231   6.177  11.870  0.00  0.00    +0.000 A 
ATOM      5  C   UNL     1      43.926   6.115  12.382  0.00  0.00    +0.000 A 
ATOM      6  C   UNL     1      42.966   5.278  11.812  0.00  0.00    +0.000 A 
ATOM      7  C   UNL     1      43.295   4.472  10.724  0.00  0.00    +0.000 A 
ATOM      8  C   UNL     1      44.596   4.469  10.207  0.00  0.00    +0.000 A 
ATOM      9  C   UNL     1      45.550   5.307  10.805  0.00  0.00    +0.000 A 
BRANCH   8  10
ATOM     10  C   UNL     1      44.963   3.679   8.965  0.00  0.00    +0.000 C 
ATOM     11  C   UNL     1      45.413   2.260   9.345  0.00  0.00    +0.000 C 
ATOM     12  C   UNL     1      45.885   1.490   8.122  0.00  0.00    +0.000 C 
ATOM     13  O   UNL     1      46.905   2.211   7.433  0.00  0.00    +0.000 OA
ATOM     14  C   UNL     1      46.435   3.466   6.941  0.00  0.00    +0.000 C 
ATOM     15  C   UNL     1      46.021   4.372   8.094  0.00  0.00    +0.000 C 
ENDBRANCH   8  10
ENDBRANCH   1   4
BRANCH   1  16
ATOM     16  N   UNL     1      45.652   8.488  12.797  0.00  0.00    +0.000 N 
ATOM     17  H   UNL     1      44.866   8.356  13.436  0.00  0.00    +0.000 HD
BRANCH  16  25
ATOM     18 CL   UNL     1      42.646  10.708   9.232  0.00  0.00    +0.000 Cl
ATOM     19  C   UNL     1      44.056  10.683  10.219  0.00  0.00    +0.000 A 
ATOM     20  C   UNL     1      45.025  11.665  10.050  0.00  0.00    +0.000 A 
ATOM     21  C   UNL     1      46.180  11.629  10.829  0.00  0.00    +0.000 A 
ATOM     22 CL   UNL     1      47.352  12.873  10.573  0.00  0.00    +0.000 Cl
ATOM     23  C   UNL     1      46.366  10.598  11.766  0.00  0.00    +0.000 A 
ATOM     24 CL   UNL     1      47.804  10.534  12.743  0.00  0.00    +0.000 Cl
ATOM     25  C   UNL     1      45.380   9.595  11.944  0.00  0.00    +0.000 A 
ATOM     26  C   UNL     1      44.224   9.663  11.159  0.00  0.00    +0.000 A 
ENDBRANCH  16  25
ENDBRANCH   1  16
TORSDOF 4
ENDMDL
MODEL 2
REMARK VINA RESULT:    -6.908      3.260      5.315
REMARK INTER + INTRA:          -9.681
REMARK INTER:                  -8.614
REMARK INTRA:                  -1.067
REMARK UNBOUND:                -1.158
REMARK  Name = 
REMARK  4 active torsions:
REMARK  status: ('A' for Active; 'I' for Inactive)
REMARK    1  A    between atoms: C_8  and  N_9
REMARK    2  A    between atoms: N_9  and  C_10
REMARK    3  A    between atoms: C_10  and  C_11
REMARK    4  A    between atoms: C_15  and  C_16
REMARK                            x       y       z     vdW  Elec       q    Type
REMARK                         _______ _______ _______ _____ _____    ______ ____
ROOT
ATOM      1  C   UNL     1      46.276   7.159  12.609  0.00  0.00    +0.000 C 
ATOM      2  C   UNL     1      46.515   8.413  11.765  0.00  0.00    +0.000 C 
ATOM      3  C   UNL     1      45.873   8.534  13.103  0.00  0.00    +0.000 C 
ENDROOT
BRANCH   1   4
ATOM      4  C   UNL     1      45.209   6.223  12.039  0.00  0.00    +0.000 A 
ATOM      5  C   UNL     1      43.873   6.260  12.464  0.00  0.00    +0.000 A 
ATOM      6  C   UNL     1      42.887   5.517  11.812  0.00  0.00    +0.000 A 
ATOM      7  C   UNL     1      43.221   4.708  10.728  0.00  0.00    +0.000 A 
ATOM      8  C   UNL     1      44.549   4.607  10.296  0.00  0.00    +0.000 A 
ATOM      9  C   UNL     1      45.527   5.351  10.976  0.00  0.00    +0.000 A 
BRANCH   8  10
ATOM     10  C   UNL     1      44.933   3.814   9.060  0.00  0.00    +0.000 C 
ATOM     11  C   UNL     1      45.316   2.376   9.443  0.00  0.00    +0.000 C 
ATOM     12  C   UNL     1      45.805   1.599   8.231  0.00  0.00    +0.000 C 
ATOM     13  O   UNL     1      46.875   2.288   7.587  0.00  0.00    +0.000 OA
ATOM     14  C   UNL     1      46.470   3.563   7.090  0.00  0.00    +0.000 C 
ATOM     15  C   UNL     1      46.046   4.475   8.236  0.00  0.00    +0.000 C 
ENDBRANCH   8  10
ENDBRANCH   1   4
BRANCH   1  16
ATOM     16  N   UNL     1      47.509   6.469  13.051  0.00  0.00    +0.000 N 
ATOM     17  H   UNL     1      47.735   5.653  12.481  0.00  0.00    +0.000 HD
BRANCH  16  25
ATOM     18 CL   UNL     1      49.985   7.833  17.373  0.00  0.00    +0.000 Cl
ATOM     19  C   UNL     1      49.024   6.731  16.464  0.00  0.00    +0.000 A 
ATOM     20  C   UNL     1      48.721   5.486  17.000  0.00  0.00    +0.000 A 
ATOM     21  C   UNL     1      47.968   4.583  16.253  0.00  0.00    +0.000 A 
ATOM     22 CL   UNL     1      47.623   3.048  16.969  0.00  0.00    +0.000 Cl
ATOM     23  C   UNL     1      47.534   4.927  14.961  0.00  0.00    +0.000 A 
ATOM     24 CL   UNL     1      46.597   3.810  14.011  0.00  0.00    +0.000 Cl
ATOM     25  C   UNL     1      47.839   6.196  14.409  0.00  0.00    +0.000 A 
ATOM     26  C   UNL     1      48.585   7.089  15.186  0.00  0.00    +0.000 A 
ENDBRANCH  16  25
ENDBRANCH   1  16
TORSDOF 4
ENDMDL
MODEL 3
REMARK VINA RESULT:    -6.694      1.972      3.133
REMARK INTER + INTRA:          -9.418
REMARK INTER:                  -8.200
REMARK INTRA:                  -1.218
REMARK UNBOUND:                -1.158
REMARK  Name = 
REMARK  4 active torsions:
REMARK  status: ('A' for Active; 'I' for Inactive)
REMARK    1  A    between atoms: C_8  and  N_9
REMARK    2  A    between atoms: N_9  and  C_10
REMARK    3  A    between atoms: C_10  and  C_11
REMARK    4  A    between atoms: C_15  and  C_16
REMARK                            x       y       z     vdW  Elec       q    Type
REMARK                         _______ _______ _______ _____ _____    ______ ____
ROOT
ATOM      1  C   UNL     1      46.490   5.313  13.562  0.00  0.00    +0.000 C 
ATOM      2  C   UNL     1      46.407   4.436  14.815  0.00  0.00    +0.000 C 
ATOM      3  C   UNL     1      47.481   4.193  13.813  0.00  0.00    +0.000 C 
ENDROOT
BRANCH   1   4
ATOM      4  C   UNL     1      45.342   5.093  12.575  0.00  0.00    +0.000 A 
ATOM      5  C   UNL     1      44.086   5.695  12.738  0.00  0.00    +0.000 A 
ATOM      6  C   UNL     1      43.113   5.615  11.740  0.00  0.00    +0.000 A 
ATOM      7  C   UNL     1      43.372   4.917  10.562  0.00  0.00    +0.000 A 
ATOM      8  C   UNL     1      44.596   4.265  10.375  0.00  0.00    +0.000 A 
ATOM      9  C   UNL     1      45.555   4.345  11.398  0.00  0.00    +0.000 A 
BRANCH   8  10
ATOM     10  C   UNL     1      44.948   3.580   9.068  0.00  0.00    +0.000 C 
ATOM     11  C   UNL     1      45.451   2.152   9.328  0.00  0.00    +0.000 C 
ATOM     12  C   UNL     1      45.908   1.488   8.039  0.00  0.00    +0.000 C 
ATOM     13  O   UNL     1      46.884   2.291   7.376  0.00  0.00    +0.000 OA
ATOM     14  C   UNL     1      46.362   3.562   6.992  0.00  0.00    +0.000 C 
ATOM     15  C   UNL     1      45.957   4.368   8.221  0.00  0.00    +0.000 C 
ENDBRANCH   8  10
ENDBRANCH   1   4
BRANCH   1  16
ATOM     16  N   UNL     1      46.794   6.737  13.826  0.00  0.00    +0.000 N 
ATOM     17  H   UNL     1      45.994   7.254  14.193  0.00  0.00    +0.000 HD
BRANCH  16  25
ATOM     18 CL   UNL     1      51.259   7.904  11.508  0.00  0.00    +0.000 Cl
ATOM     19  C   UNL     1      49.609   8.237  11.867  0.00  0.00    +0.000 A 
ATOM     20  C   UNL     1      49.046   9.435  11.443  0.00  0.00    +0.000 A 
ATOM     21  C   UNL     1      47.719   9.719  11.759  0.00  0.00    +0.000 A 
ATOM     22 CL   UNL     1      47.074  11.224  11.207  0.00  0.00    +0.000 Cl
ATOM     23  C   UNL     1      46.964   8.805  12.514  0.00  0.00    +0.000 A 
ATOM     24 CL   UNL     1      45.307   9.145  12.922  0.00  0.00    +0.000 Cl
ATOM     25  C   UNL     1      47.532   7.581  12.948  0.00  0.00    +0.000 A 
ATOM     26  C   UNL     1      48.862   7.315  12.605  0.00  0.00    +0.000 A 
ENDBRANCH  16  25
ENDBRANCH   1  16
TORSDOF 4
ENDMDL
MODEL 4
REMARK VINA RESULT:    -6.594      2.289      4.219
REMARK INTER + INTRA:          -9.295
REMARK INTER:                  -8.316
REMARK INTRA:                  -0.979
REMARK UNBOUND:                -1.158
REMARK  Name = 
REMARK  4 active torsions:
REMARK  status: ('A' for Active; 'I' for Inactive)
REMARK    1  A    between atoms: C_8  and  N_9
REMARK    2  A    between atoms: N_9  and  C_10
REMARK    3  A    between atoms: C_10  and  C_11
REMARK    4  A    between atoms: C_15  and  C_16
REMARK                            x       y       z     vdW  Elec       q    Type
REMARK                         _______ _______ _______ _____ _____    ______ ____
ROOT
ATOM      1  C   UNL     1      45.889   7.607  12.120  0.00  0.00    +0.000 C 
ATOM      2  C   UNL     1      45.351   8.887  11.476  0.00  0.00    +0.000 C 
ATOM      3  C   UNL     1      45.326   8.739  12.957  0.00  0.00    +0.000 C 
ENDROOT
BRANCH   1   4
ATOM      4  C   UNL     1      45.029   6.371  11.853  0.00  0.00    +0.000 A 
ATOM      5  C   UNL     1      43.853   6.104  12.570  0.00  0.00    +0.000 A 
ATOM      6  C   UNL     1      42.999   5.065  12.195  0.00  0.00    +0.000 A 
ATOM      7  C   UNL     1      43.311   4.260  11.102  0.00  0.00    +0.000 A 
ATOM      8  C   UNL     1      44.495   4.463  10.383  0.00  0.00    +0.000 A 
ATOM      9  C   UNL     1      45.348   5.503  10.786  0.00  0.00    +0.000 A 
BRANCH   8  10
ATOM     10  C   UNL     1      44.819   3.669   9.131  0.00  0.00    +0.000 C 
ATOM     11  C   UNL     1      45.270   2.247   9.498  0.00  0.00    +0.000 C 
ATOM     12  C   UNL     1      45.698   1.473   8.261  0.00  0.00    +0.000 C 
ATOM     13  O   UNL     1      46.702   2.187   7.541  0.00  0.00    +0.000 OA
ATOM     14  C   UNL     1      46.227   3.444   7.063  0.00  0.00    +0.000 C 
ATOM     15  C   UNL     1      45.854   4.354   8.228  0.00  0.00    +0.000 C 
ENDBRANCH   8  10
ENDBRANCH   1   4
BRANCH   1  16
ATOM     16  N   UNL     1      47.340   7.384  11.930  0.00  0.00    +0.000 N 
ATOM     17  H   UNL     1      47.546   6.702  11.199  0.00  0.00    +0.000 HD
BRANCH  16  25
ATOM     18 CL   UNL     1      48.486   5.512  16.604  0.00  0.00    +0.000 Cl
ATOM     19  C   UNL     1      48.878   6.442  15.209  0.00  0.00    +0.000 A 
ATOM     20  C   UNL     1      50.046   7.194  15.197  0.00  0.00    +0.000 A 
ATOM     21  C   UNL     1      50.350   7.970  14.079  0.00  0.00    +0.000 A 
ATOM     22 CL   UNL     1      51.813   8.888  14.120  0.00  0.00    +0.000 Cl
ATOM     23  C   UNL     1      49.471   7.999  12.983  0.00  0.00    +0.000 A 
ATOM     24 CL   UNL     1      49.831   8.965  11.581  0.00  0.00    +0.000 Cl
ATOM     25  C   UNL     1      48.279   7.232  12.989  0.00  0.00    +0.000 A 
ATOM     26  C   UNL     1      48.006   6.451  14.118  0.00  0.00    +0.000 A 
ENDBRANCH  16  25
ENDBRANCH   1  16
TORSDOF 4
ENDMDL
MODEL 5
REMARK VINA RESULT:    -6.134      3.598      6.079
REMARK INTER + INTRA:          -8.727
REMARK INTER:                  -7.614
REMARK INTRA:                  -1.113
REMARK UNBOUND:                -1.158
REMARK  Name = 
REMARK  4 active torsions:
REMARK  status: ('A' for Active; 'I' for Inactive)
REMARK    1  A    between atoms: C_8  and  N_9
REMARK    2  A    between atoms: N_9  and  C_10
REMARK    3  A    between atoms: C_10  and  C_11
REMARK    4  A    between atoms: C_15  and  C_16
REMARK                            x       y       z     vdW  Elec       q    Type
REMARK                         _______ _______ _______ _____ _____    ______ ____
ROOT
ATOM      1  C   UNL     1      48.330   7.785  12.986  0.00  0.00    +0.000 C 
ATOM      2  C   UNL     1      49.358   8.224  11.940  0.00  0.00    +0.000 C 
ATOM      3  C   UNL     1      49.170   9.033  13.176  0.00  0.00    +0.000 C 
ENDROOT
BRANCH   1   4
ATOM      4  C   UNL     1      46.878   7.921  12.522  0.00  0.00    +0.000 A 
ATOM      5  C   UNL     1      46.250   9.166  12.374  0.00  0.00    +0.000 A 
ATOM      6  C   UNL     1      44.987   9.272  11.789  0.00  0.00    +0.000 A 
ATOM      7  C   UNL     1      44.318   8.130  11.354  0.00  0.00    +0.000 A 
ATOM      8  C   UNL     1      44.888   6.863  11.520  0.00  0.00    +0.000 A 
ATOM      9  C   UNL     1      46.153   6.777  12.124  0.00  0.00    +0.000 A 
BRANCH   8  10
ATOM     10  C   UNL     1      44.232   5.610  10.970  0.00  0.00    +0.000 C 
ATOM     11  C   UNL     1      43.841   4.662  12.115  0.00  0.00    +0.000 C 
ATOM     12  C   UNL     1      43.279   3.356  11.576  0.00  0.00    +0.000 C 
ATOM     13  O   UNL     1      44.194   2.750  10.665  0.00  0.00    +0.000 OA
ATOM     14  C   UNL     1      44.433   3.569   9.520  0.00  0.00    +0.000 C 
ATOM     15  C   UNL     1      45.092   4.881   9.928  0.00  0.00    +0.000 C 
ENDBRANCH   8  10
ENDBRANCH   1   4
BRANCH   1  16
ATOM     16  N   UNL     1      48.634   6.496  13.647  0.00  0.00    +0.000 N 
ATOM     17  H   UNL     1      48.336   5.687  13.098  0.00  0.00    +0.000 HD
BRANCH  16  25
ATOM     18 CL   UNL     1      49.540   7.696  18.586  0.00  0.00    +0.000 Cl
ATOM     19  C   UNL     1      48.848   6.684  17.379  0.00  0.00    +0.000 A 
ATOM     20  C   UNL     1      48.231   5.497  17.754  0.00  0.00    +0.000 A 
ATOM     21  C   UNL     1      47.696   4.663  16.774  0.00  0.00    +0.000 A 
ATOM     22 CL   UNL     1      46.943   3.199  17.298  0.00  0.00    +0.000 Cl
ATOM     23  C   UNL     1      47.796   5.017  15.417  0.00  0.00    +0.000 A 
ATOM     24 CL   UNL     1      47.138   3.985  14.180  0.00  0.00    +0.000 Cl
ATOM     25  C   UNL     1      48.423   6.227  15.028  0.00  0.00    +0.000 A 
ATOM     26  C   UNL     1      48.939   7.053  16.033  0.00  0.00    +0.000 A 
ENDBRANCH  16  25
ENDBRANCH   1  16
TORSDOF 4
ENDMDL
MODEL 6
REMARK VINA RESULT:    -5.997      3.665      5.992
REMARK INTER + INTRA:          -8.557
REMARK INTER:                  -7.477
REMARK INTRA:                  -1.080
REMARK UNBOUND:                -1.158
REMARK  Name = 
REMARK  4 active torsions:
REMARK  status: ('A' for Active; 'I' for Inactive)
REMARK    1  A    between atoms: C_8  and  N_9
REMARK    2  A    between atoms: N_9  and  C_10
REMARK    3  A    between atoms: C_10  and  C_11
REMARK    4  A    between atoms: C_15  and  C_16
REMARK                            x       y       z     vdW  Elec       q    Type
REMARK                         _______ _______ _______ _____ _____    ______ ____
ROOT
ATOM      1  C   UNL     1      49.284   7.861  12.643  0.00  0.00    +0.000 C 
ATOM      2  C   UNL     1      50.074   7.607  11.357  0.00  0.00    +0.000 C 
ATOM      3  C   UNL     1      49.998   8.984  11.916  0.00  0.00    +0.000 C 
ENDROOT
BRANCH   1   4
ATOM      4  C   UNL     1      47.771   7.705  12.482  0.00  0.00    +0.000 A 
ATOM      5  C   UNL     1      46.913   8.805  12.336  0.00  0.00    +0.000 A 
ATOM      6  C   UNL     1      45.564   8.631  12.022  0.00  0.00    +0.000 A 
ATOM      7  C   UNL     1      45.041   7.350  11.861  0.00  0.00    +0.000 A 
ATOM      8  C   UNL     1      45.850   6.222  12.039  0.00  0.00    +0.000 A 
ATOM      9  C   UNL     1      47.201   6.419  12.370  0.00  0.00    +0.000 A 
BRANCH   8  10
ATOM     10  C   UNL     1      45.338   4.818  11.776  0.00  0.00    +0.000 C 
ATOM     11  C   UNL     1      44.910   4.669  10.308  0.00  0.00    +0.000 C 
ATOM     12  C   UNL     1      44.296   3.301  10.053  0.00  0.00    +0.000 C 
ATOM     13  O   UNL     1      43.219   3.056  10.956  0.00  0.00    +0.000 OA
ATOM     14  C   UNL     1      43.651   3.038  12.315  0.00  0.00    +0.000 C 
ATOM     15  C   UNL     1      44.203   4.399  12.720  0.00  0.00    +0.000 C 
ENDBRANCH   8  10
ENDBRANCH   1   4
BRANCH   1  16
ATOM     16  N   UNL     1      49.835   7.197  13.847  0.00  0.00    +0.000 N 
ATOM     17  H   UNL     1      49.707   6.184  13.836  0.00  0.00    +0.000 HD
BRANCH  16  25
ATOM     18 CL   UNL     1      51.154  10.546  17.550  0.00  0.00    +0.000 Cl
ATOM     19  C   UNL     1      50.280   9.170  16.996  0.00  0.00    +0.000 A 
ATOM     20  C   UNL     1      49.549   8.414  17.904  0.00  0.00    +0.000 A 
ATOM     21  C   UNL     1      48.865   7.284  17.462  0.00  0.00    +0.000 A 
ATOM     22 CL   UNL     1      47.975   6.381  18.636  0.00  0.00    +0.000 Cl
ATOM     23  C   UNL     1      48.929   6.907  16.109  0.00  0.00    +0.000 A 
ATOM     24 CL   UNL     1      48.085   5.495  15.540  0.00  0.00    +0.000 Cl
ATOM     25  C   UNL     1      49.671   7.674  15.178  0.00  0.00    +0.000 A 
ATOM     26  C   UNL     1      50.337   8.812  15.646  0.00  0.00    +0.000 A 
ENDBRANCH  16  25
ENDBRANCH   1  16
TORSDOF 4
ENDMDL
MODEL 7
REMARK VINA RESULT:    -5.984      3.528      5.733
REMARK INTER + INTRA:          -8.542
REMARK INTER:                  -7.547
REMARK INTRA:                  -0.994
REMARK UNBOUND:                -1.158
REMARK  Name = 
REMARK  4 active torsions:
REMARK  status: ('A' for Active; 'I' for Inactive)
REMARK    1  A    between atoms: C_8  and  N_9
REMARK    2  A    between atoms: N_9  and  C_10
REMARK    3  A    between atoms: C_10  and  C_11
REMARK    4  A    between atoms: C_15  and  C_16
REMARK                            x       y       z     vdW  Elec       q    Type
REMARK                         _______ _______ _______ _____ _____    ______ ____
ROOT
ATOM      1  C   UNL     1      49.400   7.894  12.774  0.00  0.00    +0.000 C 
ATOM      2  C   UNL     1      50.013   7.563  11.411  0.00  0.00    +0.000 C 
ATOM      3  C   UNL     1      49.972   8.976  11.880  0.00  0.00    +0.000 C 
ENDROOT
BRANCH   1   4
ATOM      4  C   UNL     1      47.884   7.694  12.836  0.00  0.00    +0.000 A 
ATOM      5  C   UNL     1      46.994   8.759  13.042  0.00  0.00    +0.000 A 
ATOM      6  C   UNL     1      45.615   8.579  12.925  0.00  0.00    +0.000 A 
ATOM      7  C   UNL     1      45.095   7.324  12.615  0.00  0.00    +0.000 A 
ATOM      8  C   UNL     1      45.943   6.224  12.443  0.00  0.00    +0.000 A 
ATOM      9  C   UNL     1      47.327   6.424  12.580  0.00  0.00    +0.000 A 
BRANCH   8  10
ATOM     10  C   UNL     1      45.419   4.867  12.009  0.00  0.00    +0.000 C 
ATOM     11  C   UNL     1      45.017   4.897  10.526  0.00  0.00    +0.000 C 
ATOM     12  C   UNL     1      44.391   3.577  10.103  0.00  0.00    +0.000 C 
ATOM     13  O   UNL     1      43.295   3.243  10.953  0.00  0.00    +0.000 OA
ATOM     14  C   UNL     1      43.702   3.059  12.308  0.00  0.00    +0.000 C 
ATOM     15  C   UNL     1      44.262   4.357  12.879  0.00  0.00    +0.000 C 
ENDBRANCH   8  10
ENDBRANCH   1   4
BRANCH   1  16
ATOM     16  N   UNL     1      50.130   7.330  13.932  0.00  0.00    +0.000 N 
ATOM     17  H   UNL     1      50.486   6.389  13.758  0.00  0.00    +0.000 HD
BRANCH  16  25
ATOM     18 CL   UNL     1      47.688   5.209  17.957  0.00  0.00    +0.000 Cl
ATOM     19  C   UNL     1      48.507   6.523  17.207  0.00  0.00    +0.000 A 
ATOM     20  C   UNL     1      48.584   7.745  17.865  0.00  0.00    +0.000 A 
ATOM     21  C   UNL     1      49.221   8.818  17.245  0.00  0.00    +0.000 A 
ATOM     22 CL   UNL     1      49.284  10.314  18.109  0.00  0.00    +0.000 Cl
ATOM     23  C   UNL     1      49.768   8.665  15.959  0.00  0.00    +0.000 A 
ATOM     24 CL   UNL     1      50.563   9.996  15.168  0.00  0.00    +0.000 Cl
ATOM     25  C   UNL     1      49.694   7.421  15.284  0.00  0.00    +0.000 A 
ATOM     26  C   UNL     1      49.061   6.357  15.935  0.00  0.00    +0.000 A 
ENDBRANCH  16  25
ENDBRANCH   1  16
TORSDOF 4
ENDMDL
MODEL 8
REMARK VINA RESULT:    -5.926      3.967      6.478
REMARK INTER + INTRA:          -8.470
REMARK INTER:                  -8.092
REMARK INTRA:                  -0.377
REMARK UNBOUND:                -1.158
REMARK  Name = 
REMARK  4 active torsions:
REMARK  status: ('A' for Active; 'I' for Inactive)
REMARK    1  A    between atoms: C_8  and  N_9
REMARK    2  A    between atoms: N_9  and  C_10
REMARK    3  A    between atoms: C_10  and  C_11
REMARK    4  A    between atoms: C_15  and  C_16
REMARK                            x       y       z     vdW  Elec       q    Type
REMARK                         _______ _______ _______ _____ _____    ______ ____
ROOT
ATOM      1  C   UNL     1      48.446   7.919  14.096  0.00  0.00    +0.000 C 
ATOM      2  C   UNL     1      49.633   7.322  13.336  0.00  0.00    +0.000 C 
ATOM      3  C   UNL     1      49.497   8.800  13.449  0.00  0.00    +0.000 C 
ENDROOT
BRANCH   1   4
ATOM      4  C   UNL     1      47.100   7.719  13.396  0.00  0.00    +0.000 A 
ATOM      5  C   UNL     1      46.344   8.791  12.900  0.00  0.00    +0.000 A 
ATOM      6  C   UNL     1      45.208   8.573  12.120  0.00  0.00    +0.000 A 
ATOM      7  C   UNL     1      44.794   7.274  11.831  0.00  0.00    +0.000 A 
ATOM      8  C   UNL     1      45.493   6.174  12.340  0.00  0.00    +0.000 A 
ATOM      9  C   UNL     1      46.625   6.416  13.136  0.00  0.00    +0.000 A 
BRANCH   8  10
ATOM     10  C   UNL     1      45.129   4.749  11.966  0.00  0.00    +0.000 C 
ATOM     11  C   UNL     1      44.781   4.659  10.472  0.00  0.00    +0.000 C 
ATOM     12  C   UNL     1      44.311   3.260  10.104  0.00  0.00    +0.000 C 
ATOM     13  O   UNL     1      43.224   2.858  10.935  0.00  0.00    +0.000 OA
ATOM     14  C   UNL     1      43.597   2.789  12.310  0.00  0.00    +0.000 C 
ATOM     15  C   UNL     1      43.999   4.166  12.826  0.00  0.00    +0.000 C 
ENDBRANCH   8  10
ENDBRANCH   1   4
BRANCH   1  16
ATOM     16  N   UNL     1      48.424   7.614  15.544  0.00  0.00    +0.000 N 
ATOM     17  H   UNL     1      48.720   8.403  16.121  0.00  0.00    +0.000 HD
BRANCH  16  25
ATOM     18 CL   UNL     1      47.475   2.840  17.267  0.00  0.00    +0.000 Cl
ATOM     19  C   UNL     1      48.533   4.174  17.013  0.00  0.00    +0.000 A 
ATOM     20  C   UNL     1      49.819   4.136  17.540  0.00  0.00    +0.000 A 
ATOM     21  C   UNL     1      50.665   5.228  17.360  0.00  0.00    +0.000 A 
ATOM     22 CL   UNL     1      52.251   5.126  18.039  0.00  0.00    +0.000 Cl
ATOM     23  C   UNL     1      50.214   6.362  16.663  0.00  0.00    +0.000 A 
ATOM     24 CL   UNL     1      51.256   7.736  16.433  0.00  0.00    +0.000 Cl
ATOM     25  C   UNL     1      48.904   6.406  16.123  0.00  0.00    +0.000 A 
ATOM     26  C   UNL     1      48.079   5.290  16.306  0.00  0.00    +0.000 A 
ENDBRANCH  16  25
ENDBRANCH   1  16
TORSDOF 4
ENDMDL
MODEL 9
REMARK VINA RESULT:    -5.724      4.111      7.197
REMARK INTER + INTRA:          -8.221
REMARK INTER:                  -7.380
REMARK INTRA:                  -0.841
REMARK UNBOUND:                -1.158
REMARK  Name = 
REMARK  4 active torsions:
REMARK  status: ('A' for Active; 'I' for Inactive)
REMARK    1  A    between atoms: C_8  and  N_9
REMARK    2  A    between atoms: N_9  and  C_10
REMARK    3  A    between atoms: C_10  and  C_11
REMARK    4  A    between atoms: C_15  and  C_16
REMARK                            x       y       z     vdW  Elec       q    Type
REMARK                         _______ _______ _______ _____ _____    ______ ____
ROOT
ATOM      1  C   UNL     1      48.579   8.215  12.620  0.00  0.00    +0.000 C 
ATOM      2  C   UNL     1      49.450   9.211  11.850  0.00  0.00    +0.000 C 
ATOM      3  C   UNL     1      49.755   7.755  11.781  0.00  0.00    +0.000 C 
ENDROOT
BRANCH   1   4
ATOM      4  C   UNL     1      48.730   8.306  14.140  0.00  0.00    +0.000 A 
ATOM      5  C   UNL     1      48.479   9.489  14.850  0.00  0.00    +0.000 A 
ATOM      6  C   UNL     1      48.460   9.503  16.246  0.00  0.00    +0.000 A 
ATOM      7  C   UNL     1      48.707   8.333  16.962  0.00  0.00    +0.000 A 
ATOM      8  C   UNL     1      49.005   7.139  16.295  0.00  0.00    +0.000 A 
ATOM      9  C   UNL     1      49.034   7.151  14.891  0.00  0.00    +0.000 A 
BRANCH   8  10
ATOM     10  C   UNL     1      49.183   5.828  17.039  0.00  0.00    +0.000 C 
ATOM     11  C   UNL     1      50.660   5.406  17.037  0.00  0.00    +0.000 C 
ATOM     12  C   UNL     1      50.841   4.043  17.686  0.00  0.00    +0.000 C 
ATOM     13  O   UNL     1      50.003   3.072  17.061  0.00  0.00    +0.000 OA
ATOM     14  C   UNL     1      48.619   3.386  17.203  0.00  0.00    +0.000 C 
ATOM     15  C   UNL     1      48.292   4.699  16.501  0.00  0.00    +0.000 C 
ENDBRANCH   8  10
ENDBRANCH   1   4
BRANCH   1  16
ATOM     16  N   UNL     1      47.174   8.138  12.158  0.00  0.00    +0.000 N 
ATOM     17  H   UNL     1      46.650   8.997  12.333  0.00  0.00    +0.000 HD
BRANCH  16  25
ATOM     18 CL   UNL     1      46.598   3.176  13.465  0.00  0.00    +0.000 Cl
ATOM     19  C   UNL     1      45.967   4.674  12.898  0.00  0.00    +0.000 A 
ATOM     20  C   UNL     1      44.649   4.739  12.462  0.00  0.00    +0.000 A 
ATOM     21  C   UNL     1      44.146   5.944  11.976  0.00  0.00    +0.000 A 
ATOM     22 CL   UNL     1      42.502   5.965  11.446  0.00  0.00    +0.000 Cl
ATOM     23  C   UNL     1      44.974   7.078  11.914  0.00  0.00    +0.000 A 
ATOM     24 CL   UNL     1      44.365   8.590  11.305  0.00  0.00    +0.000 Cl
ATOM     25  C   UNL     1      46.319   7.019  12.358  0.00  0.00    +0.000 A 
ATOM     26  C   UNL     1      46.794   5.800  12.855  0.00  0.00    +0.000 A 
ENDBRANCH  16  25
ENDBRANCH   1  16
TORSDOF 4
ENDMDL
