MODEL 1
REMARK VINA RESULT:    -8.411      0.000      0.000
REMARK INTER + INTRA:         -11.972
REMARK INTER:                 -11.361
REMARK INTRA:                  -0.611
REMARK UNBOUND:                -0.611
REMARK  Name = 
REMARK  7 active torsions:
REMARK  status: ('A' for Active; 'I' for Inactive)
REMARK    1  A    between atoms: C_1  and  C_2
REMARK    2  A    between atoms: C_6  and  C_7
REMARK    3  A    between atoms: N_9  and  C_10
REMARK    4  A    between atoms: C_10  and  C_11
REMARK    5  A    between atoms: C_14  and  C_15
REMARK    6  A    between atoms: C_15  and  N_16
REMARK    7  A    between atoms: C_17  and  C_19
REMARK                            x       y       z     vdW  Elec       q    Type
REMARK                         _______ _______ _______ _____ _____    ______ ____
ROOT
ATOM      1  C   UNL     1      44.583   5.482  11.318  0.00  0.00    +0.000 A 
ATOM      2  C   UNL     1      45.694   4.968  12.000  0.00  0.00    +0.000 A 
ATOM      3  C   UNL     1      46.577   5.817  12.681  0.00  0.00    +0.000 A 
ATOM      4  C   UNL     1      46.355   7.200  12.713  0.00  0.00    +0.000 A 
ATOM      5  C   UNL     1      45.251   7.716  12.020  0.00  0.00    +0.000 A 
ATOM      6  C   UNL     1      44.367   6.867  11.341  0.00  0.00    +0.000 A 
ENDROOT
BRANCH   1   7
ATOM      7  C   UNL     1      43.667   4.568  10.545  0.00  0.00    +0.000 C 
BRANCH   7  10
ATOM      8  C   UNL     1      45.211   3.956   8.741  0.00  0.00    +0.000 C 
ATOM      9  O   UNL     1      45.424   5.127   8.441  0.00  0.00    +0.000 OA
ATOM     10  N   UNL     1      44.361   3.578   9.764  0.00  0.00    +0.000 N 
ATOM     11  H   UNL     1      44.235   2.584   9.928  0.00  0.00    +0.000 HD
BRANCH   8  17
ATOM     12  C   UNL     1      47.673   2.226   4.731  0.00  0.00    +0.000 C 
ATOM     13  C   UNL     1      47.058   2.009   6.081  0.00  0.00    +0.000 A 
ATOM     14  C   UNL     1      47.085   0.759   6.702  0.00  0.00    +0.000 A 
ATOM     15  C   UNL     1      46.499   0.619   7.953  0.00  0.00    +0.000 A 
ATOM     16  N   UNL     1      45.890   1.619   8.622  0.00  0.00    +0.000 NA
ATOM     17  C   UNL     1      45.876   2.832   8.003  0.00  0.00    +0.000 A 
ATOM     18  C   UNL     1      46.436   3.068   6.749  0.00  0.00    +0.000 A 
ENDBRANCH   8  17
ENDBRANCH   7  10
ENDBRANCH   1   7
BRANCH   4  19
ATOM     19  C   UNL     1      47.279   8.128  13.464  0.00  0.00    +0.000 C 
BRANCH  19  20
ATOM     20  N   UNL     1      47.746   7.545  14.698  0.00  0.00    +0.000 N 
ATOM     21  C   UNL     1      49.007   7.014  14.802  0.00  0.00    +0.000 C 
ATOM     22  O   UNL     1      49.807   7.041  13.870  0.00  0.00    +0.000 OA
ATOM     23  H   UNL     1      47.037   7.272  15.371  0.00  0.00    +0.000 HD
BRANCH  21  24
ATOM     24  C   UNL     1      49.377   6.460  16.113  0.00  0.00    +0.000 A 
ATOM     25  C   UNL     1      50.381   7.062  16.861  0.00  0.00    +0.000 A 
ATOM     26  S   UNL     1      50.641   6.318  18.375  0.00  0.00    +0.000 S 
ATOM     27  C   UNL     1      49.459   5.137  18.059  0.00  0.00    +0.000 A 
ATOM     28  N   UNL     1      49.189   4.151  18.962  0.00  0.00    +0.000 NA
ATOM     29  C   UNL     1      48.288   3.310  18.575  0.00  0.00    +0.000 A 
ATOM     30  N   UNL     1      47.622   3.371  17.380  0.00  0.00    +0.000 N 
ATOM     31  C   UNL     1      47.840   4.363  16.456  0.00  0.00    +0.000 A 
ATOM     32  O   UNL     1      47.184   4.414  15.414  0.00  0.00    +0.000 OA
ATOM     33  C   UNL     1      48.856   5.325  16.830  0.00  0.00    +0.000 A 
ATOM     34  H   UNL     1      46.915   2.689  17.144  0.00  0.00    +0.000 HD
ENDBRANCH  21  24
ENDBRANCH  19  20
ENDBRANCH   4  19
TORSDOF 6
ENDMDL
MODEL 2
REMARK VINA RESULT:    -7.963      1.249      1.689
REMARK INTER + INTRA:         -11.368
REMARK INTER:                 -10.488
REMARK INTRA:                  -0.880
REMARK UNBOUND:                -0.611
REMARK  Name = 
REMARK  7 active torsions:
REMARK  status: ('A' for Active; 'I' for Inactive)
REMARK    1  A    between atoms: C_1  and  C_2
REMARK    2  A    between atoms: C_6  and  C_7
REMARK    3  A    between atoms: N_9  and  C_10
REMARK    4  A    between atoms: C_10  and  C_11
REMARK    5  A    between atoms: C_14  and  C_15
REMARK    6  A    between atoms: C_15  and  N_16
REMARK    7  A    between atoms: C_17  and  C_19
REMARK                            x       y       z     vdW  Elec       q    Type
REMARK                         _______ _______ _______ _____ _____    ______ ____
ROOT
ATOM      1  C   UNL     1      45.202   6.749  11.743  0.00  0.00    +0.000 A 
ATOM      2  C   UNL     1      46.266   6.124  12.407  0.00  0.00    +0.000 A 
ATOM      3  C   UNL     1      47.136   6.860  13.224  0.00  0.00    +0.000 A 
ATOM      4  C   UNL     1      46.947   8.236  13.412  0.00  0.00    +0.000 A 
ATOM      5  C   UNL     1      45.890   8.862  12.737  0.00  0.00    +0.000 A 
ATOM      6  C   UNL     1      45.019   8.127  11.923  0.00  0.00    +0.000 A 
ENDROOT
BRANCH   1   7
ATOM      7  C   UNL     1      44.301   5.960  10.827  0.00  0.00    +0.000 C 
BRANCH   7  10
ATOM      8  C   UNL     1      44.754   3.880   9.610  0.00  0.00    +0.000 C 
ATOM      9  O   UNL     1      43.929   3.246  10.262  0.00  0.00    +0.000 OA
ATOM     10  N   UNL     1      45.009   5.224   9.813  0.00  0.00    +0.000 N 
ATOM     11  H   UNL     1      45.720   5.660   9.234  0.00  0.00    +0.000 HD
BRANCH   8  17
ATOM     12  C   UNL     1      46.828  -0.209   7.581  0.00  0.00    +0.000 C 
ATOM     13  C   UNL     1      46.542   1.263   7.554  0.00  0.00    +0.000 A 
ATOM     14  C   UNL     1      47.006   2.076   6.518  0.00  0.00    +0.000 A 
ATOM     15  C   UNL     1      46.709   3.433   6.547  0.00  0.00    +0.000 A 
ATOM     16  N   UNL     1      45.999   4.034   7.522  0.00  0.00    +0.000 NA
ATOM     17  C   UNL     1      45.553   3.225   8.523  0.00  0.00    +0.000 A 
ATOM     18  C   UNL     1      45.802   1.855   8.581  0.00  0.00    +0.000 A 
ENDBRANCH   8  17
ENDBRANCH   7  10
ENDBRANCH   1   7
BRANCH   4  19
ATOM     19  C   UNL     1      47.857   9.039  14.309  0.00  0.00    +0.000 C 
BRANCH  19  20
ATOM     20  N   UNL     1      48.084   8.387  15.574  0.00  0.00    +0.000 N 
ATOM     21  C   UNL     1      49.245   7.700  15.823  0.00  0.00    +0.000 C 
ATOM     22  O   UNL     1      50.156   7.637  15.001  0.00  0.00    +0.000 OA
ATOM     23  H   UNL     1      47.265   8.197  16.144  0.00  0.00    +0.000 HD
BRANCH  21  24
ATOM     24  C   UNL     1      49.370   7.088  17.154  0.00  0.00    +0.000 A 
ATOM     25  C   UNL     1      49.923   7.814  18.202  0.00  0.00    +0.000 A 
ATOM     26  S   UNL     1      49.941   6.966  19.682  0.00  0.00    +0.000 S 
ATOM     27  C   UNL     1      49.261   5.583  18.963  0.00  0.00    +0.000 A 
ATOM     28  N   UNL     1      49.028   4.453  19.689  0.00  0.00    +0.000 NA
ATOM     29  C   UNL     1      48.535   3.475  19.004  0.00  0.00    +0.000 A 
ATOM     30  N   UNL     1      48.239   3.526  17.668  0.00  0.00    +0.000 N 
ATOM     31  C   UNL     1      48.428   4.653  16.906  0.00  0.00    +0.000 A 
ATOM     32  O   UNL     1      48.100   4.676  15.718  0.00  0.00    +0.000 OA
ATOM     33  C   UNL     1      48.998   5.776  17.620  0.00  0.00    +0.000 A 
ATOM     34  H   UNL     1      47.838   2.729  17.194  0.00  0.00    +0.000 HD
ENDBRANCH  21  24
ENDBRANCH  19  20
ENDBRANCH   4  19
TORSDOF 6
ENDMDL
MODEL 3
REMARK VINA RESULT:    -7.864      2.617      3.092
REMARK INTER + INTRA:         -11.233
REMARK INTER:                 -10.367
REMARK INTRA:                  -0.867
REMARK UNBOUND:                -0.611
REMARK  Name = 
REMARK  7 active torsions:
REMARK  status: ('A' for Active; 'I' for Inactive)
REMARK    1  A    between atoms: C_1  and  C_2
REMARK    2  A    between atoms: C_6  and  C_7
REMARK    3  A    between atoms: N_9  and  C_10
REMARK    4  A    between atoms: C_10  and  C_11
REMARK    5  A    between atoms: C_14  and  C_15
REMARK    6  A    between atoms: C_15  and  N_16
REMARK    7  A    between atoms: C_17  and  C_19
REMARK                            x       y       z     vdW  Elec       q    Type
REMARK                         _______ _______ _______ _____ _____    ______ ____
ROOT
ATOM      1  C   UNL     1      45.352   6.774  11.865  0.00  0.00    +0.000 A 
ATOM      2  C   UNL     1      45.227   8.169  11.915  0.00  0.00    +0.000 A 
ATOM      3  C   UNL     1      46.040   8.935  12.761  0.00  0.00    +0.000 A 
ATOM      4  C   UNL     1      47.014   8.323  13.561  0.00  0.00    +0.000 A 
ATOM      5  C   UNL     1      47.130   6.927  13.520  0.00  0.00    +0.000 A 
ATOM      6  C   UNL     1      46.319   6.162  12.673  0.00  0.00    +0.000 A 
ENDROOT
BRANCH   1   7
ATOM      7  C   UNL     1      44.439   5.953  10.990  0.00  0.00    +0.000 C 
BRANCH   7  10
ATOM      8  C   UNL     1      44.717   3.948   9.606  0.00  0.00    +0.000 C 
ATOM      9  O   UNL     1      43.762   3.379  10.126  0.00  0.00    +0.000 OA
ATOM     10  N   UNL     1      45.129   5.219   9.962  0.00  0.00    +0.000 N 
ATOM     11  H   UNL     1      45.940   5.601   9.485  0.00  0.00    +0.000 HD
BRANCH   8  17
ATOM     12  C   UNL     1      46.829  -0.141   7.617  0.00  0.00    +0.000 C 
ATOM     13  C   UNL     1      46.522   1.326   7.570  0.00  0.00    +0.000 A 
ATOM     14  C   UNL     1      46.963   2.130   6.518  0.00  0.00    +0.000 A 
ATOM     15  C   UNL     1      46.647   3.482   6.529  0.00  0.00    +0.000 A 
ATOM     16  N   UNL     1      45.939   4.088   7.502  0.00  0.00    +0.000 NA
ATOM     17  C   UNL     1      45.515   3.288   8.520  0.00  0.00    +0.000 A 
ATOM     18  C   UNL     1      45.784   1.923   8.596  0.00  0.00    +0.000 A 
ENDBRANCH   8  17
ENDBRANCH   7  10
ENDBRANCH   1   7
BRANCH   4  19
ATOM     19  C   UNL     1      47.918   9.134  14.458  0.00  0.00    +0.000 C 
BRANCH  19  20
ATOM     20  N   UNL     1      47.649   8.898  15.854  0.00  0.00    +0.000 N 
ATOM     21  C   UNL     1      48.215   9.679  16.830  0.00  0.00    +0.000 C 
ATOM     22  O   UNL     1      48.943  10.632  16.565  0.00  0.00    +0.000 OA
ATOM     23  H   UNL     1      47.288   7.982  16.102  0.00  0.00    +0.000 HD
BRANCH  21  24
ATOM     24  C   UNL     1      47.857   9.352  18.219  0.00  0.00    +0.000 A 
ATOM     25  C   UNL     1      47.418  10.354  19.075  0.00  0.00    +0.000 A 
ATOM     26  S   UNL     1      46.998   9.786  20.629  0.00  0.00    +0.000 S 
ATOM     27  C   UNL     1      47.439   8.194  20.226  0.00  0.00    +0.000 A 
ATOM     28  N   UNL     1      47.346   7.185  21.139  0.00  0.00    +0.000 NA
ATOM     29  C   UNL     1      47.741   6.035  20.700  0.00  0.00    +0.000 A 
ATOM     30  N   UNL     1      48.205   5.798  19.433  0.00  0.00    +0.000 N 
ATOM     31  C   UNL     1      48.285   6.778  18.474  0.00  0.00    +0.000 A 
ATOM     32  O   UNL     1      48.659   6.514  17.330  0.00  0.00    +0.000 OA
ATOM     33  C   UNL     1      47.873   8.093  18.918  0.00  0.00    +0.000 A 
ATOM     34  H   UNL     1      48.484   4.870  19.148  0.00  0.00    +0.000 HD
ENDBRANCH  21  24
ENDBRANCH  19  20
ENDBRANCH   4  19
TORSDOF 6
ENDMDL
MODEL 4
REMARK VINA RESULT:    -7.063      2.627      4.356
REMARK INTER + INTRA:         -10.151
REMARK INTER:                  -9.244
REMARK INTRA:                  -0.908
REMARK UNBOUND:                -0.611
REMARK  Name = 
REMARK  7 active torsions:
REMARK  status: ('A' for Active; 'I' for Inactive)
REMARK    1  A    between atoms: C_1  and  C_2
REMARK    2  A    between atoms: C_6  and  C_7
REMARK    3  A    between atoms: N_9  and  C_10
REMARK    4  A    between atoms: C_10  and  C_11
REMARK    5  A    between atoms: C_14  and  C_15
REMARK    6  A    between atoms: C_15  and  N_16
REMARK    7  A    between atoms: C_17  and  C_19
REMARK                            x       y       z     vdW  Elec       q    Type
REMARK                         _______ _______ _______ _____ _____    ______ ____
ROOT
ATOM      1  C   UNL     1      47.984   7.991  13.569  0.00  0.00    +0.000 A 
ATOM      2  C   UNL     1      48.039   9.140  14.370  0.00  0.00    +0.000 A 
ATOM      3  C   UNL     1      48.423   9.061  15.715  0.00  0.00    +0.000 A 
ATOM      4  C   UNL     1      48.782   7.832  16.284  0.00  0.00    +0.000 A 
ATOM      5  C   UNL     1      48.714   6.682  15.486  0.00  0.00    +0.000 A 
ATOM      6  C   UNL     1      48.333   6.761  14.141  0.00  0.00    +0.000 A 
ENDROOT
BRANCH   1   7
ATOM      7  C   UNL     1      47.521   8.077  12.137  0.00  0.00    +0.000 C 
BRANCH   7  10
ATOM      8  C   UNL     1      45.642   6.738  11.304  0.00  0.00    +0.000 C 
ATOM      9  O   UNL     1      44.846   7.665  11.424  0.00  0.00    +0.000 OA
ATOM     10  N   UNL     1      46.982   6.842  11.627  0.00  0.00    +0.000 N 
ATOM     11  H   UNL     1      47.560   6.016  11.508  0.00  0.00    +0.000 HD
BRANCH   8  17
ATOM     12  C   UNL     1      45.448   3.348   7.616  0.00  0.00    +0.000 C 
ATOM     13  C   UNL     1      45.116   3.780   9.012  0.00  0.00    +0.000 A 
ATOM     14  C   UNL     1      44.391   2.958   9.877  0.00  0.00    +0.000 A 
ATOM     15  C   UNL     1      44.114   3.413  11.160  0.00  0.00    +0.000 A 
ATOM     16  N   UNL     1      44.495   4.615  11.638  0.00  0.00    +0.000 NA
ATOM     17  C   UNL     1      45.203   5.402  10.781  0.00  0.00    +0.000 A 
ATOM     18  C   UNL     1      45.527   5.033   9.477  0.00  0.00    +0.000 A 
ENDBRANCH   8  17
ENDBRANCH   7  10
ENDBRANCH   1   7
BRANCH   4  19
ATOM     19  C   UNL     1      49.225   7.732  17.724  0.00  0.00    +0.000 C 
BRANCH  19  20
ATOM     20  N   UNL     1      50.261   6.746  17.905  0.00  0.00    +0.000 N 
ATOM     21  C   UNL     1      50.072   5.654  18.715  0.00  0.00    +0.000 C 
ATOM     22  O   UNL     1      49.008   5.446  19.292  0.00  0.00    +0.000 OA
ATOM     23  H   UNL     1      51.207   7.029  17.669  0.00  0.00    +0.000 HD
BRANCH  21  24
ATOM     24  C   UNL     1      51.194   4.710  18.812  0.00  0.00    +0.000 A 
ATOM     25  C   UNL     1      52.319   5.044  19.556  0.00  0.00    +0.000 A 
ATOM     26  S   UNL     1      53.498   3.810  19.599  0.00  0.00    +0.000 S 
ATOM     27  C   UNL     1      52.569   2.811  18.583  0.00  0.00    +0.000 A 
ATOM     28  N   UNL     1      53.022   1.585  18.196  0.00  0.00    +0.000 NA
ATOM     29  C   UNL     1      52.224   0.950  17.403  0.00  0.00    +0.000 A 
ATOM     30  N   UNL     1      51.011   1.420  16.974  0.00  0.00    +0.000 N 
ATOM     31  C   UNL     1      50.502   2.635  17.364  0.00  0.00    +0.000 A 
ATOM     32  O   UNL     1      49.384   3.001  16.998  0.00  0.00    +0.000 OA
ATOM     33  C   UNL     1      51.366   3.399  18.239  0.00  0.00    +0.000 A 
ATOM     34  H   UNL     1      50.425   0.866  16.365  0.00  0.00    +0.000 HD
ENDBRANCH  21  24
ENDBRANCH  19  20
ENDBRANCH   4  19
TORSDOF 6
ENDMDL
MODEL 5
REMARK VINA RESULT:    -7.018      3.542      8.866
REMARK INTER + INTRA:         -10.091
REMARK INTER:                  -9.185
REMARK INTRA:                  -0.906
REMARK UNBOUND:                -0.611
REMARK  Name = 
REMARK  7 active torsions:
REMARK  status: ('A' for Active; 'I' for Inactive)
REMARK    1  A    between atoms: C_1  and  C_2
REMARK    2  A    between atoms: C_6  and  C_7
REMARK    3  A    between atoms: N_9  and  C_10
REMARK    4  A    between atoms: C_10  and  C_11
REMARK    5  A    between atoms: C_14  and  C_15
REMARK    6  A    between atoms: C_15  and  N_16
REMARK    7  A    between atoms: C_17  and  C_19
REMARK                            x       y       z     vdW  Elec       q    Type
REMARK                         _______ _______ _______ _____ _____    ______ ____
ROOT
ATOM      1  C   UNL     1      49.773   6.954  16.072  0.00  0.00    +0.000 A 
ATOM      2  C   UNL     1      48.644   6.310  15.548  0.00  0.00    +0.000 A 
ATOM      3  C   UNL     1      48.160   6.631  14.272  0.00  0.00    +0.000 A 
ATOM      4  C   UNL     1      48.810   7.589  13.482  0.00  0.00    +0.000 A 
ATOM      5  C   UNL     1      49.931   8.242  14.012  0.00  0.00    +0.000 A 
ATOM      6  C   UNL     1      50.416   7.919  15.286  0.00  0.00    +0.000 A 
ENDROOT
BRANCH   1   7
ATOM      7  C   UNL     1      50.257   6.640  17.465  0.00  0.00    +0.000 C 
BRANCH   7  10
ATOM      8  C   UNL     1      50.548   4.237  17.856  0.00  0.00    +0.000 C 
ATOM      9  O   UNL     1      49.356   4.066  18.090  0.00  0.00    +0.000 OA
ATOM     10  N   UNL     1      51.090   5.468  17.538  0.00  0.00    +0.000 N 
ATOM     11  H   UNL     1      52.091   5.514  17.376  0.00  0.00    +0.000 HD
BRANCH   8  17
ATOM     12  C   UNL     1      55.041   2.371  19.072  0.00  0.00    +0.000 C 
ATOM     13  C   UNL     1      53.671   2.204  18.485  0.00  0.00    +0.000 A 
ATOM     14  C   UNL     1      53.248   0.982  17.960  0.00  0.00    +0.000 A 
ATOM     15  C   UNL     1      51.967   0.888  17.430  0.00  0.00    +0.000 A 
ATOM     16  N   UNL     1      51.090   1.910  17.379  0.00  0.00    +0.000 NA
ATOM     17  C   UNL     1      51.519   3.093  17.898  0.00  0.00    +0.000 A 
ATOM     18  C   UNL     1      52.785   3.284  18.449  0.00  0.00    +0.000 A 
ENDBRANCH   8  17
ENDBRANCH   7  10
ENDBRANCH   1   7
BRANCH   4  19
ATOM     19  C   UNL     1      48.320   7.928  12.095  0.00  0.00    +0.000 C 
BRANCH  19  20
ATOM     20  N   UNL     1      47.617   6.827  11.485  0.00  0.00    +0.000 N 
ATOM     21  C   UNL     1      46.250   6.837  11.360  0.00  0.00    +0.000 C 
ATOM     22  O   UNL     1      45.567   7.790  11.725  0.00  0.00    +0.000 OA
ATOM     23  H   UNL     1      48.112   5.943  11.430  0.00  0.00    +0.000 HD
BRANCH  21  24
ATOM     24  C   UNL     1      45.645   5.665  10.709  0.00  0.00    +0.000 A 
ATOM     25  C   UNL     1      45.780   5.488   9.337  0.00  0.00    +0.000 A 
ATOM     26  S   UNL     1      45.061   4.052   8.762  0.00  0.00    +0.000 S 
ATOM     27  C   UNL     1      44.500   3.645  10.316  0.00  0.00    +0.000 A 
ATOM     28  N   UNL     1      43.768   2.514  10.527  0.00  0.00    +0.000 NA
ATOM     29  C   UNL     1      43.388   2.350  11.751  0.00  0.00    +0.000 A 
ATOM     30  N   UNL     1      43.683   3.200  12.783  0.00  0.00    +0.000 N 
ATOM     31  C   UNL     1      44.442   4.333  12.621  0.00  0.00    +0.000 A 
ATOM     32  O   UNL     1      44.731   5.046  13.584  0.00  0.00    +0.000 OA
ATOM     33  C   UNL     1      44.880   4.577  11.263  0.00  0.00    +0.000 A 
ATOM     34  H   UNL     1      43.368   3.005  13.723  0.00  0.00    +0.000 HD
ENDBRANCH  21  24
ENDBRANCH  19  20
ENDBRANCH   4  19
TORSDOF 6
ENDMDL
MODEL 6
REMARK VINA RESULT:    -6.865      2.077      3.080
REMARK INTER + INTRA:          -9.885
REMARK INTER:                  -8.994
REMARK INTRA:                  -0.891
REMARK UNBOUND:                -0.611
REMARK  Name = 
REMARK  7 active torsions:
REMARK  status: ('A' for Active; 'I' for Inactive)
REMARK    1  A    between atoms: C_1  and  C_2
REMARK    2  A    between atoms: C_6  and  C_7
REMARK    3  A    between atoms: N_9  and  C_10
REMARK    4  A    between atoms: C_10  and  C_11
REMARK    5  A    between atoms: C_14  and  C_15
REMARK    6  A    between atoms: C_15  and  N_16
REMARK    7  A    between atoms: C_17  and  C_19
REMARK                            x       y       z     vdW  Elec       q    Type
REMARK                         _______ _______ _______ _____ _____    ______ ____
ROOT
ATOM      1  C   UNL     1      46.872   7.655  12.565  0.00  0.00    +0.000 A 
ATOM      2  C   UNL     1      46.849   8.568  13.628  0.00  0.00    +0.000 A 
ATOM      3  C   UNL     1      48.009   8.844  14.365  0.00  0.00    +0.000 A 
ATOM      4  C   UNL     1      49.225   8.228  14.040  0.00  0.00    +0.000 A 
ATOM      5  C   UNL     1      49.244   7.305  12.985  0.00  0.00    +0.000 A 
ATOM      6  C   UNL     1      48.085   7.031  12.246  0.00  0.00    +0.000 A 
ENDROOT
BRANCH   1   7
ATOM      7  C   UNL     1      45.609   7.326  11.810  0.00  0.00    +0.000 C 
BRANCH   7  10
ATOM      8  C   UNL     1      44.616   5.404  10.655  0.00  0.00    +0.000 C 
ATOM      9  O   UNL     1      43.489   5.657  11.070  0.00  0.00    +0.000 OA
ATOM     10  N   UNL     1      45.727   6.167  10.963  0.00  0.00    +0.000 N 
ATOM     11  H   UNL     1      46.621   5.870  10.585  0.00  0.00    +0.000 HD
BRANCH   8  17
ATOM     12  C   UNL     1      46.633   3.419   6.517  0.00  0.00    +0.000 C 
ATOM     13  C   UNL     1      45.839   3.279   7.780  0.00  0.00    +0.000 A 
ATOM     14  C   UNL     1      45.307   2.049   8.174  0.00  0.00    +0.000 A 
ATOM     15  C   UNL     1      44.579   1.981   9.354  0.00  0.00    +0.000 A 
ATOM     16  N   UNL     1      44.339   3.034  10.161  0.00  0.00    +0.000 NA
ATOM     17  C   UNL     1      44.867   4.224   9.762  0.00  0.00    +0.000 A 
ATOM     18  C   UNL     1      45.609   4.391   8.594  0.00  0.00    +0.000 A 
ENDBRANCH   8  17
ENDBRANCH   7  10
ENDBRANCH   1   7
BRANCH   4  19
ATOM     19  C   UNL     1      50.490   8.533  14.804  0.00  0.00    +0.000 C 
BRANCH  19  20
ATOM     20  N   UNL     1      50.300   8.431  16.229  0.00  0.00    +0.000 N 
ATOM     21  C   UNL     1      50.465   7.237  16.886  0.00  0.00    +0.000 C 
ATOM     22  O   UNL     1      50.814   6.213  16.303  0.00  0.00    +0.000 OA
ATOM     23  H   UNL     1      49.762   9.169  16.673  0.00  0.00    +0.000 HD
BRANCH  21  24
ATOM     24  C   UNL     1      50.257   7.257  18.341  0.00  0.00    +0.000 A 
ATOM     25  C   UNL     1      51.158   7.927  19.160  0.00  0.00    +0.000 A 
ATOM     26  S   UNL     1      50.733   7.891  20.813  0.00  0.00    +0.000 S 
ATOM     27  C   UNL     1      49.362   6.935  20.496  0.00  0.00    +0.000 A 
ATOM     28  N   UNL     1      48.547   6.516  21.505  0.00  0.00    +0.000 NA
ATOM     29  C   UNL     1      47.562   5.775  21.119  0.00  0.00    +0.000 A 
ATOM     30  N   UNL     1      47.308   5.428  19.818  0.00  0.00    +0.000 N 
ATOM     31  C   UNL     1      48.084   5.853  18.768  0.00  0.00    +0.000 A 
ATOM     32  O   UNL     1      47.793   5.562  17.607  0.00  0.00    +0.000 OA
ATOM     33  C   UNL     1      49.216   6.672  19.147  0.00  0.00    +0.000 A 
ATOM     34  H   UNL     1      46.509   4.857  19.580  0.00  0.00    +0.000 HD
ENDBRANCH  21  24
ENDBRANCH  19  20
ENDBRANCH   4  19
TORSDOF 6
ENDMDL
MODEL 7
REMARK VINA RESULT:    -6.466      3.350      9.270
REMARK INTER + INTRA:          -9.346
REMARK INTER:                  -8.297
REMARK INTRA:                  -1.049
REMARK UNBOUND:                -0.611
REMARK  Name = 
REMARK  7 active torsions:
REMARK  status: ('A' for Active; 'I' for Inactive)
REMARK    1  A    between atoms: C_1  and  C_2
REMARK    2  A    between atoms: C_6  and  C_7
REMARK    3  A    between atoms: N_9  and  C_10
REMARK    4  A    between atoms: C_10  and  C_11
REMARK    5  A    between atoms: C_14  and  C_15
REMARK    6  A    between atoms: C_15  and  N_16
REMARK    7  A    between atoms: C_17  and  C_19
REMARK                            x       y       z     vdW  Elec       q    Type
REMARK                         _______ _______ _______ _____ _____    ______ ____
ROOT
ATOM      1  C   UNL     1      50.151   8.245  15.558  0.00  0.00    +0.000 A 
ATOM      2  C   UNL     1      50.799   8.052  14.331  0.00  0.00    +0.000 A 
ATOM      3  C   UNL     1      50.068   7.956  13.138  0.00  0.00    +0.000 A 
ATOM      4  C   UNL     1      48.672   8.074  13.146  0.00  0.00    +0.000 A 
ATOM      5  C   UNL     1      48.024   8.253  14.375  0.00  0.00    +0.000 A 
ATOM      6  C   UNL     1      48.754   8.352  15.566  0.00  0.00    +0.000 A 
ENDROOT
BRANCH   1   7
ATOM      7  C   UNL     1      50.940   8.296  16.842  0.00  0.00    +0.000 C 
BRANCH   7  10
ATOM      8  C   UNL     1      52.575   6.512  17.240  0.00  0.00    +0.000 C 
ATOM      9  O   UNL     1      53.482   7.136  16.699  0.00  0.00    +0.000 OA
ATOM     10  N   UNL     1      51.286   6.998  17.361  0.00  0.00    +0.000 N 
ATOM     11  H   UNL     1      50.599   6.402  17.811  0.00  0.00    +0.000 HD
BRANCH   8  17
ATOM     12  C   UNL     1      51.448   1.634  17.521  0.00  0.00    +0.000 C 
ATOM     13  C   UNL     1      52.268   2.813  17.951  0.00  0.00    +0.000 A 
ATOM     14  C   UNL     1      53.281   2.688  18.904  0.00  0.00    +0.000 A 
ATOM     15  C   UNL     1      54.007   3.816  19.263  0.00  0.00    +0.000 A 
ATOM     16  N   UNL     1      53.799   5.047  18.753  0.00  0.00    +0.000 NA
ATOM     17  C   UNL     1      52.810   5.149  17.823  0.00  0.00    +0.000 A 
ATOM     18  C   UNL     1      52.028   4.076  17.401  0.00  0.00    +0.000 A 
ENDBRANCH   8  17
ENDBRANCH   7  10
ENDBRANCH   1   7
BRANCH   4  19
ATOM     19  C   UNL     1      47.871   8.001  11.869  0.00  0.00    +0.000 C 
BRANCH  19  20
ATOM     20  N   UNL     1      47.101   6.785  11.781  0.00  0.00    +0.000 N 
ATOM     21  C   UNL     1      45.729   6.809  11.799  0.00  0.00    +0.000 C 
ATOM     22  O   UNL     1      45.093   7.858  11.853  0.00  0.00    +0.000 OA
ATOM     23  H   UNL     1      47.584   5.921  12.006  0.00  0.00    +0.000 HD
BRANCH  21  24
ATOM     24  C   UNL     1      45.051   5.508  11.689  0.00  0.00    +0.000 A 
ATOM     25  C   UNL     1      44.351   4.998  12.776  0.00  0.00    +0.000 A 
ATOM     26  S   UNL     1      43.587   3.506  12.453  0.00  0.00    +0.000 S 
ATOM     27  C   UNL     1      44.210   3.466  10.871  0.00  0.00    +0.000 A 
ATOM     28  N   UNL     1      43.950   2.418  10.038  0.00  0.00    +0.000 NA
ATOM     29  C   UNL     1      44.511   2.511   8.878  0.00  0.00    +0.000 A 
ATOM     30  N   UNL     1      45.294   3.559   8.469  0.00  0.00    +0.000 N 
ATOM     31  C   UNL     1      45.555   4.648   9.264  0.00  0.00    +0.000 A 
ATOM     32  O   UNL     1      46.221   5.595   8.841  0.00  0.00    +0.000 OA
ATOM     33  C   UNL     1      44.965   4.587  10.585  0.00  0.00    +0.000 A 
ATOM     34  H   UNL     1      45.691   3.578   7.540  0.00  0.00    +0.000 HD
ENDBRANCH  21  24
ENDBRANCH  19  20
ENDBRANCH   4  19
TORSDOF 6
ENDMDL
MODEL 8
REMARK VINA RESULT:    -6.427      5.843      8.163
REMARK INTER + INTRA:          -9.292
REMARK INTER:                  -8.284
REMARK INTRA:                  -1.008
REMARK UNBOUND:                -0.611
REMARK  Name = 
REMARK  7 active torsions:
REMARK  status: ('A' for Active; 'I' for Inactive)
REMARK    1  A    between atoms: C_1  and  C_2
REMARK    2  A    between atoms: C_6  and  C_7
REMARK    3  A    between atoms: N_9  and  C_10
REMARK    4  A    between atoms: C_10  and  C_11
REMARK    5  A    between atoms: C_14  and  C_15
REMARK    6  A    between atoms: C_15  and  N_16
REMARK    7  A    between atoms: C_17  and  C_19
REMARK                            x       y       z     vdW  Elec       q    Type
REMARK                         _______ _______ _______ _____ _____    ______ ____
ROOT
ATOM      1  C   UNL     1      48.974   8.093  13.224  0.00  0.00    +0.000 A 
ATOM      2  C   UNL     1      49.904   8.920  13.868  0.00  0.00    +0.000 A 
ATOM      3  C   UNL     1      51.133   9.225  13.267  0.00  0.00    +0.000 A 
ATOM      4  C   UNL     1      51.450   8.727  11.996  0.00  0.00    +0.000 A 
ATOM      5  C   UNL     1      50.525   7.890  11.358  0.00  0.00    +0.000 A 
ATOM      6  C   UNL     1      49.295   7.587  11.957  0.00  0.00    +0.000 A 
ENDROOT
BRANCH   1   7
ATOM      7  C   UNL     1      47.676   7.728  13.898  0.00  0.00    +0.000 C 
BRANCH   7  10
ATOM      8  C   UNL     1      45.653   7.080  12.674  0.00  0.00    +0.000 C 
ATOM      9  O   UNL     1      45.140   8.186  12.811  0.00  0.00    +0.000 OA
ATOM     10  N   UNL     1      46.900   6.755  13.174  0.00  0.00    +0.000 N 
ATOM     11  H   UNL     1      47.236   5.809  13.024  0.00  0.00    +0.000 HD
BRANCH   8  17
ATOM     12  C   UNL     1      45.190   4.124   8.651  0.00  0.00    +0.000 C 
ATOM     13  C   UNL     1      44.730   4.567  10.007  0.00  0.00    +0.000 A 
ATOM     14  C   UNL     1      43.632   3.975  10.634  0.00  0.00    +0.000 A 
ATOM     15  C   UNL     1      43.252   4.427  11.891  0.00  0.00    +0.000 A 
ATOM     16  N   UNL     1      43.875   5.418  12.561  0.00  0.00    +0.000 NA
ATOM     17  C   UNL     1      44.945   5.982  11.936  0.00  0.00    +0.000 A 
ATOM     18  C   UNL     1      45.398   5.597  10.676  0.00  0.00    +0.000 A 
ENDBRANCH   8  17
ENDBRANCH   7  10
ENDBRANCH   1   7
BRANCH   4  19
ATOM     19  C   UNL     1      52.756   9.067  11.321  0.00  0.00    +0.000 C 
BRANCH  19  20
ATOM     20  N   UNL     1      52.865   8.466  10.016  0.00  0.00    +0.000 N 
ATOM     21  C   UNL     1      53.957   8.693   9.216  0.00  0.00    +0.000 C 
ATOM     22  O   UNL     1      54.904   9.384   9.583  0.00  0.00    +0.000 OA
ATOM     23  H   UNL     1      52.005   8.130   9.594  0.00  0.00    +0.000 HD
BRANCH  21  24
ATOM     24  C   UNL     1      53.963   8.015   7.911  0.00  0.00    +0.000 A 
ATOM     25  C   UNL     1      54.031   8.763   6.742  0.00  0.00    +0.000 A 
ATOM     26  S   UNL     1      54.081   7.810   5.326  0.00  0.00    +0.000 S 
ATOM     27  C   UNL     1      53.959   6.371   6.224  0.00  0.00    +0.000 A 
ATOM     28  N   UNL     1      53.922   5.156   5.606  0.00  0.00    +0.000 NA
ATOM     29  C   UNL     1      53.800   4.154   6.413  0.00  0.00    +0.000 A 
ATOM     30  N   UNL     1      53.728   4.252   7.777  0.00  0.00    +0.000 N 
ATOM     31  C   UNL     1      53.793   5.452   8.442  0.00  0.00    +0.000 A 
ATOM     32  O   UNL     1      53.777   5.496   9.674  0.00  0.00    +0.000 OA
ATOM     33  C   UNL     1      53.910   6.613   7.584  0.00  0.00    +0.000 A 
ATOM     34  H   UNL     1      53.650   3.426   8.354  0.00  0.00    +0.000 HD
ENDBRANCH  21  24
ENDBRANCH  19  20
ENDBRANCH   4  19
TORSDOF 6
ENDMDL
MODEL 9
REMARK VINA RESULT:    -6.421      3.487      9.944
REMARK INTER + INTRA:          -9.284
REMARK INTER:                  -8.304
REMARK INTRA:                  -0.981
REMARK UNBOUND:                -0.611
REMARK  Name = 
REMARK  7 active torsions:
REMARK  status: ('A' for Active; 'I' for Inactive)
REMARK    1  A    between atoms: C_1  and  C_2
REMARK    2  A    between atoms: C_6  and  C_7
REMARK    3  A    between atoms: N_9  and  C_10
REMARK    4  A    between atoms: C_10  and  C_11
REMARK    5  A    between atoms: C_14  and  C_15
REMARK    6  A    between atoms: C_15  and  N_16
REMARK    7  A    between atoms: C_17  and  C_19
REMARK                            x       y       z     vdW  Elec       q    Type
REMARK                         _______ _______ _______ _____ _____    ______ ____
ROOT
ATOM      1  C   UNL     1      49.727   9.006  15.508  0.00  0.00    +0.000 A 
ATOM      2  C   UNL     1      50.475   8.255  14.591  0.00  0.00    +0.000 A 
ATOM      3  C   UNL     1      49.944   7.909  13.341  0.00  0.00    +0.000 A 
ATOM      4  C   UNL     1      48.659   8.327  12.971  0.00  0.00    +0.000 A 
ATOM      5  C   UNL     1      47.907   9.067  13.893  0.00  0.00    +0.000 A 
ATOM      6  C   UNL     1      48.438   9.415  15.141  0.00  0.00    +0.000 A 
ENDROOT
BRANCH   1   7
ATOM      7  C   UNL     1      50.286   9.331  16.870  0.00  0.00    +0.000 C 
BRANCH   7  10
ATOM      8  C   UNL     1      49.067   9.123  18.987  0.00  0.00    +0.000 C 
ATOM      9  O   UNL     1      48.911  10.336  19.089  0.00  0.00    +0.000 OA
ATOM     10  N   UNL     1      49.730   8.530  17.929  0.00  0.00    +0.000 N 
ATOM     11  H   UNL     1      49.823   7.519  17.940  0.00  0.00    +0.000 HD
BRANCH   8  17
ATOM     12  C   UNL     1      48.707   4.513  20.924  0.00  0.00    +0.000 C 
ATOM     13  C   UNL     1      48.365   5.972  20.951  0.00  0.00    +0.000 A 
ATOM     14  C   UNL     1      47.541   6.509  21.942  0.00  0.00    +0.000 A 
ATOM     15  C   UNL     1      47.260   7.869  21.915  0.00  0.00    +0.000 A 
ATOM     16  N   UNL     1      47.728   8.723  20.983  0.00  0.00    +0.000 NA
ATOM     17  C   UNL     1      48.531   8.182  20.026  0.00  0.00    +0.000 A 
ATOM     18  C   UNL     1      48.868   6.831  19.969  0.00  0.00    +0.000 A 
ENDBRANCH   8  17
ENDBRANCH   7  10
ENDBRANCH   1   7
BRANCH   4  19
ATOM     19  C   UNL     1      48.081   7.988  11.618  0.00  0.00    +0.000 C 
BRANCH  19  20
ATOM     20  N   UNL     1      47.244   6.815  11.665  0.00  0.00    +0.000 N 
ATOM     21  C   UNL     1      45.876   6.916  11.654  0.00  0.00    +0.000 C 
ATOM     22  O   UNL     1      45.301   7.998  11.567  0.00  0.00    +0.000 OA
ATOM     23  H   UNL     1      47.674   5.960  12.004  0.00  0.00    +0.000 HD
BRANCH  21  24
ATOM     24  C   UNL     1      45.127   5.651  11.692  0.00  0.00    +0.000 A 
ATOM     25  C   UNL     1      44.445   5.284  12.845  0.00  0.00    +0.000 A 
ATOM     26  S   UNL     1      43.590   3.815  12.692  0.00  0.00    +0.000 S 
ATOM     27  C   UNL     1      44.146   3.594  11.100  0.00  0.00    +0.000 A 
ATOM     28  N   UNL     1      43.797   2.490  10.379  0.00  0.00    +0.000 NA
ATOM     29  C   UNL     1      44.315   2.444   9.196  0.00  0.00    +0.000 A 
ATOM     30  N   UNL     1      45.134   3.403   8.663  0.00  0.00    +0.000 N 
ATOM     31  C   UNL     1      45.485   4.544   9.341  0.00  0.00    +0.000 A 
ATOM     32  O   UNL     1      46.182   5.409   8.808  0.00  0.00    +0.000 OA
ATOM     33  C   UNL     1      44.947   4.639  10.682  0.00  0.00    +0.000 A 
ATOM     34  H   UNL     1      45.494   3.314   7.723  0.00  0.00    +0.000 HD
ENDBRANCH  21  24
ENDBRANCH  19  20
ENDBRANCH   4  19
TORSDOF 6
ENDMDL
