MODEL 1
REMARK VINA RESULT:    -6.817      0.000      0.000
REMARK INTER + INTRA:         -10.940
REMARK INTER:                  -9.607
REMARK INTRA:                  -1.333
REMARK UNBOUND:                -1.333
REMARK  Name = 
REMARK  8 active torsions:
REMARK  status: ('A' for Active; 'I' for Inactive)
REMARK    1  A    between atoms: C_1  and  C_2
REMARK    2  A    between atoms: C_2  and  N_3
REMARK    3  A    between atoms: C_2  and  C_18
REMARK    4  A    between atoms: N_3  and  C_4
REMARK    5  A    between atoms: C_7  and  C_8
REMARK    6  A    between atoms: C_8  and  N_9
REMARK    7  A    between atoms: N_9  and  C_10
REMARK    8  A    between atoms: C_18  and  C_20
REMARK                            x       y       z     vdW  Elec       q    Type
REMARK                         _______ _______ _______ _____ _____    ______ ____
ROOT
ATOM      1  N   UNL     1      48.863   5.644  16.273  0.00  0.00    +0.000 N 
ATOM      2  H   UNL     1      49.849   5.790  16.054  0.00  0.00    +0.000 HD
ENDROOT
BRANCH   1   3
ATOM      3  C   UNL     1      48.044   5.822  15.162  0.00  0.00    +0.000 A 
ATOM      4  C   UNL     1      48.261   6.944  14.350  0.00  0.00    +0.000 A 
ATOM      5  C   UNL     1      47.508   7.169  13.194  0.00  0.00    +0.000 A 
ATOM      6  C   UNL     1      46.555   6.238  12.769  0.00  0.00    +0.000 A 
ATOM      7  C   UNL     1      46.355   5.096  13.555  0.00  0.00    +0.000 A 
ATOM      8  C   UNL     1      47.096   4.891  14.731  0.00  0.00    +0.000 A 
BRANCH   6   9
ATOM      9  C   UNL     1      45.739   6.456  11.512  0.00  0.00    +0.000 C 
BRANCH   9  10
ATOM     10  N   UNL     1      45.554   5.207  10.775  0.00  0.00    +0.000 NA
ATOM     11  H   UNL     1      45.856   4.440  11.375  0.00  0.00    +0.000 HD
BRANCH  10  12
ATOM     12  C   UNL     1      44.194   4.967  10.279  0.00  0.00    +0.000 C 
ATOM     13  C   UNL     1      43.190   4.528  11.355  0.00  0.00    +0.000 C 
ATOM     14  C   UNL     1      43.549   3.159  11.929  0.00  0.00    +0.000 C 
ATOM     15  N   UNL     1      43.589   2.134  10.884  0.00  0.00    +0.000 NA
ATOM     16  C   UNL     1      44.538   2.482   9.822  0.00  0.00    +0.000 C 
ATOM     17  C   UNL     1      44.260   3.859   9.211  0.00  0.00    +0.000 C 
ATOM     18  H   UNL     1      42.658   2.044  10.475  0.00  0.00    +0.000 HD
ENDBRANCH  10  12
ENDBRANCH   9  10
ENDBRANCH   6   9
ENDBRANCH   1   3
BRANCH   1  20
ATOM     19  C   UNL     1      49.172   7.518  17.850  0.00  0.00    +0.000 C 
ATOM     20  C   UNL     1      48.513   6.156  17.615  0.00  0.00    +0.000 C 
BRANCH  20  21
ATOM     21  C   UNL     1      48.992   5.129  18.685  0.00  0.00    +0.000 C 
ATOM     22  O   UNL     1      48.241   4.789  19.596  0.00  0.00    +0.000 OA
BRANCH  21  23
ATOM     23  C   UNL     1      50.388   4.643  18.625  0.00  0.00    +0.000 A 
ATOM     24  C   UNL     1      51.446   5.306  19.230  0.00  0.00    +0.000 A 
ATOM     25  S   UNL     1      52.923   4.459  19.148  0.00  0.00    +0.000 S 
ATOM     26  C   UNL     1      52.203   3.179  18.290  0.00  0.00    +0.000 A 
ATOM     27  N   UNL     1      52.927   2.078  17.952  0.00  0.00    +0.000 NA
ATOM     28  C   UNL     1      52.244   1.161  17.354  0.00  0.00    +0.000 A 
ATOM     29  N   UNL     1      50.917   1.259  17.033  0.00  0.00    +0.000 N 
ATOM     30  C   UNL     1      50.192   2.414  17.205  0.00  0.00    +0.000 A 
ATOM     31  O   UNL     1      49.117   2.561  16.635  0.00  0.00    +0.000 OA
ATOM     32  C   UNL     1      50.868   3.423  18.013  0.00  0.00    +0.000 A 
ATOM     33  H   UNL     1      50.468   0.544  16.481  0.00  0.00    +0.000 HD
ENDBRANCH  21  23
ENDBRANCH  20  21
ENDBRANCH   1  20
TORSDOF 7
ENDMDL
MODEL 2
REMARK VINA RESULT:    -6.709      2.627      3.917
REMARK INTER + INTRA:         -10.788
REMARK INTER:                  -9.204
REMARK INTRA:                  -1.584
REMARK UNBOUND:                -1.333
REMARK  Name = 
REMARK  8 active torsions:
REMARK  status: ('A' for Active; 'I' for Inactive)
REMARK    1  A    between atoms: C_1  and  C_2
REMARK    2  A    between atoms: C_2  and  N_3
REMARK    3  A    between atoms: C_2  and  C_18
REMARK    4  A    between atoms: N_3  and  C_4
REMARK    5  A    between atoms: C_7  and  C_8
REMARK    6  A    between atoms: C_8  and  N_9
REMARK    7  A    between atoms: N_9  and  C_10
REMARK    8  A    between atoms: C_18  and  C_20
REMARK                            x       y       z     vdW  Elec       q    Type
REMARK                         _______ _______ _______ _____ _____    ______ ____
ROOT
ATOM      1  N   UNL     1      48.720   7.217  14.093  0.00  0.00    +0.000 N 
ATOM      2  H   UNL     1      49.563   7.273  13.522  0.00  0.00    +0.000 HD
ENDROOT
BRANCH   1   3
ATOM      3  C   UNL     1      47.755   6.388  13.528  0.00  0.00    +0.000 A 
ATOM      4  C   UNL     1      47.293   5.299  14.278  0.00  0.00    +0.000 A 
ATOM      5  C   UNL     1      46.295   4.446  13.796  0.00  0.00    +0.000 A 
ATOM      6  C   UNL     1      45.672   4.698  12.570  0.00  0.00    +0.000 A 
ATOM      7  C   UNL     1      46.103   5.805  11.828  0.00  0.00    +0.000 A 
ATOM      8  C   UNL     1      47.125   6.640  12.306  0.00  0.00    +0.000 A 
BRANCH   6   9
ATOM      9  C   UNL     1      44.579   3.795  12.036  0.00  0.00    +0.000 C 
BRANCH   9  10
ATOM     10  N   UNL     1      45.101   2.860  11.041  0.00  0.00    +0.000 NA
ATOM     11  H   UNL     1      45.227   1.955  11.494  0.00  0.00    +0.000 HD
BRANCH  10  12
ATOM     12  C   UNL     1      44.288   2.717   9.827  0.00  0.00    +0.000 C 
ATOM     13  C   UNL     1      44.767   1.622   8.863  0.00  0.00    +0.000 C 
ATOM     14  C   UNL     1      46.136   1.955   8.275  0.00  0.00    +0.000 C 
ATOM     15  N   UNL     1      46.114   3.230   7.555  0.00  0.00    +0.000 NA
ATOM     16  C   UNL     1      45.675   4.331   8.419  0.00  0.00    +0.000 C 
ATOM     17  C   UNL     1      44.315   4.060   9.071  0.00  0.00    +0.000 C 
ATOM     18  H   UNL     1      45.469   3.153   6.768  0.00  0.00    +0.000 HD
ENDBRANCH  10  12
ENDBRANCH   9  10
ENDBRANCH   6   9
ENDBRANCH   1   3
BRANCH   1  20
ATOM     19  C   UNL     1      48.630   9.658  13.738  0.00  0.00    +0.000 C 
ATOM     20  C   UNL     1      48.391   8.512  14.725  0.00  0.00    +0.000 C 
BRANCH  20  21
ATOM     21  C   UNL     1      49.280   8.694  15.992  0.00  0.00    +0.000 C 
ATOM     22  O   UNL     1      50.389   9.214  15.900  0.00  0.00    +0.000 OA
BRANCH  21  23
ATOM     23  C   UNL     1      48.795   8.155  17.281  0.00  0.00    +0.000 A 
ATOM     24  C   UNL     1      48.116   8.926  18.215  0.00  0.00    +0.000 A 
ATOM     25  S   UNL     1      47.528   8.034  19.543  0.00  0.00    +0.000 S 
ATOM     26  C   UNL     1      48.170   6.586  18.924  0.00  0.00    +0.000 A 
ATOM     27  N   UNL     1      47.965   5.405  19.568  0.00  0.00    +0.000 NA
ATOM     28  C   UNL     1      48.458   4.380  18.961  0.00  0.00    +0.000 A 
ATOM     29  N   UNL     1      49.165   4.431  17.790  0.00  0.00    +0.000 N 
ATOM     30  C   UNL     1      49.538   5.613  17.194  0.00  0.00    +0.000 A 
ATOM     31  O   UNL     1      50.413   5.626  16.337  0.00  0.00    +0.000 OA
ATOM     32  C   UNL     1      48.880   6.789  17.751  0.00  0.00    +0.000 A 
ATOM     33  H   UNL     1      49.604   3.602  17.418  0.00  0.00    +0.000 HD
ENDBRANCH  21  23
ENDBRANCH  20  21
ENDBRANCH   1  20
TORSDOF 7
ENDMDL
MODEL 3
REMARK VINA RESULT:    -6.649      4.870      7.890
REMARK INTER + INTRA:         -10.703
REMARK INTER:                  -9.870
REMARK INTRA:                  -0.833
REMARK UNBOUND:                -1.333
REMARK  Name = 
REMARK  8 active torsions:
REMARK  status: ('A' for Active; 'I' for Inactive)
REMARK    1  A    between atoms: C_1  and  C_2
REMARK    2  A    between atoms: C_2  and  N_3
REMARK    3  A    between atoms: C_2  and  C_18
REMARK    4  A    between atoms: N_3  and  C_4
REMARK    5  A    between atoms: C_7  and  C_8
REMARK    6  A    between atoms: C_8  and  N_9
REMARK    7  A    between atoms: N_9  and  C_10
REMARK    8  A    between atoms: C_18  and  C_20
REMARK                            x       y       z     vdW  Elec       q    Type
REMARK                         _______ _______ _______ _____ _____    ______ ____
ROOT
ATOM      1  N   UNL     1      44.595   3.919   9.921  0.00  0.00    +0.000 N 
ATOM      2  H   UNL     1      43.617   4.024   9.648  0.00  0.00    +0.000 HD
ENDROOT
BRANCH   1   3
ATOM      3  C   UNL     1      45.364   3.348   8.911  0.00  0.00    +0.000 A 
ATOM      4  C   UNL     1      45.524   1.956   8.904  0.00  0.00    +0.000 A 
ATOM      5  C   UNL     1      46.247   1.305   7.899  0.00  0.00    +0.000 A 
ATOM      6  C   UNL     1      46.777   2.023   6.822  0.00  0.00    +0.000 A 
ATOM      7  C   UNL     1      46.593   3.411   6.802  0.00  0.00    +0.000 A 
ATOM      8  C   UNL     1      45.890   4.061   7.830  0.00  0.00    +0.000 A 
BRANCH   6   9
ATOM      9  C   UNL     1      47.551   1.335   5.716  0.00  0.00    +0.000 C 
BRANCH   9  10
ATOM     10  N   UNL     1      46.659   0.589   4.829  0.00  0.00    +0.000 NA
ATOM     11  H   UNL     1      45.724   0.985   4.917  0.00  0.00    +0.000 HD
BRANCH  10  12
ATOM     12  C   UNL     1      47.069   0.546   3.420  0.00  0.00    +0.000 C 
ATOM     13  C   UNL     1      45.972   0.948   2.423  0.00  0.00    +0.000 C 
ATOM     14  C   UNL     1      44.815  -0.050   2.434  0.00  0.00    +0.000 C 
ATOM     15  N   UNL     1      45.271  -1.401   2.104  0.00  0.00    +0.000 NA
ATOM     16  C   UNL     1      46.317  -1.859   3.025  0.00  0.00    +0.000 C 
ATOM     17  C   UNL     1      47.505  -0.894   3.091  0.00  0.00    +0.000 C 
ATOM     18  H   UNL     1      45.646  -1.400   1.155  0.00  0.00    +0.000 HD
ENDBRANCH  10  12
ENDBRANCH   9  10
ENDBRANCH   6   9
ENDBRANCH   1   3
BRANCH   1  20
ATOM     19  C   UNL     1      43.577   2.637  11.769  0.00  0.00    +0.000 C 
ATOM     20  C   UNL     1      44.736   3.543  11.344  0.00  0.00    +0.000 C 
BRANCH  20  21
ATOM     21  C   UNL     1      44.755   4.841  12.206  0.00  0.00    +0.000 C 
ATOM     22  O   UNL     1      43.728   5.236  12.752  0.00  0.00    +0.000 OA
BRANCH  21  23
ATOM     23  C   UNL     1      46.010   5.621  12.285  0.00  0.00    +0.000 A 
ATOM     24  C   UNL     1      46.442   6.459  11.267  0.00  0.00    +0.000 A 
ATOM     25  S   UNL     1      47.832   7.362  11.667  0.00  0.00    +0.000 S 
ATOM     26  C   UNL     1      47.912   6.657  13.212  0.00  0.00    +0.000 A 
ATOM     27  N   UNL     1      48.863   7.046  14.103  0.00  0.00    +0.000 NA
ATOM     28  C   UNL     1      48.774   6.471  15.255  0.00  0.00    +0.000 A 
ATOM     29  N   UNL     1      47.846   5.520  15.583  0.00  0.00    +0.000 N 
ATOM     30  C   UNL     1      46.976   4.978  14.667  0.00  0.00    +0.000 A 
ATOM     31  O   UNL     1      46.384   3.935  14.916  0.00  0.00    +0.000 OA
ATOM     32  C   UNL     1      46.930   5.697  13.399  0.00  0.00    +0.000 A 
ATOM     33  H   UNL     1      47.892   5.043  16.471  0.00  0.00    +0.000 HD
ENDBRANCH  21  23
ENDBRANCH  20  21
ENDBRANCH   1  20
TORSDOF 7
ENDMDL
MODEL 4
REMARK VINA RESULT:    -6.546      5.262      8.028
REMARK INTER + INTRA:         -10.558
REMARK INTER:                  -8.931
REMARK INTRA:                  -1.626
REMARK UNBOUND:                -1.333
REMARK  Name = 
REMARK  8 active torsions:
REMARK  status: ('A' for Active; 'I' for Inactive)
REMARK    1  A    between atoms: C_1  and  C_2
REMARK    2  A    between atoms: C_2  and  N_3
REMARK    3  A    between atoms: C_2  and  C_18
REMARK    4  A    between atoms: N_3  and  C_4
REMARK    5  A    between atoms: C_7  and  C_8
REMARK    6  A    between atoms: C_8  and  N_9
REMARK    7  A    between atoms: N_9  and  C_10
REMARK    8  A    between atoms: C_18  and  C_20
REMARK                            x       y       z     vdW  Elec       q    Type
REMARK                         _______ _______ _______ _____ _____    ______ ____
ROOT
ATOM      1  N   UNL     1      49.721   8.593  12.265  0.00  0.00    +0.000 N 
ATOM      2  H   UNL     1      50.639   8.217  12.027  0.00  0.00    +0.000 HD
ENDROOT
BRANCH   1   3
ATOM      3  C   UNL     1      48.811   7.591  12.592  0.00  0.00    +0.000 A 
ATOM      4  C   UNL     1      48.749   7.159  13.923  0.00  0.00    +0.000 A 
ATOM      5  C   UNL     1      47.833   6.187  14.337  0.00  0.00    +0.000 A 
ATOM      6  C   UNL     1      46.893   5.665  13.443  0.00  0.00    +0.000 A 
ATOM      7  C   UNL     1      46.924   6.116  12.118  0.00  0.00    +0.000 A 
ATOM      8  C   UNL     1      47.866   7.071  11.703  0.00  0.00    +0.000 A 
BRANCH   6   9
ATOM      9  C   UNL     1      45.882   4.622  13.875  0.00  0.00    +0.000 C 
BRANCH   9  10
ATOM     10  N   UNL     1      45.491   3.765  12.757  0.00  0.00    +0.000 NA
ATOM     11  H   UNL     1      45.970   2.871  12.863  0.00  0.00    +0.000 HD
BRANCH  10  12
ATOM     12  C   UNL     1      44.047   3.560  12.599  0.00  0.00    +0.000 C 
ATOM     13  C   UNL     1      43.631   2.957  11.249  0.00  0.00    +0.000 C 
ATOM     14  C   UNL     1      43.931   3.912  10.095  0.00  0.00    +0.000 C 
ATOM     15  N   UNL     1      43.239   5.191  10.265  0.00  0.00    +0.000 NA
ATOM     16  C   UNL     1      43.596   5.834  11.534  0.00  0.00    +0.000 C 
ATOM     17  C   UNL     1      43.350   4.927  12.743  0.00  0.00    +0.000 C 
ATOM     18  H   UNL     1      42.232   5.026  10.253  0.00  0.00    +0.000 HD
ENDBRANCH  10  12
ENDBRANCH   9  10
ENDBRANCH   6   9
ENDBRANCH   1   3
BRANCH   1  20
ATOM     19  C   UNL     1      50.616  10.561  11.075  0.00  0.00    +0.000 C 
ATOM     20  C   UNL     1      49.362   9.756  11.426  0.00  0.00    +0.000 C 
BRANCH  20  21
ATOM     21  C   UNL     1      48.348  10.645  12.206  0.00  0.00    +0.000 C 
ATOM     22  O   UNL     1      48.475  10.812  13.417  0.00  0.00    +0.000 OA
BRANCH  21  23
ATOM     23  C   UNL     1      47.192  11.210  11.476  0.00  0.00    +0.000 A 
ATOM     24  C   UNL     1      47.292  12.317  10.645  0.00  0.00    +0.000 A 
ATOM     25  S   UNL     1      45.854  12.671   9.800  0.00  0.00    +0.000 S 
ATOM     26  C   UNL     1      45.042  11.364  10.524  0.00  0.00    +0.000 A 
ATOM     27  N   UNL     1      43.760  11.068  10.181  0.00  0.00    +0.000 NA
ATOM     28  C   UNL     1      43.285  10.020  10.764  0.00  0.00    +0.000 A 
ATOM     29  N   UNL     1      43.962   9.263  11.682  0.00  0.00    +0.000 N 
ATOM     30  C   UNL     1      45.193   9.619  12.180  0.00  0.00    +0.000 A 
ATOM     31  O   UNL     1      45.622   9.098  13.203  0.00  0.00    +0.000 OA
ATOM     32  C   UNL     1      45.837  10.703  11.448  0.00  0.00    +0.000 A 
ATOM     33  H   UNL     1      43.499   8.511  12.170  0.00  0.00    +0.000 HD
ENDBRANCH  21  23
ENDBRANCH  20  21
ENDBRANCH   1  20
TORSDOF 7
ENDMDL
MODEL 5
REMARK VINA RESULT:    -6.489      1.665      2.104
REMARK INTER + INTRA:         -10.477
REMARK INTER:                  -9.193
REMARK INTRA:                  -1.283
REMARK UNBOUND:                -1.333
REMARK  Name = 
REMARK  8 active torsions:
REMARK  status: ('A' for Active; 'I' for Inactive)
REMARK    1  A    between atoms: C_1  and  C_2
REMARK    2  A    between atoms: C_2  and  N_3
REMARK    3  A    between atoms: C_2  and  C_18
REMARK    4  A    between atoms: N_3  and  C_4
REMARK    5  A    between atoms: C_7  and  C_8
REMARK    6  A    between atoms: C_8  and  N_9
REMARK    7  A    between atoms: N_9  and  C_10
REMARK    8  A    between atoms: C_18  and  C_20
REMARK                            x       y       z     vdW  Elec       q    Type
REMARK                         _______ _______ _______ _____ _____    ______ ____
ROOT
ATOM      1  N   UNL     1      49.078   6.578  15.570  0.00  0.00    +0.000 N 
ATOM      2  H   UNL     1      50.041   6.528  15.235  0.00  0.00    +0.000 HD
ENDROOT
BRANCH   1   3
ATOM      3  C   UNL     1      48.157   6.557  14.527  0.00  0.00    +0.000 A 
ATOM      4  C   UNL     1      48.095   7.666  13.673  0.00  0.00    +0.000 A 
ATOM      5  C   UNL     1      47.226   7.702  12.578  0.00  0.00    +0.000 A 
ATOM      6  C   UNL     1      46.435   6.594  12.258  0.00  0.00    +0.000 A 
ATOM      7  C   UNL     1      46.515   5.467  13.085  0.00  0.00    +0.000 A 
ATOM      8  C   UNL     1      47.370   5.449  14.199  0.00  0.00    +0.000 A 
BRANCH   6   9
ATOM      9  C   UNL     1      45.497   6.607  11.068  0.00  0.00    +0.000 C 
BRANCH   9  10
ATOM     10  N   UNL     1      45.474   5.309  10.395  0.00  0.00    +0.000 NA
ATOM     11  H   UNL     1      45.856   4.615  11.037  0.00  0.00    +0.000 HD
BRANCH  10  12
ATOM     12  C   UNL     1      44.159   4.883   9.901  0.00  0.00    +0.000 C 
ATOM     13  C   UNL     1      43.192   4.401  10.992  0.00  0.00    +0.000 C 
ATOM     14  C   UNL     1      43.694   3.123  11.660  0.00  0.00    +0.000 C 
ATOM     15  N   UNL     1      43.871   2.044  10.685  0.00  0.00    +0.000 NA
ATOM     16  C   UNL     1      44.794   2.429   9.613  0.00  0.00    +0.000 C 
ATOM     17  C   UNL     1      44.372   3.723   8.910  0.00  0.00    +0.000 C 
ATOM     18  H   UNL     1      42.964   1.820  10.273  0.00  0.00    +0.000 HD
ENDBRANCH  10  12
ENDBRANCH   9  10
ENDBRANCH   6   9
ENDBRANCH   1   3
BRANCH   1  20
ATOM     19  C   UNL     1      50.139   8.427  16.814  0.00  0.00    +0.000 C 
ATOM     20  C   UNL     1      48.944   7.473  16.738  0.00  0.00    +0.000 C 
BRANCH  20  21
ATOM     21  C   UNL     1      48.860   6.604  18.030  0.00  0.00    +0.000 C 
ATOM     22  O   UNL     1      49.024   7.119  19.133  0.00  0.00    +0.000 OA
BRANCH  21  23
ATOM     23  C   UNL     1      48.661   5.145  17.890  0.00  0.00    +0.000 A 
ATOM     24  C   UNL     1      47.408   4.562  17.769  0.00  0.00    +0.000 A 
ATOM     25  S   UNL     1      47.458   2.885  17.465  0.00  0.00    +0.000 S 
ATOM     26  C   UNL     1      49.159   2.876  17.495  0.00  0.00    +0.000 A 
ATOM     27  N   UNL     1      49.851   1.733  17.241  0.00  0.00    +0.000 NA
ATOM     28  C   UNL     1      51.132   1.880  17.242  0.00  0.00    +0.000 A 
ATOM     29  N   UNL     1      51.783   3.055  17.506  0.00  0.00    +0.000 N 
ATOM     30  C   UNL     1      51.133   4.190  17.929  0.00  0.00    +0.000 A 
ATOM     31  O   UNL     1      51.759   5.109  18.442  0.00  0.00    +0.000 OA
ATOM     32  C   UNL     1      49.682   4.123  17.798  0.00  0.00    +0.000 A 
ATOM     33  H   UNL     1      52.789   3.079  17.583  0.00  0.00    +0.000 HD
ENDBRANCH  21  23
ENDBRANCH  20  21
ENDBRANCH   1  20
TORSDOF 7
ENDMDL
MODEL 6
REMARK VINA RESULT:    -6.483      3.531      8.610
REMARK INTER + INTRA:         -10.469
REMARK INTER:                  -9.397
REMARK INTRA:                  -1.072
REMARK UNBOUND:                -1.333
REMARK  Name = 
REMARK  8 active torsions:
REMARK  status: ('A' for Active; 'I' for Inactive)
REMARK    1  A    between atoms: C_1  and  C_2
REMARK    2  A    between atoms: C_2  and  N_3
REMARK    3  A    between atoms: C_2  and  C_18
REMARK    4  A    between atoms: N_3  and  C_4
REMARK    5  A    between atoms: C_7  and  C_8
REMARK    6  A    between atoms: C_8  and  N_9
REMARK    7  A    between atoms: N_9  and  C_10
REMARK    8  A    between atoms: C_18  and  C_20
REMARK                            x       y       z     vdW  Elec       q    Type
REMARK                         _______ _______ _______ _____ _____    ______ ____
ROOT
ATOM      1  N   UNL     1      46.989   6.742  11.957  0.00  0.00    +0.000 N 
ATOM      2  H   UNL     1      46.631   5.857  11.597  0.00  0.00    +0.000 HD
ENDROOT
BRANCH   1   3
ATOM      3  C   UNL     1      47.739   6.574  13.117  0.00  0.00    +0.000 A 
ATOM      4  C   UNL     1      48.876   7.374  13.295  0.00  0.00    +0.000 A 
ATOM      5  C   UNL     1      49.656   7.293  14.453  0.00  0.00    +0.000 A 
ATOM      6  C   UNL     1      49.282   6.455  15.508  0.00  0.00    +0.000 A 
ATOM      7  C   UNL     1      48.129   5.677  15.354  0.00  0.00    +0.000 A 
ATOM      8  C   UNL     1      47.366   5.742  14.177  0.00  0.00    +0.000 A 
BRANCH   6   9
ATOM      9  C   UNL     1      50.106   6.364  16.777  0.00  0.00    +0.000 C 
BRANCH   9  10
ATOM     10  N   UNL     1      50.767   5.064  16.889  0.00  0.00    +0.000 NA
ATOM     11  H   UNL     1      51.768   5.208  16.765  0.00  0.00    +0.000 HD
BRANCH  10  12
ATOM     12  C   UNL     1      50.503   4.332  18.133  0.00  0.00    +0.000 C 
ATOM     13  C   UNL     1      51.761   3.824  18.854  0.00  0.00    +0.000 C 
ATOM     14  C   UNL     1      52.490   2.767  18.028  0.00  0.00    +0.000 C 
ATOM     15  N   UNL     1      51.624   1.621  17.741  0.00  0.00    +0.000 NA
ATOM     16  C   UNL     1      50.402   2.029  17.040  0.00  0.00    +0.000 C 
ATOM     17  C   UNL     1      49.625   3.112  17.795  0.00  0.00    +0.000 C 
ATOM     18  H   UNL     1      51.364   1.175  18.621  0.00  0.00    +0.000 HD
ENDBRANCH  10  12
ENDBRANCH   9  10
ENDBRANCH   6   9
ENDBRANCH   1   3
BRANCH   1  20
ATOM     19  C   UNL     1      45.898   8.650  13.082  0.00  0.00    +0.000 C 
ATOM     20  C   UNL     1      46.017   7.844  11.786  0.00  0.00    +0.000 C 
BRANCH  20  21
ATOM     21  C   UNL     1      44.635   7.238  11.395  0.00  0.00    +0.000 C 
ATOM     22  O   UNL     1      43.720   7.972  11.030  0.00  0.00    +0.000 OA
BRANCH  21  23
ATOM     23  C   UNL     1      44.430   5.782  11.551  0.00  0.00    +0.000 A 
ATOM     24  C   UNL     1      43.841   5.218  12.674  0.00  0.00    +0.000 A 
ATOM     25  S   UNL     1      43.578   3.540  12.540  0.00  0.00    +0.000 S 
ATOM     26  C   UNL     1      44.253   3.503  10.980  0.00  0.00    +0.000 A 
ATOM     27  N   UNL     1      44.280   2.347  10.263  0.00  0.00    +0.000 NA
ATOM     28  C   UNL     1      44.768   2.473   9.076  0.00  0.00    +0.000 A 
ATOM     29  N   UNL     1      45.261   3.639   8.554  0.00  0.00    +0.000 N 
ATOM     30  C   UNL     1      45.405   4.787   9.297  0.00  0.00    +0.000 A 
ATOM     31  O   UNL     1      46.119   5.698   8.896  0.00  0.00    +0.000 OA
ATOM     32  C   UNL     1      44.732   4.743  10.590  0.00  0.00    +0.000 A 
ATOM     33  H   UNL     1      45.714   3.647   7.652  0.00  0.00    +0.000 HD
ENDBRANCH  21  23
ENDBRANCH  20  21
ENDBRANCH   1  20
TORSDOF 7
ENDMDL
MODEL 7
REMARK VINA RESULT:    -6.437      2.966      3.617
REMARK INTER + INTRA:         -10.405
REMARK INTER:                  -8.734
REMARK INTRA:                  -1.671
REMARK UNBOUND:                -1.333
REMARK  Name = 
REMARK  8 active torsions:
REMARK  status: ('A' for Active; 'I' for Inactive)
REMARK    1  A    between atoms: C_1  and  C_2
REMARK    2  A    between atoms: C_2  and  N_3
REMARK    3  A    between atoms: C_2  and  C_18
REMARK    4  A    between atoms: N_3  and  C_4
REMARK    5  A    between atoms: C_7  and  C_8
REMARK    6  A    between atoms: C_8  and  N_9
REMARK    7  A    between atoms: N_9  and  C_10
REMARK    8  A    between atoms: C_18  and  C_20
REMARK                            x       y       z     vdW  Elec       q    Type
REMARK                         _______ _______ _______ _____ _____    ______ ____
ROOT
ATOM      1  N   UNL     1      50.003   7.395  14.073  0.00  0.00    +0.000 N 
ATOM      2  H   UNL     1      50.735   7.194  13.391  0.00  0.00    +0.000 HD
ENDROOT
BRANCH   1   3
ATOM      3  C   UNL     1      48.746   7.490  13.483  0.00  0.00    +0.000 A 
ATOM      4  C   UNL     1      48.402   6.554  12.498  0.00  0.00    +0.000 A 
ATOM      5  C   UNL     1      47.143   6.557  11.890  0.00  0.00    +0.000 A 
ATOM      6  C   UNL     1      46.155   7.458  12.300  0.00  0.00    +0.000 A 
ATOM      7  C   UNL     1      46.478   8.375  13.307  0.00  0.00    +0.000 A 
ATOM      8  C   UNL     1      47.753   8.384  13.894  0.00  0.00    +0.000 A 
BRANCH   6   9
ATOM      9  C   UNL     1      44.780   7.469  11.663  0.00  0.00    +0.000 C 
BRANCH   9  10
ATOM     10  N   UNL     1      44.581   6.299  10.808  0.00  0.00    +0.000 NA
ATOM     11  H   UNL     1      45.447   5.761  10.805  0.00  0.00    +0.000 HD
BRANCH  10  12
ATOM     12  C   UNL     1      43.445   5.444  11.170  0.00  0.00    +0.000 C 
ATOM     13  C   UNL     1      43.327   5.140  12.671  0.00  0.00    +0.000 C 
ATOM     14  C   UNL     1      44.506   4.306  13.167  0.00  0.00    +0.000 C 
ATOM     15  N   UNL     1      44.605   3.037  12.442  0.00  0.00    +0.000 NA
ATOM     16  C   UNL     1      44.732   3.249  10.996  0.00  0.00    +0.000 C 
ATOM     17  C   UNL     1      43.597   4.104  10.426  0.00  0.00    +0.000 C 
ATOM     18  H   UNL     1      43.764   2.488  12.621  0.00  0.00    +0.000 HD
ENDBRANCH  10  12
ENDBRANCH   9  10
ENDBRANCH   6   9
ENDBRANCH   1   3
BRANCH   1  20
ATOM     19  C   UNL     1      51.445   9.345  14.534  0.00  0.00    +0.000 C 
ATOM     20  C   UNL     1      50.465   8.327  15.124  0.00  0.00    +0.000 C 
BRANCH  20  21
ATOM     21  C   UNL     1      51.152   7.505  16.256  0.00  0.00    +0.000 C 
ATOM     22  O   UNL     1      52.209   6.917  16.040  0.00  0.00    +0.000 OA
BRANCH  21  23
ATOM     23  C   UNL     1      50.465   7.384  17.560  0.00  0.00    +0.000 A 
ATOM     24  C   UNL     1      50.870   8.074  18.694  0.00  0.00    +0.000 A 
ATOM     25  S   UNL     1      49.821   7.884  20.024  0.00  0.00    +0.000 S 
ATOM     26  C   UNL     1      48.792   6.862  19.135  0.00  0.00    +0.000 A 
ATOM     27  N   UNL     1      47.645   6.384  19.687  0.00  0.00    +0.000 NA
ATOM     28  C   UNL     1      46.931   5.668  18.885  0.00  0.00    +0.000 A 
ATOM     29  N   UNL     1      47.277   5.360  17.596  0.00  0.00    +0.000 N 
ATOM     30  C   UNL     1      48.499   5.681  17.054  0.00  0.00    +0.000 A 
ATOM     31  O   UNL     1      48.885   5.134  16.029  0.00  0.00    +0.000 OA
ATOM     32  C   UNL     1      49.275   6.617  17.860  0.00  0.00    +0.000 A 
ATOM     33  H   UNL     1      46.719   4.717  17.054  0.00  0.00    +0.000 HD
ENDBRANCH  21  23
ENDBRANCH  20  21
ENDBRANCH   1  20
TORSDOF 7
ENDMDL
MODEL 8
REMARK VINA RESULT:    -6.208      4.077      8.903
REMARK INTER + INTRA:         -10.082
REMARK INTER:                  -9.157
REMARK INTRA:                  -0.924
REMARK UNBOUND:                -1.333
REMARK  Name = 
REMARK  8 active torsions:
REMARK  status: ('A' for Active; 'I' for Inactive)
REMARK    1  A    between atoms: C_1  and  C_2
REMARK    2  A    between atoms: C_2  and  N_3
REMARK    3  A    between atoms: C_2  and  C_18
REMARK    4  A    between atoms: N_3  and  C_4
REMARK    5  A    between atoms: C_7  and  C_8
REMARK    6  A    between atoms: C_8  and  N_9
REMARK    7  A    between atoms: N_9  and  C_10
REMARK    8  A    between atoms: C_18  and  C_20
REMARK                            x       y       z     vdW  Elec       q    Type
REMARK                         _______ _______ _______ _____ _____    ______ ____
ROOT
ATOM      1  N   UNL     1      46.814   6.167  12.050  0.00  0.00    +0.000 N 
ATOM      2  H   UNL     1      46.575   5.348  11.492  0.00  0.00    +0.000 HD
ENDROOT
BRANCH   1   3
ATOM      3  C   UNL     1      47.257   5.825  13.324  0.00  0.00    +0.000 A 
ATOM      4  C   UNL     1      48.187   6.665  13.952  0.00  0.00    +0.000 A 
ATOM      5  C   UNL     1      48.647   6.411  15.248  0.00  0.00    +0.000 A 
ATOM      6  C   UNL     1      48.135   5.343  15.991  0.00  0.00    +0.000 A 
ATOM      7  C   UNL     1      47.179   4.518  15.385  0.00  0.00    +0.000 A 
ATOM      8  C   UNL     1      46.743   4.763  14.073  0.00  0.00    +0.000 A 
BRANCH   6   9
ATOM      9  C   UNL     1      48.609   5.060  17.402  0.00  0.00    +0.000 C 
BRANCH   9  10
ATOM     10  N   UNL     1      49.368   6.187  17.943  0.00  0.00    +0.000 NA
ATOM     11  H   UNL     1      49.451   6.891  17.211  0.00  0.00    +0.000 HD
BRANCH  10  12
ATOM     12  C   UNL     1      48.821   6.780  19.168  0.00  0.00    +0.000 C 
ATOM     13  C   UNL     1      47.620   7.711  18.946  0.00  0.00    +0.000 C 
ATOM     14  C   UNL     1      48.016   8.956  18.156  0.00  0.00    +0.000 C 
ATOM     15  N   UNL     1      49.068   9.711  18.839  0.00  0.00    +0.000 NA
ATOM     16  C   UNL     1      50.258   8.886  19.077  0.00  0.00    +0.000 C 
ATOM     17  C   UNL     1      49.937   7.600  19.844  0.00  0.00    +0.000 C 
ATOM     18  H   UNL     1      48.710  10.038  19.737  0.00  0.00    +0.000 HD
ENDBRANCH  10  12
ENDBRANCH   9  10
ENDBRANCH   6   9
ENDBRANCH   1   3
BRANCH   1  20
ATOM     19  C   UNL     1      45.771   8.167  13.053  0.00  0.00    +0.000 C 
ATOM     20  C   UNL     1      45.894   7.297  11.799  0.00  0.00    +0.000 C 
BRANCH  20  21
ATOM     21  C   UNL     1      44.500   6.729  11.394  0.00  0.00    +0.000 C 
ATOM     22  O   UNL     1      43.554   7.489  11.205  0.00  0.00    +0.000 OA
BRANCH  21  23
ATOM     23  C   UNL     1      44.326   5.262  11.324  0.00  0.00    +0.000 A 
ATOM     24  C   UNL     1      43.662   4.532  12.299  0.00  0.00    +0.000 A 
ATOM     25  S   UNL     1      43.461   2.886  11.906  0.00  0.00    +0.000 S 
ATOM     26  C   UNL     1      44.266   3.086  10.421  0.00  0.00    +0.000 A 
ATOM     27  N   UNL     1      44.389   2.046   9.554  0.00  0.00    +0.000 NA
ATOM     28  C   UNL     1      44.971   2.351   8.443  0.00  0.00    +0.000 A 
ATOM     29  N   UNL     1      45.471   3.588   8.138  0.00  0.00    +0.000 N 
ATOM     30  C   UNL     1      45.518   4.619   9.045  0.00  0.00    +0.000 A 
ATOM     31  O   UNL     1      46.235   5.591   8.843  0.00  0.00    +0.000 OA
ATOM     32  C   UNL     1      44.740   4.378  10.255  0.00  0.00    +0.000 A 
ATOM     33  H   UNL     1      45.999   3.733   7.289  0.00  0.00    +0.000 HD
ENDBRANCH  21  23
ENDBRANCH  20  21
ENDBRANCH   1  20
TORSDOF 7
ENDMDL
MODEL 9
REMARK VINA RESULT:    -5.996      2.031      2.863
REMARK INTER + INTRA:          -9.782
REMARK INTER:                  -8.393
REMARK INTRA:                  -1.389
REMARK UNBOUND:                -1.333
REMARK  Name = 
REMARK  8 active torsions:
REMARK  status: ('A' for Active; 'I' for Inactive)
REMARK    1  A    between atoms: C_1  and  C_2
REMARK    2  A    between atoms: C_2  and  N_3
REMARK    3  A    between atoms: C_2  and  C_18
REMARK    4  A    between atoms: N_3  and  C_4
REMARK    5  A    between atoms: C_7  and  C_8
REMARK    6  A    between atoms: C_8  and  N_9
REMARK    7  A    between atoms: N_9  and  C_10
REMARK    8  A    between atoms: C_18  and  C_20
REMARK                            x       y       z     vdW  Elec       q    Type
REMARK                         _______ _______ _______ _____ _____    ______ ____
ROOT
ATOM      1  N   UNL     1      49.472   7.783  17.115  0.00  0.00    +0.000 N 
ATOM      2  H   UNL     1      50.366   8.273  17.088  0.00  0.00    +0.000 HD
ENDROOT
BRANCH   1   3
ATOM      3  C   UNL     1      48.843   7.766  15.874  0.00  0.00    +0.000 A 
ATOM      4  C   UNL     1      48.754   6.546  15.191  0.00  0.00    +0.000 A 
ATOM      5  C   UNL     1      48.101   6.440  13.959  0.00  0.00    +0.000 A 
ATOM      6  C   UNL     1      47.449   7.543  13.400  0.00  0.00    +0.000 A 
ATOM      7  C   UNL     1      47.503   8.760  14.091  0.00  0.00    +0.000 A 
ATOM      8  C   UNL     1      48.185   8.865  15.314  0.00  0.00    +0.000 A 
BRANCH   6   9
ATOM      9  C   UNL     1      46.723   7.446  12.073  0.00  0.00    +0.000 C 
BRANCH   9  10
ATOM     10  N   UNL     1      45.503   6.649  12.193  0.00  0.00    +0.000 NA
ATOM     11  H   UNL     1      44.765   7.123  11.673  0.00  0.00    +0.000 HD
BRANCH  10  12
ATOM     12  C   UNL     1      45.621   5.252  11.758  0.00  0.00    +0.000 C 
ATOM     13  C   UNL     1      44.851   4.916  10.473  0.00  0.00    +0.000 C 
ATOM     14  C   UNL     1      43.343   5.044  10.675  0.00  0.00    +0.000 C 
ATOM     15  N   UNL     1      42.870   4.163  11.745  0.00  0.00    +0.000 NA
ATOM     16  C   UNL     1      43.556   4.434  13.012  0.00  0.00    +0.000 C 
ATOM     17  C   UNL     1      45.080   4.351  12.885  0.00  0.00    +0.000 C 
ATOM     18  H   UNL     1      43.046   3.194  11.477  0.00  0.00    +0.000 HD
ENDBRANCH  10  12
ENDBRANCH   9  10
ENDBRANCH   6   9
ENDBRANCH   1   3
BRANCH   1  20
ATOM     19  C   UNL     1      49.367   9.210  19.127  0.00  0.00    +0.000 C 
ATOM     20  C   UNL     1      48.742   8.031  18.377  0.00  0.00    +0.000 C 
BRANCH  20  21
ATOM     21  C   UNL     1      48.799   6.741  19.251  0.00  0.00    +0.000 C 
ATOM     22  O   UNL     1      49.113   6.811  20.437  0.00  0.00    +0.000 OA
BRANCH  21  23
ATOM     23  C   UNL     1      48.548   5.435  18.604  0.00  0.00    +0.000 A 
ATOM     24  C   UNL     1      47.307   5.064  18.109  0.00  0.00    +0.000 A 
ATOM     25  S   UNL     1      47.318   3.578  17.272  0.00  0.00    +0.000 S 
ATOM     26  C   UNL     1      48.983   3.372  17.553  0.00  0.00    +0.000 A 
ATOM     27  N   UNL     1      49.645   2.301  17.038  0.00  0.00    +0.000 NA
ATOM     28  C   UNL     1      50.912   2.298  17.280  0.00  0.00    +0.000 A 
ATOM     29  N   UNL     1      51.569   3.246  18.016  0.00  0.00    +0.000 N 
ATOM     30  C   UNL     1      50.917   4.250  18.692  0.00  0.00    +0.000 A 
ATOM     31  O   UNL     1      51.492   4.881  19.570  0.00  0.00    +0.000 OA
ATOM     32  C   UNL     1      49.511   4.390  18.330  0.00  0.00    +0.000 A 
ATOM     33  H   UNL     1      52.546   3.133  18.246  0.00  0.00    +0.000 HD
ENDBRANCH  21  23
ENDBRANCH  20  21
ENDBRANCH   1  20
TORSDOF 7
ENDMDL
