MODEL 1
REMARK VINA RESULT:    -7.541      0.000      0.000
REMARK INTER + INTRA:         -11.189
REMARK INTER:                 -10.407
REMARK INTRA:                  -0.782
REMARK UNBOUND:                -0.782
REMARK  Name = 
REMARK  7 active torsions:
REMARK  status: ('A' for Active; 'I' for Inactive)
REMARK    1  A    between atoms: N_1  and  C_2
REMARK    2  A    between atoms: C_2  and  C_3
REMARK    3  A    between atoms: C_7  and  C_8
REMARK    4  A    between atoms: C_8  and  C_9
REMARK    5  A    between atoms: C_9  and  O_10
REMARK    6  A    between atoms: O_10  and  C_11
REMARK    7  A    between atoms: C_14  and  C_15
REMARK                            x       y       z     vdW  Elec       q    Type
REMARK                         _______ _______ _______ _____ _____    ______ ____
ROOT
ATOM      1  C   UNL     1      43.496   3.694  11.291  0.00  0.00    +0.000 C 
ENDROOT
BRANCH   1   2
ATOM      2  C   UNL     1      43.481   5.017  12.057  0.00  0.00    +0.000 C 
BRANCH   2   7
ATOM      3  C   UNL     1      46.768   5.131  14.000  0.00  0.00    +0.000 A 
ATOM      4  C   UNL     1      47.549   5.934  13.158  0.00  0.00    +0.000 A 
ATOM      5  C   UNL     1      47.005   6.470  11.991  0.00  0.00    +0.000 A 
ATOM      6  C   UNL     1      45.680   6.202  11.646  0.00  0.00    +0.000 A 
ATOM      7  C   UNL     1      44.881   5.401  12.472  0.00  0.00    +0.000 A 
ATOM      8  C   UNL     1      45.435   4.873  13.647  0.00  0.00    +0.000 A 
BRANCH   3   9
ATOM      9  C   UNL     1      47.369   4.482  15.218  0.00  0.00    +0.000 C 
BRANCH   9  10
ATOM     10  N   UNL     1      47.692   3.087  14.948  0.00  0.00    +0.000 NA
ATOM     11  H   UNL     1      46.981   2.688  14.339  0.00  0.00    +0.000 HD
ATOM     12  H   UNL     1      47.650   2.564  15.823  0.00  0.00    +0.000 HD
ENDBRANCH   9  10
ENDBRANCH   3   9
ENDBRANCH   2   7
ENDBRANCH   1   2
BRANCH   1  13
ATOM     13  O   UNL     1      43.448   3.938   9.881  0.00  0.00    +0.000 OA
BRANCH  13  14
ATOM     14  C   UNL     1      44.468   3.385   9.147  0.00  0.00    +0.000 A 
ATOM     15  C   UNL     1      44.843   2.039   9.171  0.00  0.00    +0.000 A 
ATOM     16  C   UNL     1      45.902   1.587   8.382  0.00  0.00    +0.000 A 
ATOM     17  C   UNL     1      46.596   2.468   7.548  0.00  0.00    +0.000 A 
ATOM     18  C   UNL     1      46.230   3.820   7.526  0.00  0.00    +0.000 A 
ATOM     19  C   UNL     1      45.171   4.269   8.324  0.00  0.00    +0.000 A 
BRANCH  17  20
ATOM     20  C   UNL     1      47.717   1.921   6.740  0.00  0.00    +0.000 C 
ATOM     21  N   UNL     1      48.746   2.763   6.431  0.00  0.00    +0.000 N 
ATOM     22  O   UNL     1      47.705   0.769   6.324  0.00  0.00    +0.000 OA
ATOM     23  H   UNL     1      48.690   3.764   6.549  0.00  0.00    +0.000 HD
ATOM     24  H   UNL     1      49.434   2.403   5.782  0.00  0.00    +0.000 HD
ENDBRANCH  17  20
ENDBRANCH  13  14
ENDBRANCH   1  13
TORSDOF 7
ENDMDL
MODEL 2
REMARK VINA RESULT:    -7.505      1.572      2.290
REMARK INTER + INTRA:         -11.139
REMARK INTER:                 -10.395
REMARK INTRA:                  -0.744
REMARK UNBOUND:                -0.782
REMARK  Name = 
REMARK  7 active torsions:
REMARK  status: ('A' for Active; 'I' for Inactive)
REMARK    1  A    between atoms: N_1  and  C_2
REMARK    2  A    between atoms: C_2  and  C_3
REMARK    3  A    between atoms: C_7  and  C_8
REMARK    4  A    between atoms: C_8  and  C_9
REMARK    5  A    between atoms: C_9  and  O_10
REMARK    6  A    between atoms: O_10  and  C_11
REMARK    7  A    between atoms: C_14  and  C_15
REMARK                            x       y       z     vdW  Elec       q    Type
REMARK                         _______ _______ _______ _____ _____    ______ ____
ROOT
ATOM      1  C   UNL     1      43.531   2.985  11.425  0.00  0.00    +0.000 C 
ENDROOT
BRANCH   1   2
ATOM      2  C   UNL     1      43.419   3.956  12.601  0.00  0.00    +0.000 C 
BRANCH   2   7
ATOM      3  C   UNL     1      45.888   6.852  12.937  0.00  0.00    +0.000 A 
ATOM      4  C   UNL     1      47.054   6.168  13.309  0.00  0.00    +0.000 A 
ATOM      5  C   UNL     1      47.054   4.777  13.410  0.00  0.00    +0.000 A 
ATOM      6  C   UNL     1      45.889   4.054  13.151  0.00  0.00    +0.000 A 
ATOM      7  C   UNL     1      44.712   4.716  12.780  0.00  0.00    +0.000 A 
ATOM      8  C   UNL     1      44.724   6.115  12.673  0.00  0.00    +0.000 A 
BRANCH   3   9
ATOM      9  C   UNL     1      45.857   8.356  12.904  0.00  0.00    +0.000 C 
BRANCH   9  10
ATOM     10  N   UNL     1      46.609   8.909  14.024  0.00  0.00    +0.000 NA
ATOM     11  H   UNL     1      46.249   8.524  14.894  0.00  0.00    +0.000 HD
ATOM     12  H   UNL     1      46.449   9.915  14.063  0.00  0.00    +0.000 HD
ENDBRANCH   9  10
ENDBRANCH   3   9
ENDBRANCH   2   7
ENDBRANCH   1   2
BRANCH   1  13
ATOM     13  O   UNL     1      43.578   3.706  10.190  0.00  0.00    +0.000 OA
BRANCH  13  14
ATOM     14  C   UNL     1      44.563   3.322   9.315  0.00  0.00    +0.000 A 
ATOM     15  C   UNL     1      45.306   4.186   8.505  0.00  0.00    +0.000 A 
ATOM     16  C   UNL     1      46.284   3.683   7.646  0.00  0.00    +0.000 A 
ATOM     17  C   UNL     1      46.543   2.310   7.588  0.00  0.00    +0.000 A 
ATOM     18  C   UNL     1      45.797   1.438   8.391  0.00  0.00    +0.000 A 
ATOM     19  C   UNL     1      44.813   1.948   9.247  0.00  0.00    +0.000 A 
BRANCH  17  20
ATOM     20  C   UNL     1      47.594   1.842   6.646  0.00  0.00    +0.000 C 
ATOM     21  N   UNL     1      48.678   2.649   6.454  0.00  0.00    +0.000 N 
ATOM     22  O   UNL     1      47.478   0.793   6.026  0.00  0.00    +0.000 OA
ATOM     23  H   UNL     1      48.706   3.611   6.757  0.00  0.00    +0.000 HD
ATOM     24  H   UNL     1      49.316   2.367   5.721  0.00  0.00    +0.000 HD
ENDBRANCH  17  20
ENDBRANCH  13  14
ENDBRANCH   1  13
TORSDOF 7
ENDMDL
MODEL 3
REMARK VINA RESULT:    -7.451      1.998      2.717
REMARK INTER + INTRA:         -11.064
REMARK INTER:                 -10.225
REMARK INTRA:                  -0.839
REMARK UNBOUND:                -0.782
REMARK  Name = 
REMARK  7 active torsions:
REMARK  status: ('A' for Active; 'I' for Inactive)
REMARK    1  A    between atoms: N_1  and  C_2
REMARK    2  A    between atoms: C_2  and  C_3
REMARK    3  A    between atoms: C_7  and  C_8
REMARK    4  A    between atoms: C_8  and  C_9
REMARK    5  A    between atoms: C_9  and  O_10
REMARK    6  A    between atoms: O_10  and  C_11
REMARK    7  A    between atoms: C_14  and  C_15
REMARK                            x       y       z     vdW  Elec       q    Type
REMARK                         _______ _______ _______ _____ _____    ______ ____
ROOT
ATOM      1  C   UNL     1      43.589   2.861  11.712  0.00  0.00    +0.000 C 
ENDROOT
BRANCH   1   2
ATOM      2  C   UNL     1      43.495   3.889  12.839  0.00  0.00    +0.000 C 
BRANCH   2   7
ATOM      3  C   UNL     1      45.392   7.166  12.328  0.00  0.00    +0.000 A 
ATOM      4  C   UNL     1      46.678   6.799  12.747  0.00  0.00    +0.000 A 
ATOM      5  C   UNL     1      46.942   5.491  13.153  0.00  0.00    +0.000 A 
ATOM      6  C   UNL     1      45.923   4.537  13.155  0.00  0.00    +0.000 A 
ATOM      7  C   UNL     1      44.629   4.882  12.741  0.00  0.00    +0.000 A 
ATOM      8  C   UNL     1      44.376   6.198  12.328  0.00  0.00    +0.000 A 
BRANCH   3   9
ATOM      9  C   UNL     1      45.080   8.593  11.966  0.00  0.00    +0.000 C 
BRANCH   9  10
ATOM     10  N   UNL     1      43.888   8.660  11.129  0.00  0.00    +0.000 NA
ATOM     11  H   UNL     1      43.191   9.247  11.582  0.00  0.00    +0.000 HD
ATOM     12  H   UNL     1      43.481   7.727  11.062  0.00  0.00    +0.000 HD
ENDBRANCH   9  10
ENDBRANCH   3   9
ENDBRANCH   2   7
ENDBRANCH   1   2
BRANCH   1  13
ATOM     13  O   UNL     1      43.386   3.494  10.445  0.00  0.00    +0.000 OA
BRANCH  13  14
ATOM     14  C   UNL     1      44.386   3.313   9.523  0.00  0.00    +0.000 A 
ATOM     15  C   UNL     1      45.014   4.332   8.800  0.00  0.00    +0.000 A 
ATOM     16  C   UNL     1      46.020   4.029   7.881  0.00  0.00    +0.000 A 
ATOM     17  C   UNL     1      46.423   2.707   7.676  0.00  0.00    +0.000 A 
ATOM     18  C   UNL     1      45.793   1.680   8.391  0.00  0.00    +0.000 A 
ATOM     19  C   UNL     1      44.780   1.989   9.307  0.00  0.00    +0.000 A 
BRANCH  17  20
ATOM     20  C   UNL     1      47.496   2.456   6.678  0.00  0.00    +0.000 C 
ATOM     21  N   UNL     1      47.407   3.100   5.477  0.00  0.00    +0.000 N 
ATOM     22  O   UNL     1      48.405   1.666   6.898  0.00  0.00    +0.000 OA
ATOM     23  H   UNL     1      46.569   3.569   5.167  0.00  0.00    +0.000 HD
ATOM     24  H   UNL     1      48.079   2.820   4.774  0.00  0.00    +0.000 HD
ENDBRANCH  17  20
ENDBRANCH  13  14
ENDBRANCH   1  13
TORSDOF 7
ENDMDL
MODEL 4
REMARK VINA RESULT:    -6.922      2.416      6.395
REMARK INTER + INTRA:         -10.334
REMARK INTER:                  -9.466
REMARK INTRA:                  -0.867
REMARK UNBOUND:                -0.782
REMARK  Name = 
REMARK  7 active torsions:
REMARK  status: ('A' for Active; 'I' for Inactive)
REMARK    1  A    between atoms: N_1  and  C_2
REMARK    2  A    between atoms: C_2  and  C_3
REMARK    3  A    between atoms: C_7  and  C_8
REMARK    4  A    between atoms: C_8  and  C_9
REMARK    5  A    between atoms: C_9  and  O_10
REMARK    6  A    between atoms: O_10  and  C_11
REMARK    7  A    between atoms: C_14  and  C_15
REMARK                            x       y       z     vdW  Elec       q    Type
REMARK                         _______ _______ _______ _____ _____    ______ ____
ROOT
ATOM      1  C   UNL     1      43.413   3.583  11.117  0.00  0.00    +0.000 C 
ENDROOT
BRANCH   1   2
ATOM      2  C   UNL     1      44.008   2.381  10.383  0.00  0.00    +0.000 C 
BRANCH   2   7
ATOM      3  C   UNL     1      46.607   2.290   7.585  0.00  0.00    +0.000 A 
ATOM      4  C   UNL     1      46.745   3.655   7.302  0.00  0.00    +0.000 A 
ATOM      5  C   UNL     1      46.035   4.604   8.039  0.00  0.00    +0.000 A 
ATOM      6  C   UNL     1      45.171   4.198   9.058  0.00  0.00    +0.000 A 
ATOM      7  C   UNL     1      45.017   2.838   9.357  0.00  0.00    +0.000 A 
ATOM      8  C   UNL     1      45.742   1.894   8.616  0.00  0.00    +0.000 A 
BRANCH   3   9
ATOM      9  C   UNL     1      47.307   1.257   6.743  0.00  0.00    +0.000 C 
BRANCH   9  10
ATOM     10  N   UNL     1      48.430   1.853   6.030  0.00  0.00    +0.000 NA
ATOM     11  H   UNL     1      49.279   1.735   6.580  0.00  0.00    +0.000 HD
ATOM     12  H   UNL     1      48.274   2.857   5.951  0.00  0.00    +0.000 HD
ENDBRANCH   9  10
ENDBRANCH   3   9
ENDBRANCH   2   7
ENDBRANCH   1   2
BRANCH   1  13
ATOM     13  O   UNL     1      43.890   3.627  12.465  0.00  0.00    +0.000 OA
BRANCH  13  14
ATOM     14  C   UNL     1      44.824   4.596  12.733  0.00  0.00    +0.000 A 
ATOM     15  C   UNL     1      46.104   4.366  13.247  0.00  0.00    +0.000 A 
ATOM     16  C   UNL     1      46.972   5.432  13.486  0.00  0.00    +0.000 A 
ATOM     17  C   UNL     1      46.582   6.745  13.205  0.00  0.00    +0.000 A 
ATOM     18  C   UNL     1      45.299   6.984  12.697  0.00  0.00    +0.000 A 
ATOM     19  C   UNL     1      44.430   5.911  12.465  0.00  0.00    +0.000 A 
BRANCH  17  20
ATOM     20  C   UNL     1      47.555   7.833  13.489  0.00  0.00    +0.000 C 
ATOM     21  N   UNL     1      47.179   8.803  14.374  0.00  0.00    +0.000 N 
ATOM     22  O   UNL     1      48.637   7.890  12.921  0.00  0.00    +0.000 OA
ATOM     23  H   UNL     1      46.226   8.924  14.682  0.00  0.00    +0.000 HD
ATOM     24  H   UNL     1      47.806   9.593  14.457  0.00  0.00    +0.000 HD
ENDBRANCH  17  20
ENDBRANCH  13  14
ENDBRANCH   1  13
TORSDOF 7
ENDMDL
MODEL 5
REMARK VINA RESULT:    -6.788      1.705      2.181
REMARK INTER + INTRA:         -10.148
REMARK INTER:                  -9.561
REMARK INTRA:                  -0.588
REMARK UNBOUND:                -0.782
REMARK  Name = 
REMARK  7 active torsions:
REMARK  status: ('A' for Active; 'I' for Inactive)
REMARK    1  A    between atoms: N_1  and  C_2
REMARK    2  A    between atoms: C_2  and  C_3
REMARK    3  A    between atoms: C_7  and  C_8
REMARK    4  A    between atoms: C_8  and  C_9
REMARK    5  A    between atoms: C_9  and  O_10
REMARK    6  A    between atoms: O_10  and  C_11
REMARK    7  A    between atoms: C_14  and  C_15
REMARK                            x       y       z     vdW  Elec       q    Type
REMARK                         _______ _______ _______ _____ _____    ______ ____
ROOT
ATOM      1  C   UNL     1      43.962   5.049  10.711  0.00  0.00    +0.000 C 
ENDROOT
BRANCH   1   2
ATOM      2  C   UNL     1      45.066   4.849  11.750  0.00  0.00    +0.000 C 
BRANCH   2   7
ATOM      3  C   UNL     1      47.681   7.612  12.103  0.00  0.00    +0.000 A 
ATOM      4  C   UNL     1      46.886   8.679  12.539  0.00  0.00    +0.000 A 
ATOM      5  C   UNL     1      45.519   8.498  12.758  0.00  0.00    +0.000 A 
ATOM      6  C   UNL     1      44.931   7.253  12.534  0.00  0.00    +0.000 A 
ATOM      7  C   UNL     1      45.708   6.171  12.097  0.00  0.00    +0.000 A 
ATOM      8  C   UNL     1      47.081   6.362  11.887  0.00  0.00    +0.000 A 
BRANCH   3   9
ATOM      9  C   UNL     1      49.138   7.818  11.787  0.00  0.00    +0.000 C 
BRANCH   9  10
ATOM     10  N   UNL     1      49.965   6.905  12.567  0.00  0.00    +0.000 NA
ATOM     11  H   UNL     1      49.549   6.775  13.486  0.00  0.00    +0.000 HD
ATOM     12  H   UNL     1      50.877   7.336  12.720  0.00  0.00    +0.000 HD
ENDBRANCH   9  10
ENDBRANCH   3   9
ENDBRANCH   2   7
ENDBRANCH   1   2
BRANCH   1  13
ATOM     13  O   UNL     1      43.656   3.807  10.069  0.00  0.00    +0.000 OA
BRANCH  13  14
ATOM     14  C   UNL     1      44.620   3.324   9.220  0.00  0.00    +0.000 A 
ATOM     15  C   UNL     1      45.050   1.995   9.158  0.00  0.00    +0.000 A 
ATOM     16  C   UNL     1      46.044   1.615   8.254  0.00  0.00    +0.000 A 
ATOM     17  C   UNL     1      46.617   2.553   7.391  0.00  0.00    +0.000 A 
ATOM     18  C   UNL     1      46.196   3.888   7.453  0.00  0.00    +0.000 A 
ATOM     19  C   UNL     1      45.203   4.264   8.365  0.00  0.00    +0.000 A 
BRANCH  17  20
ATOM     20  C   UNL     1      47.674   2.081   6.458  0.00  0.00    +0.000 C 
ATOM     21  N   UNL     1      48.848   2.779   6.426  0.00  0.00    +0.000 N 
ATOM     22  O   UNL     1      47.492   1.130   5.710  0.00  0.00    +0.000 OA
ATOM     23  H   UNL     1      48.955   3.691   6.844  0.00  0.00    +0.000 HD
ATOM     24  H   UNL     1      49.501   2.513   5.700  0.00  0.00    +0.000 HD
ENDBRANCH  17  20
ENDBRANCH  13  14
ENDBRANCH   1  13
TORSDOF 7
ENDMDL
MODEL 6
REMARK VINA RESULT:    -6.617      2.145      6.855
REMARK INTER + INTRA:          -9.913
REMARK INTER:                  -9.343
REMARK INTRA:                  -0.570
REMARK UNBOUND:                -0.782
REMARK  Name = 
REMARK  7 active torsions:
REMARK  status: ('A' for Active; 'I' for Inactive)
REMARK    1  A    between atoms: N_1  and  C_2
REMARK    2  A    between atoms: C_2  and  C_3
REMARK    3  A    between atoms: C_7  and  C_8
REMARK    4  A    between atoms: C_8  and  C_9
REMARK    5  A    between atoms: C_9  and  O_10
REMARK    6  A    between atoms: O_10  and  C_11
REMARK    7  A    between atoms: C_14  and  C_15
REMARK                            x       y       z     vdW  Elec       q    Type
REMARK                         _______ _______ _______ _____ _____    ______ ____
ROOT
ATOM      1  C   UNL     1      43.946   3.906  10.375  0.00  0.00    +0.000 C 
ENDROOT
BRANCH   1   2
ATOM      2  C   UNL     1      44.327   4.294   8.946  0.00  0.00    +0.000 C 
BRANCH   2   7
ATOM      3  C   UNL     1      46.714   2.485   6.574  0.00  0.00    +0.000 A 
ATOM      4  C   UNL     1      46.817   1.235   7.199  0.00  0.00    +0.000 A 
ATOM      5  C   UNL     1      46.087   0.963   8.357  0.00  0.00    +0.000 A 
ATOM      6  C   UNL     1      45.256   1.939   8.908  0.00  0.00    +0.000 A 
ATOM      7  C   UNL     1      45.139   3.196   8.301  0.00  0.00    +0.000 A 
ATOM      8  C   UNL     1      45.871   3.457   7.134  0.00  0.00    +0.000 A 
BRANCH   3   9
ATOM      9  C   UNL     1      47.558   2.815   5.372  0.00  0.00    +0.000 C 
BRANCH   9  10
ATOM     10  N   UNL     1      48.300   1.640   4.930  0.00  0.00    +0.000 NA
ATOM     11  H   UNL     1      49.191   1.601   5.419  0.00  0.00    +0.000 HD
ATOM     12  H   UNL     1      48.518   1.743   3.939  0.00  0.00    +0.000 HD
ENDBRANCH   9  10
ENDBRANCH   3   9
ENDBRANCH   2   7
ENDBRANCH   1   2
BRANCH   1  13
ATOM     13  O   UNL     1      43.777   5.078  11.177  0.00  0.00    +0.000 OA
BRANCH  13  14
ATOM     14  C   UNL     1      44.886   5.486  11.875  0.00  0.00    +0.000 A 
ATOM     15  C   UNL     1      45.632   6.637  11.606  0.00  0.00    +0.000 A 
ATOM     16  C   UNL     1      46.748   6.954  12.382  0.00  0.00    +0.000 A 
ATOM     17  C   UNL     1      47.131   6.132  13.446  0.00  0.00    +0.000 A 
ATOM     18  C   UNL     1      46.393   4.973  13.716  0.00  0.00    +0.000 A 
ATOM     19  C   UNL     1      45.277   4.657  12.931  0.00  0.00    +0.000 A 
BRANCH  17  20
ATOM     20  C   UNL     1      48.334   6.525  14.227  0.00  0.00    +0.000 C 
ATOM     21  N   UNL     1      48.199   6.647  15.580  0.00  0.00    +0.000 N 
ATOM     22  O   UNL     1      49.400   6.776  13.680  0.00  0.00    +0.000 OA
ATOM     23  H   UNL     1      47.301   6.680  16.040  0.00  0.00    +0.000 HD
ATOM     24  H   UNL     1      48.995   7.032  16.072  0.00  0.00    +0.000 HD
ENDBRANCH  17  20
ENDBRANCH  13  14
ENDBRANCH   1  13
TORSDOF 7
ENDMDL
MODEL 7
REMARK VINA RESULT:    -6.074      1.931      2.419
REMARK INTER + INTRA:          -9.163
REMARK INTER:                  -8.749
REMARK INTRA:                  -0.414
REMARK UNBOUND:                -0.782
REMARK  Name = 
REMARK  7 active torsions:
REMARK  status: ('A' for Active; 'I' for Inactive)
REMARK    1  A    between atoms: N_1  and  C_2
REMARK    2  A    between atoms: C_2  and  C_3
REMARK    3  A    between atoms: C_7  and  C_8
REMARK    4  A    between atoms: C_8  and  C_9
REMARK    5  A    between atoms: C_9  and  O_10
REMARK    6  A    between atoms: O_10  and  C_11
REMARK    7  A    between atoms: C_14  and  C_15
REMARK                            x       y       z     vdW  Elec       q    Type
REMARK                         _______ _______ _______ _____ _____    ______ ____
ROOT
ATOM      1  C   UNL     1      44.881   4.135   8.733  0.00  0.00    +0.000 C 
ENDROOT
BRANCH   1   2
ATOM      2  C   UNL     1      44.640   3.660  10.166  0.00  0.00    +0.000 C 
BRANCH   2   7
ATOM      3  C   UNL     1      46.316   5.076  13.292  0.00  0.00    +0.000 A 
ATOM      4  C   UNL     1      46.491   6.416  12.919  0.00  0.00    +0.000 A 
ATOM      5  C   UNL     1      46.032   6.869  11.682  0.00  0.00    +0.000 A 
ATOM      6  C   UNL     1      45.405   5.989  10.800  0.00  0.00    +0.000 A 
ATOM      7  C   UNL     1      45.221   4.645  11.152  0.00  0.00    +0.000 A 
ATOM      8  C   UNL     1      45.678   4.201  12.401  0.00  0.00    +0.000 A 
BRANCH   3   9
ATOM      9  C   UNL     1      46.879   4.560  14.590  0.00  0.00    +0.000 C 
BRANCH   9  10
ATOM     10  N   UNL     1      47.343   3.187  14.436  0.00  0.00    +0.000 NA
ATOM     11  H   UNL     1      48.251   3.086  14.885  0.00  0.00    +0.000 HD
ATOM     12  H   UNL     1      47.489   2.998  13.444  0.00  0.00    +0.000 HD
ENDBRANCH   9  10
ENDBRANCH   3   9
ENDBRANCH   2   7
ENDBRANCH   1   2
BRANCH   1  13
ATOM     13  O   UNL     1      46.252   3.943   8.372  0.00  0.00    +0.000 OA
BRANCH  13  14
ATOM     14  C   UNL     1      46.488   2.981   7.422  0.00  0.00    +0.000 A 
ATOM     15  C   UNL     1      46.704   1.624   7.681  0.00  0.00    +0.000 A 
ATOM     16  C   UNL     1      46.939   0.733   6.633  0.00  0.00    +0.000 A 
ATOM     17  C   UNL     1      46.950   1.179   5.308  0.00  0.00    +0.000 A 
ATOM     18  C   UNL     1      46.741   2.538   5.042  0.00  0.00    +0.000 A 
ATOM     19  C   UNL     1      46.512   3.429   6.098  0.00  0.00    +0.000 A 
BRANCH  17  20
ATOM     20  C   UNL     1      47.212   0.177   4.242  0.00  0.00    +0.000 C 
ATOM     21  N   UNL     1      47.025  -1.140   4.550  0.00  0.00    +0.000 N 
ATOM     22  O   UNL     1      47.624   0.508   3.138  0.00  0.00    +0.000 OA
ATOM     23  H   UNL     1      46.916  -1.471   5.496  0.00  0.00    +0.000 HD
ATOM     24  H   UNL     1      47.326  -1.806   3.849  0.00  0.00    +0.000 HD
ENDBRANCH  17  20
ENDBRANCH  13  14
ENDBRANCH   1  13
TORSDOF 7
ENDMDL
MODEL 8
REMARK VINA RESULT:    -6.024      2.303      7.030
REMARK INTER + INTRA:          -9.095
REMARK INTER:                  -8.471
REMARK INTRA:                  -0.624
REMARK UNBOUND:                -0.782
REMARK  Name = 
REMARK  7 active torsions:
REMARK  status: ('A' for Active; 'I' for Inactive)
REMARK    1  A    between atoms: N_1  and  C_2
REMARK    2  A    between atoms: C_2  and  C_3
REMARK    3  A    between atoms: C_7  and  C_8
REMARK    4  A    between atoms: C_8  and  C_9
REMARK    5  A    between atoms: C_9  and  O_10
REMARK    6  A    between atoms: O_10  and  C_11
REMARK    7  A    between atoms: C_14  and  C_15
REMARK                            x       y       z     vdW  Elec       q    Type
REMARK                         _______ _______ _______ _____ _____    ______ ____
ROOT
ATOM      1  C   UNL     1      45.343   5.870  10.681  0.00  0.00    +0.000 C 
ENDROOT
BRANCH   1   2
ATOM      2  C   UNL     1      45.848   5.731   9.245  0.00  0.00    +0.000 C 
BRANCH   2   7
ATOM      3  C   UNL     1      46.510   2.522   7.282  0.00  0.00    +0.000 A 
ATOM      4  C   UNL     1      45.826   1.583   8.065  0.00  0.00    +0.000 A 
ATOM      5  C   UNL     1      45.120   1.989   9.198  0.00  0.00    +0.000 A 
ATOM      6  C   UNL     1      45.098   3.335   9.566  0.00  0.00    +0.000 A 
ATOM      7  C   UNL     1      45.776   4.290   8.799  0.00  0.00    +0.000 A 
ATOM      8  C   UNL     1      46.476   3.873   7.658  0.00  0.00    +0.000 A 
BRANCH   3   9
ATOM      9  C   UNL     1      47.340   2.083   6.105  0.00  0.00    +0.000 C 
BRANCH   9  10
ATOM     10  N   UNL     1      48.745   2.406   6.321  0.00  0.00    +0.000 NA
ATOM     11  H   UNL     1      48.824   3.074   7.084  0.00  0.00    +0.000 HD
ATOM     12  H   UNL     1      49.107   2.872   5.490  0.00  0.00    +0.000 HD
ENDBRANCH   9  10
ENDBRANCH   3   9
ENDBRANCH   2   7
ENDBRANCH   1   2
BRANCH   1  13
ATOM     13  O   UNL     1      46.356   6.450  11.508  0.00  0.00    +0.000 OA
BRANCH  13  14
ATOM     14  C   UNL     1      46.589   5.810  12.700  0.00  0.00    +0.000 A 
ATOM     15  C   UNL     1      45.948   4.645  13.131  0.00  0.00    +0.000 A 
ATOM     16  C   UNL     1      46.264   4.081  14.369  0.00  0.00    +0.000 A 
ATOM     17  C   UNL     1      47.231   4.665  15.191  0.00  0.00    +0.000 A 
ATOM     18  C   UNL     1      47.872   5.836  14.769  0.00  0.00    +0.000 A 
ATOM     19  C   UNL     1      47.548   6.401  13.529  0.00  0.00    +0.000 A 
BRANCH  17  20
ATOM     20  C   UNL     1      47.513   4.016  16.498  0.00  0.00    +0.000 C 
ATOM     21  N   UNL     1      48.749   4.206  17.047  0.00  0.00    +0.000 N 
ATOM     22  O   UNL     1      46.689   3.297  17.049  0.00  0.00    +0.000 OA
ATOM     23  H   UNL     1      49.525   4.588  16.529  0.00  0.00    +0.000 HD
ATOM     24  H   UNL     1      48.956   3.658  17.872  0.00  0.00    +0.000 HD
ENDBRANCH  17  20
ENDBRANCH  13  14
ENDBRANCH   1  13
TORSDOF 7
ENDMDL
MODEL 9
REMARK VINA RESULT:    -5.931      3.991      5.967
REMARK INTER + INTRA:          -8.966
REMARK INTER:                  -8.316
REMARK INTRA:                  -0.651
REMARK UNBOUND:                -0.782
REMARK  Name = 
REMARK  7 active torsions:
REMARK  status: ('A' for Active; 'I' for Inactive)
REMARK    1  A    between atoms: N_1  and  C_2
REMARK    2  A    between atoms: C_2  and  C_3
REMARK    3  A    between atoms: C_7  and  C_8
REMARK    4  A    between atoms: C_8  and  C_9
REMARK    5  A    between atoms: C_9  and  O_10
REMARK    6  A    between atoms: O_10  and  C_11
REMARK    7  A    between atoms: C_14  and  C_15
REMARK                            x       y       z     vdW  Elec       q    Type
REMARK                         _______ _______ _______ _____ _____    ______ ____
ROOT
ATOM      1  C   UNL     1      48.577   7.350  14.133  0.00  0.00    +0.000 C 
ENDROOT
BRANCH   1   2
ATOM      2  C   UNL     1      49.625   7.111  15.220  0.00  0.00    +0.000 C 
BRANCH   2   7
ATOM      3  C   UNL     1      48.174   4.711  17.814  0.00  0.00    +0.000 A 
ATOM      4  C   UNL     1      47.941   5.583  18.885  0.00  0.00    +0.000 A 
ATOM      5  C   UNL     1      48.211   6.946  18.758  0.00  0.00    +0.000 A 
ATOM      6  C   UNL     1      48.727   7.451  17.563  0.00  0.00    +0.000 A 
ATOM      7  C   UNL     1      48.969   6.597  16.479  0.00  0.00    +0.000 A 
ATOM      8  C   UNL     1      48.686   5.230  16.615  0.00  0.00    +0.000 A 
BRANCH   3   9
ATOM      9  C   UNL     1      47.961   3.229  17.969  0.00  0.00    +0.000 C 
BRANCH   9  10
ATOM     10  N   UNL     1      46.573   2.880  17.695  0.00  0.00    +0.000 NA
ATOM     11  H   UNL     1      46.271   2.162  18.351  0.00  0.00    +0.000 HD
ATOM     12  H   UNL     1      46.515   2.465  16.766  0.00  0.00    +0.000 HD
ENDBRANCH   9  10
ENDBRANCH   3   9
ENDBRANCH   2   7
ENDBRANCH   1   2
BRANCH   1  13
ATOM     13  O   UNL     1      48.436   6.184  13.316  0.00  0.00    +0.000 OA
BRANCH  13  14
ATOM     14  C   UNL     1      47.152   5.864  12.953  0.00  0.00    +0.000 A 
ATOM     15  C   UNL     1      46.289   5.035  13.676  0.00  0.00    +0.000 A 
ATOM     16  C   UNL     1      45.000   4.775  13.207  0.00  0.00    +0.000 A 
ATOM     17  C   UNL     1      44.548   5.347  12.015  0.00  0.00    +0.000 A 
ATOM     18  C   UNL     1      45.409   6.172  11.281  0.00  0.00    +0.000 A 
ATOM     19  C   UNL     1      46.703   6.425  11.753  0.00  0.00    +0.000 A 
BRANCH  17  20
ATOM     20  C   UNL     1      43.167   5.022  11.571  0.00  0.00    +0.000 C 
ATOM     21  N   UNL     1      42.216   5.996  11.693  0.00  0.00    +0.000 N 
ATOM     22  O   UNL     1      42.872   3.910  11.152  0.00  0.00    +0.000 OA
ATOM     23  H   UNL     1      42.356   6.832  12.239  0.00  0.00    +0.000 HD
ATOM     24  H   UNL     1      41.265   5.712  11.499  0.00  0.00    +0.000 HD
ENDBRANCH  17  20
ENDBRANCH  13  14
ENDBRANCH   1  13
TORSDOF 7
ENDMDL
