MODEL 1
REMARK VINA RESULT:    -6.388      0.000      0.000
REMARK INTER + INTRA:          -9.634
REMARK INTER:                  -8.628
REMARK INTRA:                  -1.006
REMARK UNBOUND:                -1.006
REMARK  Name = 
REMARK  7 active torsions:
REMARK  status: ('A' for Active; 'I' for Inactive)
REMARK    1  A    between atoms: C_1  and  C_2
REMARK    2  A    between atoms: C_2  and  O_3
REMARK    3  A    between atoms: O_3  and  C_4
REMARK    4  A    between atoms: C_8  and  N_9
REMARK    5  A    between atoms: N_9  and  C_10
REMARK    6  A    between atoms: C_10  and  C_11
REMARK    7  A    between atoms: C_15  and  C_16
REMARK                            x       y       z     vdW  Elec       q    Type
REMARK                         _______ _______ _______ _____ _____    ______ ____
ROOT
ATOM      1  C   UNL     1      48.062   7.712  12.925  0.00  0.00    +0.000 C 
ATOM      2  C   UNL     1      48.690   8.594  11.854  0.00  0.00    +0.000 C 
ATOM      3  C   UNL     1      49.165   7.189  12.028  0.00  0.00    +0.000 C 
ENDROOT
BRANCH   1   4
ATOM      4  C   UNL     1      48.383   7.976  14.392  0.00  0.00    +0.000 A 
ATOM      5  C   UNL     1      48.136   9.219  14.991  0.00  0.00    +0.000 A 
ATOM      6  C   UNL     1      48.324   9.409  16.360  0.00  0.00    +0.000 A 
ATOM      7  C   UNL     1      48.720   8.346  17.170  0.00  0.00    +0.000 A 
ATOM      8  C   UNL     1      48.939   7.076  16.630  0.00  0.00    +0.000 A 
ATOM      9  C   UNL     1      48.835   6.941  15.231  0.00  0.00    +0.000 A 
BRANCH   8  10
ATOM     10  C   UNL     1      49.252   5.836  17.470  0.00  0.00    +0.000 C 
ATOM     11  C   UNL     1      48.754   4.533  16.798  0.00  0.00    +0.000 C 
ATOM     12  C   UNL     1      47.240   4.368  16.916  0.00  0.00    +0.000 C 
ATOM     13  N   UNL     1      46.809   4.357  18.315  0.00  0.00    +0.000 NA
ATOM     14  C   UNL     1      47.215   5.584  19.000  0.00  0.00    +0.000 C 
ATOM     15  C   UNL     1      48.726   5.830  18.920  0.00  0.00    +0.000 C 
ATOM     16  H   UNL     1      47.224   3.554  18.786  0.00  0.00    +0.000 HD
ENDBRANCH   8  10
ENDBRANCH   1   4
BRANCH   1  17
ATOM     17  N   UNL     1      46.628   7.411  12.694  0.00  0.00    +0.000 N 
ATOM     18  H   UNL     1      46.015   7.907  13.338  0.00  0.00    +0.000 HD
BRANCH  17  23
ATOM     19  C   UNL     1      45.048   4.454  11.031  0.00  0.00    +0.000 A 
ATOM     20  C   UNL     1      44.990   3.620  12.140  0.00  0.00    +0.000 A 
ATOM     21  N   UNL     1      45.467   3.952  13.361  0.00  0.00    +0.000 NA
ATOM     22  C   UNL     1      46.012   5.187  13.471  0.00  0.00    +0.000 A 
ATOM     23  C   UNL     1      46.126   6.116  12.431  0.00  0.00    +0.000 A 
ATOM     24  C   UNL     1      45.588   5.729  11.203  0.00  0.00    +0.000 A 
BRANCH  19  25
ATOM     25  O   UNL     1      44.512   3.987   9.863  0.00  0.00    +0.000 OA
BRANCH  25  27
ATOM     26  C   UNL     1      45.407   2.012   8.843  0.00  0.00    +0.000 C 
ATOM     27  C   UNL     1      44.373   2.565   9.801  0.00  0.00    +0.000 C 
ENDBRANCH  25  27
ENDBRANCH  19  25
ENDBRANCH  17  23
ENDBRANCH   1  17
TORSDOF 6
ENDMDL
MODEL 2
REMARK VINA RESULT:    -6.385      3.077      5.176
REMARK INTER + INTRA:          -9.631
REMARK INTER:                  -9.716
REMARK INTRA:                   0.085
REMARK UNBOUND:                -1.006
REMARK  Name = 
REMARK  7 active torsions:
REMARK  status: ('A' for Active; 'I' for Inactive)
REMARK    1  A    between atoms: C_1  and  C_2
REMARK    2  A    between atoms: C_2  and  O_3
REMARK    3  A    between atoms: O_3  and  C_4
REMARK    4  A    between atoms: C_8  and  N_9
REMARK    5  A    between atoms: N_9  and  C_10
REMARK    6  A    between atoms: C_10  and  C_11
REMARK    7  A    between atoms: C_15  and  C_16
REMARK                            x       y       z     vdW  Elec       q    Type
REMARK                         _______ _______ _______ _____ _____    ______ ____
ROOT
ATOM      1  C   UNL     1      43.904   5.487  11.575  0.00  0.00    +0.000 C 
ATOM      2  C   UNL     1      43.934   4.367  12.606  0.00  0.00    +0.000 C 
ATOM      3  C   UNL     1      42.847   5.389  12.657  0.00  0.00    +0.000 C 
ENDROOT
BRANCH   1   4
ATOM      4  C   UNL     1      44.931   6.611  11.664  0.00  0.00    +0.000 A 
ATOM      5  C   UNL     1      44.551   7.960  11.690  0.00  0.00    +0.000 A 
ATOM      6  C   UNL     1      45.491   8.970  11.892  0.00  0.00    +0.000 A 
ATOM      7  C   UNL     1      46.830   8.650  12.119  0.00  0.00    +0.000 A 
ATOM      8  C   UNL     1      47.254   7.319  12.146  0.00  0.00    +0.000 A 
ATOM      9  C   UNL     1      46.297   6.329  11.842  0.00  0.00    +0.000 A 
BRANCH   8  10
ATOM     10  C   UNL     1      48.675   6.885  12.512  0.00  0.00    +0.000 C 
ATOM     11  C   UNL     1      48.931   6.948  14.038  0.00  0.00    +0.000 C 
ATOM     12  C   UNL     1      49.122   8.381  14.530  0.00  0.00    +0.000 C 
ATOM     13  N   UNL     1      50.240   9.037  13.848  0.00  0.00    +0.000 NA
ATOM     14  C   UNL     1      50.040   9.048  12.400  0.00  0.00    +0.000 C 
ATOM     15  C   UNL     1      49.830   7.643  11.824  0.00  0.00    +0.000 C 
ATOM     16  H   UNL     1      51.103   8.540  14.067  0.00  0.00    +0.000 HD
ENDBRANCH   8  10
ENDBRANCH   1   4
BRANCH   1  17
ATOM     17  N   UNL     1      43.677   5.022  10.186  0.00  0.00    +0.000 N 
ATOM     18  H   UNL     1      42.693   4.848   9.986  0.00  0.00    +0.000 HD
BRANCH  17  23
ATOM     19  C   UNL     1      46.146   3.396   7.892  0.00  0.00    +0.000 A 
ATOM     20  C   UNL     1      45.846   2.075   8.194  0.00  0.00    +0.000 A 
ATOM     21  N   UNL     1      44.930   1.699   9.114  0.00  0.00    +0.000 NA
ATOM     22  C   UNL     1      44.278   2.703   9.748  0.00  0.00    +0.000 A 
ATOM     23  C   UNL     1      44.490   4.069   9.531  0.00  0.00    +0.000 A 
ATOM     24  C   UNL     1      45.424   4.394   8.546  0.00  0.00    +0.000 A 
BRANCH  19  25
ATOM     25  O   UNL     1      47.088   3.624   6.926  0.00  0.00    +0.000 OA
BRANCH  25  27
ATOM     26  C   UNL     1      47.424   2.220   5.013  0.00  0.00    +0.000 C 
ATOM     27  C   UNL     1      47.766   2.450   6.471  0.00  0.00    +0.000 C 
ENDBRANCH  25  27
ENDBRANCH  19  25
ENDBRANCH  17  23
ENDBRANCH   1  17
TORSDOF 6
ENDMDL
MODEL 3
REMARK VINA RESULT:    -6.324      1.421      1.788
REMARK INTER + INTRA:          -9.548
REMARK INTER:                  -8.789
REMARK INTRA:                  -0.759
REMARK UNBOUND:                -1.006
REMARK  Name = 
REMARK  7 active torsions:
REMARK  status: ('A' for Active; 'I' for Inactive)
REMARK    1  A    between atoms: C_1  and  C_2
REMARK    2  A    between atoms: C_2  and  O_3
REMARK    3  A    between atoms: O_3  and  C_4
REMARK    4  A    between atoms: C_8  and  N_9
REMARK    5  A    between atoms: N_9  and  C_10
REMARK    6  A    between atoms: C_10  and  C_11
REMARK    7  A    between atoms: C_15  and  C_16
REMARK                            x       y       z     vdW  Elec       q    Type
REMARK                         _______ _______ _______ _____ _____    ______ ____
ROOT
ATOM      1  C   UNL     1      47.791   7.408  13.025  0.00  0.00    +0.000 C 
ATOM      2  C   UNL     1      47.744   8.810  12.431  0.00  0.00    +0.000 C 
ATOM      3  C   UNL     1      48.321   7.687  11.633  0.00  0.00    +0.000 C 
ENDROOT
BRANCH   1   4
ATOM      4  C   UNL     1      48.791   7.101  14.135  0.00  0.00    +0.000 A 
ATOM      5  C   UNL     1      50.057   7.702  14.175  0.00  0.00    +0.000 A 
ATOM      6  C   UNL     1      50.914   7.503  15.257  0.00  0.00    +0.000 A 
ATOM      7  C   UNL     1      50.505   6.736  16.347  0.00  0.00    +0.000 A 
ATOM      8  C   UNL     1      49.237   6.150  16.376  0.00  0.00    +0.000 A 
ATOM      9  C   UNL     1      48.434   6.290  15.226  0.00  0.00    +0.000 A 
BRANCH   8  10
ATOM     10  C   UNL     1      48.671   5.403  17.586  0.00  0.00    +0.000 C 
ATOM     11  C   UNL     1      49.769   4.646  18.372  0.00  0.00    +0.000 C 
ATOM     12  C   UNL     1      50.215   3.373  17.654  0.00  0.00    +0.000 C 
ATOM     13  N   UNL     1      49.093   2.460  17.436  0.00  0.00    +0.000 NA
ATOM     14  C   UNL     1      48.033   3.103  16.660  0.00  0.00    +0.000 C 
ATOM     15  C   UNL     1      47.533   4.399  17.309  0.00  0.00    +0.000 C 
ATOM     16  H   UNL     1      48.720   2.166  18.338  0.00  0.00    +0.000 HD
ENDBRANCH   8  10
ENDBRANCH   1   4
BRANCH   1  17
ATOM     17  N   UNL     1      46.455   6.813  13.272  0.00  0.00    +0.000 N 
ATOM     18  H   UNL     1      46.196   6.826  14.257  0.00  0.00    +0.000 HD
BRANCH  17  23
ATOM     19  C   UNL     1      44.896   4.399  10.875  0.00  0.00    +0.000 A 
ATOM     20  C   UNL     1      44.950   3.269  11.680  0.00  0.00    +0.000 A 
ATOM     21  N   UNL     1      45.494   3.248  12.918  0.00  0.00    +0.000 NA
ATOM     22  C   UNL     1      45.991   4.425  13.369  0.00  0.00    +0.000 A 
ATOM     23  C   UNL     1      45.993   5.628  12.655  0.00  0.00    +0.000 A 
ATOM     24  C   UNL     1      45.390   5.594  11.397  0.00  0.00    +0.000 A 
BRANCH  19  25
ATOM     25  O   UNL     1      44.303   4.272   9.649  0.00  0.00    +0.000 OA
BRANCH  25  27
ATOM     26  C   UNL     1      45.465   3.508   7.698  0.00  0.00    +0.000 C 
ATOM     27  C   UNL     1      44.681   3.097   8.927  0.00  0.00    +0.000 C 
ENDBRANCH  25  27
ENDBRANCH  19  25
ENDBRANCH  17  23
ENDBRANCH   1  17
TORSDOF 6
ENDMDL
MODEL 4
REMARK VINA RESULT:    -5.977      3.354      6.463
REMARK INTER + INTRA:          -9.080
REMARK INTER:                  -8.268
REMARK INTRA:                  -0.812
REMARK UNBOUND:                -1.006
REMARK  Name = 
REMARK  7 active torsions:
REMARK  status: ('A' for Active; 'I' for Inactive)
REMARK    1  A    between atoms: C_1  and  C_2
REMARK    2  A    between atoms: C_2  and  O_3
REMARK    3  A    between atoms: O_3  and  C_4
REMARK    4  A    between atoms: C_8  and  N_9
REMARK    5  A    between atoms: N_9  and  C_10
REMARK    6  A    between atoms: C_10  and  C_11
REMARK    7  A    between atoms: C_15  and  C_16
REMARK                            x       y       z     vdW  Elec       q    Type
REMARK                         _______ _______ _______ _____ _____    ______ ____
ROOT
ATOM      1  C   UNL     1      48.480   7.864  12.404  0.00  0.00    +0.000 C 
ATOM      2  C   UNL     1      49.991   7.673  12.422  0.00  0.00    +0.000 C 
ATOM      3  C   UNL     1      49.294   7.935  11.128  0.00  0.00    +0.000 C 
ENDROOT
BRANCH   1   4
ATOM      4  C   UNL     1      47.573   6.656  12.619  0.00  0.00    +0.000 A 
ATOM      5  C   UNL     1      47.569   5.940  13.824  0.00  0.00    +0.000 A 
ATOM      6  C   UNL     1      46.652   4.914  14.050  0.00  0.00    +0.000 A 
ATOM      7  C   UNL     1      45.685   4.612  13.091  0.00  0.00    +0.000 A 
ATOM      8  C   UNL     1      45.618   5.323  11.891  0.00  0.00    +0.000 A 
ATOM      9  C   UNL     1      46.619   6.287  11.654  0.00  0.00    +0.000 A 
BRANCH   8  10
ATOM     10  C   UNL     1      44.513   5.135  10.850  0.00  0.00    +0.000 C 
ATOM     11  C   UNL     1      43.220   4.549  11.468  0.00  0.00    +0.000 C 
ATOM     12  C   UNL     1      43.349   3.056  11.763  0.00  0.00    +0.000 C 
ATOM     13  N   UNL     1      43.666   2.296  10.553  0.00  0.00    +0.000 NA
ATOM     14  C   UNL     1      44.904   2.775   9.939  0.00  0.00    +0.000 C 
ATOM     15  C   UNL     1      44.861   4.273   9.618  0.00  0.00    +0.000 C 
ATOM     16  H   UNL     1      42.899   2.393   9.887  0.00  0.00    +0.000 HD
ENDBRANCH   8  10
ENDBRANCH   1   4
BRANCH   1  17
ATOM     17  N   UNL     1      48.016   9.071  13.129  0.00  0.00    +0.000 N 
ATOM     18  H   UNL     1      47.736   8.869  14.088  0.00  0.00    +0.000 HD
BRANCH  17  23
ATOM     19  C   UNL     1      45.022  10.885  11.806  0.00  0.00    +0.000 A 
ATOM     20  C   UNL     1      45.687  11.969  11.249  0.00  0.00    +0.000 A 
ATOM     21  N   UNL     1      47.024  12.152  11.318  0.00  0.00    +0.000 NA
ATOM     22  C   UNL     1      47.724  11.190  11.966  0.00  0.00    +0.000 A 
ATOM     23  C   UNL     1      47.170  10.054  12.565  0.00  0.00    +0.000 A 
ATOM     24  C   UNL     1      45.789   9.904  12.433  0.00  0.00    +0.000 A 
BRANCH  19  25
ATOM     25  O   UNL     1      43.665  10.827  11.645  0.00  0.00    +0.000 OA
BRANCH  25  27
ATOM     26  C   UNL     1      42.811  10.625   9.415  0.00  0.00    +0.000 C 
ATOM     27  C   UNL     1      43.225   9.880  10.668  0.00  0.00    +0.000 C 
ENDBRANCH  25  27
ENDBRANCH  19  25
ENDBRANCH  17  23
ENDBRANCH   1  17
TORSDOF 6
ENDMDL
MODEL 5
REMARK VINA RESULT:    -5.899      2.592      6.142
REMARK INTER + INTRA:          -8.974
REMARK INTER:                  -7.859
REMARK INTRA:                  -1.114
REMARK UNBOUND:                -1.006
REMARK  Name = 
REMARK  7 active torsions:
REMARK  status: ('A' for Active; 'I' for Inactive)
REMARK    1  A    between atoms: C_1  and  C_2
REMARK    2  A    between atoms: C_2  and  O_3
REMARK    3  A    between atoms: O_3  and  C_4
REMARK    4  A    between atoms: C_8  and  N_9
REMARK    5  A    between atoms: N_9  and  C_10
REMARK    6  A    between atoms: C_10  and  C_11
REMARK    7  A    between atoms: C_15  and  C_16
REMARK                            x       y       z     vdW  Elec       q    Type
REMARK                         _______ _______ _______ _____ _____    ______ ____
ROOT
ATOM      1  C   UNL     1      48.972   7.866  12.380  0.00  0.00    +0.000 C 
ATOM      2  C   UNL     1      49.826   7.843  11.120  0.00  0.00    +0.000 C 
ATOM      3  C   UNL     1      49.775   9.079  11.956  0.00  0.00    +0.000 C 
ENDROOT
BRANCH   1   4
ATOM      4  C   UNL     1      47.453   7.921  12.251  0.00  0.00    +0.000 A 
ATOM      5  C   UNL     1      46.747   9.128  12.341  0.00  0.00    +0.000 A 
ATOM      6  C   UNL     1      45.373   9.178  12.103  0.00  0.00    +0.000 A 
ATOM      7  C   UNL     1      44.683   8.028  11.723  0.00  0.00    +0.000 A 
ATOM      8  C   UNL     1      45.347   6.808  11.578  0.00  0.00    +0.000 A 
ATOM      9  C   UNL     1      46.715   6.771  11.919  0.00  0.00    +0.000 A 
BRANCH   8  10
ATOM     10  C   UNL     1      44.686   5.535  11.044  0.00  0.00    +0.000 C 
ATOM     11  C   UNL     1      43.187   5.450  11.427  0.00  0.00    +0.000 C 
ATOM     12  C   UNL     1      42.990   5.072  12.893  0.00  0.00    +0.000 C 
ATOM     13  N   UNL     1      43.618   3.786  13.205  0.00  0.00    +0.000 NA
ATOM     14  C   UNL     1      45.049   3.812  12.903  0.00  0.00    +0.000 C 
ATOM     15  C   UNL     1      45.336   4.195  11.446  0.00  0.00    +0.000 C 
ATOM     16  H   UNL     1      43.170   3.054  12.655  0.00  0.00    +0.000 HD
ENDBRANCH   8  10
ENDBRANCH   1   4
BRANCH   1  17
ATOM     17  N   UNL     1      49.428   6.929  13.435  0.00  0.00    +0.000 N 
ATOM     18  H   UNL     1      49.239   5.955  13.202  0.00  0.00    +0.000 HD
BRANCH  17  23
ATOM     19  C   UNL     1      48.643   6.453  17.062  0.00  0.00    +0.000 A 
ATOM     20  C   UNL     1      48.725   7.783  17.451  0.00  0.00    +0.000 A 
ATOM     21  N   UNL     1      49.055   8.795  16.618  0.00  0.00    +0.000 NA
ATOM     22  C   UNL     1      49.299   8.451  15.331  0.00  0.00    +0.000 A 
ATOM     23  C   UNL     1      49.247   7.150  14.819  0.00  0.00    +0.000 A 
ATOM     24  C   UNL     1      48.869   6.153  15.720  0.00  0.00    +0.000 A 
BRANCH  19  25
ATOM     25  O   UNL     1      48.283   5.539  18.014  0.00  0.00    +0.000 OA
BRANCH  25  27
ATOM     26  C   UNL     1      47.925   3.180  17.788  0.00  0.00    +0.000 C 
ATOM     27  C   UNL     1      47.340   4.560  17.570  0.00  0.00    +0.000 C 
ENDBRANCH  25  27
ENDBRANCH  19  25
ENDBRANCH  17  23
ENDBRANCH   1  17
TORSDOF 6
ENDMDL
MODEL 6
REMARK VINA RESULT:    -5.704      3.021      5.912
REMARK INTER + INTRA:          -8.711
REMARK INTER:                  -8.124
REMARK INTRA:                  -0.587
REMARK UNBOUND:                -1.006
REMARK  Name = 
REMARK  7 active torsions:
REMARK  status: ('A' for Active; 'I' for Inactive)
REMARK    1  A    between atoms: C_1  and  C_2
REMARK    2  A    between atoms: C_2  and  O_3
REMARK    3  A    between atoms: O_3  and  C_4
REMARK    4  A    between atoms: C_8  and  N_9
REMARK    5  A    between atoms: N_9  and  C_10
REMARK    6  A    between atoms: C_10  and  C_11
REMARK    7  A    between atoms: C_15  and  C_16
REMARK                            x       y       z     vdW  Elec       q    Type
REMARK                         _______ _______ _______ _____ _____    ______ ____
ROOT
ATOM      1  C   UNL     1      48.100   7.891  12.695  0.00  0.00    +0.000 C 
ATOM      2  C   UNL     1      49.383   7.567  13.449  0.00  0.00    +0.000 C 
ATOM      3  C   UNL     1      48.109   7.753  14.203  0.00  0.00    +0.000 C 
ENDROOT
BRANCH   1   4
ATOM      4  C   UNL     1      47.919   9.282  12.095  0.00  0.00    +0.000 A 
ATOM      5  C   UNL     1      48.942   9.917  11.377  0.00  0.00    +0.000 A 
ATOM      6  C   UNL     1      48.722  11.135  10.734  0.00  0.00    +0.000 A 
ATOM      7  C   UNL     1      47.458  11.724  10.756  0.00  0.00    +0.000 A 
ATOM      8  C   UNL     1      46.393  11.112  11.421  0.00  0.00    +0.000 A 
ATOM      9  C   UNL     1      46.672   9.932  12.141  0.00  0.00    +0.000 A 
BRANCH   8  10
ATOM     10  C   UNL     1      44.954  11.630  11.383  0.00  0.00    +0.000 C 
ATOM     11  C   UNL     1      43.926  10.532  11.749  0.00  0.00    +0.000 C 
ATOM     12  C   UNL     1      43.716   9.539  10.607  0.00  0.00    +0.000 C 
ATOM     13  N   UNL     1      43.258  10.211   9.390  0.00  0.00    +0.000 NA
ATOM     14  C   UNL     1      44.208  11.239   8.966  0.00  0.00    +0.000 C 
ATOM     15  C   UNL     1      44.484  12.274  10.062  0.00  0.00    +0.000 C 
ATOM     16  H   UNL     1      42.351  10.642   9.567  0.00  0.00    +0.000 HD
ENDBRANCH   8  10
ENDBRANCH   1   4
BRANCH   1  17
ATOM     17  N   UNL     1      47.642   6.809  11.791  0.00  0.00    +0.000 N 
ATOM     18  H   UNL     1      47.949   6.945  10.829  0.00  0.00    +0.000 HD
BRANCH  17  23
ATOM     19  C   UNL     1      44.431   5.159  10.804  0.00  0.00    +0.000 A 
ATOM     20  C   UNL     1      43.720   5.413  11.969  0.00  0.00    +0.000 A 
ATOM     21  N   UNL     1      44.237   6.043  13.048  0.00  0.00    +0.000 NA
ATOM     22  C   UNL     1      45.525   6.449  12.939  0.00  0.00    +0.000 A 
ATOM     23  C   UNL     1      46.342   6.254  11.821  0.00  0.00    +0.000 A 
ATOM     24  C   UNL     1      45.743   5.626  10.727  0.00  0.00    +0.000 A 
BRANCH  19  25
ATOM     25  O   UNL     1      43.771   4.524   9.789  0.00  0.00    +0.000 OA
BRANCH  25  27
ATOM     26  C   UNL     1      44.674   2.386   9.191  0.00  0.00    +0.000 C 
ATOM     27  C   UNL     1      44.623   3.861   8.851  0.00  0.00    +0.000 C 
ENDBRANCH  25  27
ENDBRANCH  19  25
ENDBRANCH  17  23
ENDBRANCH   1  17
TORSDOF 6
ENDMDL
MODEL 7
REMARK VINA RESULT:    -5.608      1.562      2.068
REMARK INTER + INTRA:          -8.582
REMARK INTER:                  -7.797
REMARK INTRA:                  -0.785
REMARK UNBOUND:                -1.006
REMARK  Name = 
REMARK  7 active torsions:
REMARK  status: ('A' for Active; 'I' for Inactive)
REMARK    1  A    between atoms: C_1  and  C_2
REMARK    2  A    between atoms: C_2  and  O_3
REMARK    3  A    between atoms: O_3  and  C_4
REMARK    4  A    between atoms: C_8  and  N_9
REMARK    5  A    between atoms: N_9  and  C_10
REMARK    6  A    between atoms: C_10  and  C_11
REMARK    7  A    between atoms: C_15  and  C_16
REMARK                            x       y       z     vdW  Elec       q    Type
REMARK                         _______ _______ _______ _____ _____    ______ ____
ROOT
ATOM      1  C   UNL     1      48.312   7.244  13.818  0.00  0.00    +0.000 C 
ATOM      2  C   UNL     1      48.378   8.649  13.233  0.00  0.00    +0.000 C 
ATOM      3  C   UNL     1      48.934   7.499  12.460  0.00  0.00    +0.000 C 
ENDROOT
BRANCH   1   4
ATOM      4  C   UNL     1      49.229   6.876  14.979  0.00  0.00    +0.000 A 
ATOM      5  C   UNL     1      50.557   7.320  15.041  0.00  0.00    +0.000 A 
ATOM      6  C   UNL     1      51.347   7.076  16.165  0.00  0.00    +0.000 A 
ATOM      7  C   UNL     1      50.810   6.421  17.273  0.00  0.00    +0.000 A 
ATOM      8  C   UNL     1      49.480   5.995  17.279  0.00  0.00    +0.000 A 
ATOM      9  C   UNL     1      48.739   6.171  16.092  0.00  0.00    +0.000 A 
BRANCH   8  10
ATOM     10  C   UNL     1      48.787   5.385  18.499  0.00  0.00    +0.000 C 
ATOM     11  C   UNL     1      47.425   6.059  18.797  0.00  0.00    +0.000 C 
ATOM     12  C   UNL     1      47.595   7.434  19.442  0.00  0.00    +0.000 C 
ATOM     13  N   UNL     1      48.350   7.349  20.693  0.00  0.00    +0.000 NA
ATOM     14  C   UNL     1      49.668   6.755  20.473  0.00  0.00    +0.000 C 
ATOM     15  C   UNL     1      49.588   5.372  19.817  0.00  0.00    +0.000 C 
ATOM     16  H   UNL     1      47.830   6.781  21.360  0.00  0.00    +0.000 HD
ENDBRANCH   8  10
ENDBRANCH   1   4
BRANCH   1  17
ATOM     17  N   UNL     1      46.933   6.725  13.985  0.00  0.00    +0.000 N 
ATOM     18  H   UNL     1      46.648   6.677  14.962  0.00  0.00    +0.000 HD
BRANCH  17  23
ATOM     19  C   UNL     1      45.082   4.637  11.492  0.00  0.00    +0.000 A 
ATOM     20  C   UNL     1      45.285   3.400  12.091  0.00  0.00    +0.000 A 
ATOM     21  N   UNL     1      46.012   3.215  13.215  0.00  0.00    +0.000 NA
ATOM     22  C   UNL     1      46.545   4.331  13.769  0.00  0.00    +0.000 A 
ATOM     23  C   UNL     1      46.410   5.628  13.263  0.00  0.00    +0.000 A 
ATOM     24  C   UNL     1      45.622   5.759  12.119  0.00  0.00    +0.000 A 
BRANCH  19  25
ATOM     25  O   UNL     1      44.311   4.671  10.363  0.00  0.00    +0.000 OA
BRANCH  25  27
ATOM     26  C   UNL     1      44.993   3.850   8.218  0.00  0.00    +0.000 C 
ATOM     27  C   UNL     1      44.386   3.491   9.559  0.00  0.00    +0.000 C 
ENDBRANCH  25  27
ENDBRANCH  19  25
ENDBRANCH  17  23
ENDBRANCH   1  17
TORSDOF 6
ENDMDL
MODEL 8
REMARK VINA RESULT:    -5.547      1.706      2.143
REMARK INTER + INTRA:          -8.499
REMARK INTER:                  -7.547
REMARK INTRA:                  -0.952
REMARK UNBOUND:                -1.006
REMARK  Name = 
REMARK  7 active torsions:
REMARK  status: ('A' for Active; 'I' for Inactive)
REMARK    1  A    between atoms: C_1  and  C_2
REMARK    2  A    between atoms: C_2  and  O_3
REMARK    3  A    between atoms: O_3  and  C_4
REMARK    4  A    between atoms: C_8  and  N_9
REMARK    5  A    between atoms: N_9  and  C_10
REMARK    6  A    between atoms: C_10  and  C_11
REMARK    7  A    between atoms: C_15  and  C_16
REMARK                            x       y       z     vdW  Elec       q    Type
REMARK                         _______ _______ _______ _____ _____    ______ ____
ROOT
ATOM      1  C   UNL     1      49.895   8.000  13.297  0.00  0.00    +0.000 C 
ATOM      2  C   UNL     1      50.167   9.243  12.459  0.00  0.00    +0.000 C 
ATOM      3  C   UNL     1      51.306   8.389  12.909  0.00  0.00    +0.000 C 
ENDROOT
BRANCH   1   4
ATOM      4  C   UNL     1      49.473   8.161  14.754  0.00  0.00    +0.000 A 
ATOM      5  C   UNL     1      48.738   9.271  15.193  0.00  0.00    +0.000 A 
ATOM      6  C   UNL     1      48.258   9.346  16.500  0.00  0.00    +0.000 A 
ATOM      7  C   UNL     1      48.463   8.289  17.387  0.00  0.00    +0.000 A 
ATOM      8  C   UNL     1      49.154   7.142  16.988  0.00  0.00    +0.000 A 
ATOM      9  C   UNL     1      49.708   7.139  15.691  0.00  0.00    +0.000 A 
BRANCH   8  10
ATOM     10  C   UNL     1      49.310   5.895  17.860  0.00  0.00    +0.000 C 
ATOM     11  C   UNL     1      48.964   4.595  17.091  0.00  0.00    +0.000 C 
ATOM     12  C   UNL     1      47.458   4.418  16.911  0.00  0.00    +0.000 C 
ATOM     13  N   UNL     1      46.764   4.388  18.200  0.00  0.00    +0.000 NA
ATOM     14  C   UNL     1      47.017   5.609  18.963  0.00  0.00    +0.000 C 
ATOM     15  C   UNL     1      48.512   5.868  19.180  0.00  0.00    +0.000 C 
ATOM     16  H   UNL     1      47.087   3.582  18.735  0.00  0.00    +0.000 HD
ENDBRANCH   8  10
ENDBRANCH   1   4
BRANCH   1  17
ATOM     17  N   UNL     1      49.126   6.951  12.586  0.00  0.00    +0.000 N 
ATOM     18  H   UNL     1      49.406   6.851  11.612  0.00  0.00    +0.000 HD
BRANCH  17  23
ATOM     19  C   UNL     1      45.757   5.454  13.233  0.00  0.00    +0.000 A 
ATOM     20  C   UNL     1      44.987   6.489  12.720  0.00  0.00    +0.000 A 
ATOM     21  N   UNL     1      45.498   7.638  12.223  0.00  0.00    +0.000 NA
ATOM     22  C   UNL     1      46.849   7.740  12.232  0.00  0.00    +0.000 A 
ATOM     23  C   UNL     1      47.730   6.769  12.720  0.00  0.00    +0.000 A 
ATOM     24  C   UNL     1      47.144   5.592  13.189  0.00  0.00    +0.000 A 
BRANCH  19  25
ATOM     25  O   UNL     1      45.099   4.345  13.688  0.00  0.00    +0.000 OA
BRANCH  25  27
ATOM     26  C   UNL     1      43.838   3.064  12.105  0.00  0.00    +0.000 C 
ATOM     27  C   UNL     1      43.790   4.167  13.142  0.00  0.00    +0.000 C 
ENDBRANCH  25  27
ENDBRANCH  19  25
ENDBRANCH  17  23
ENDBRANCH   1  17
TORSDOF 6
ENDMDL
MODEL 9
REMARK VINA RESULT:    -5.478      3.820      7.771
REMARK INTER + INTRA:          -8.405
REMARK INTER:                  -8.146
REMARK INTRA:                  -0.259
REMARK UNBOUND:                -1.006
REMARK  Name = 
REMARK  7 active torsions:
REMARK  status: ('A' for Active; 'I' for Inactive)
REMARK    1  A    between atoms: C_1  and  C_2
REMARK    2  A    between atoms: C_2  and  O_3
REMARK    3  A    between atoms: O_3  and  C_4
REMARK    4  A    between atoms: C_8  and  N_9
REMARK    5  A    between atoms: N_9  and  C_10
REMARK    6  A    between atoms: C_10  and  C_11
REMARK    7  A    between atoms: C_15  and  C_16
REMARK                            x       y       z     vdW  Elec       q    Type
REMARK                         _______ _______ _______ _____ _____    ______ ____
ROOT
ATOM      1  C   UNL     1      48.064   4.614  16.851  0.00  0.00    +0.000 C 
ATOM      2  C   UNL     1      47.036   4.746  17.967  0.00  0.00    +0.000 C 
ATOM      3  C   UNL     1      47.165   3.454  17.230  0.00  0.00    +0.000 C 
ENDROOT
BRANCH   1   4
ATOM      4  C   UNL     1      47.815   5.319  15.522  0.00  0.00    +0.000 A 
ATOM      5  C   UNL     1      48.604   6.398  15.099  0.00  0.00    +0.000 A 
ATOM      6  C   UNL     1      48.442   6.956  13.831  0.00  0.00    +0.000 A 
ATOM      7  C   UNL     1      47.517   6.415  12.938  0.00  0.00    +0.000 A 
ATOM      8  C   UNL     1      46.735   5.314  13.294  0.00  0.00    +0.000 A 
ATOM      9  C   UNL     1      46.855   4.836  14.615  0.00  0.00    +0.000 A 
BRANCH   8  10
ATOM     10  C   UNL     1      45.793   4.590  12.330  0.00  0.00    +0.000 C 
ATOM     11  C   UNL     1      45.473   5.440  11.076  0.00  0.00    +0.000 C 
ATOM     12  C   UNL     1      44.481   6.561  11.380  0.00  0.00    +0.000 C 
ATOM     13  N   UNL     1      43.223   6.034  11.912  0.00  0.00    +0.000 NA
ATOM     14  C   UNL     1      43.451   5.251  13.126  0.00  0.00    +0.000 C 
ATOM     15  C   UNL     1      44.447   4.106  12.909  0.00  0.00    +0.000 C 
ATOM     16  H   UNL     1      42.783   5.444  11.207  0.00  0.00    +0.000 HD
ENDBRANCH   8  10
ENDBRANCH   1   4
BRANCH   1  17
ATOM     17  N   UNL     1      49.469   4.724  17.309  0.00  0.00    +0.000 N 
ATOM     18  H   UNL     1      49.963   5.502  16.875  0.00  0.00    +0.000 HD
BRANCH  17  23
ATOM     19  C   UNL     1      52.466   2.600  18.024  0.00  0.00    +0.000 A 
ATOM     20  C   UNL     1      51.972   1.400  17.531  0.00  0.00    +0.000 A 
ATOM     21  N   UNL     1      50.727   1.246  17.027  0.00  0.00    +0.000 NA
ATOM     22  C   UNL     1      49.951   2.357  17.007  0.00  0.00    +0.000 A 
ATOM     23  C   UNL     1      50.335   3.619  17.472  0.00  0.00    +0.000 A 
ATOM     24  C   UNL     1      51.642   3.723  17.951  0.00  0.00    +0.000 A 
BRANCH  19  25
ATOM     25  O   UNL     1      53.752   2.608  18.490  0.00  0.00    +0.000 OA
BRANCH  25  27
ATOM     26  C   UNL     1      54.775   4.279  19.869  0.00  0.00    +0.000 C 
ATOM     27  C   UNL     1      53.890   3.050  19.843  0.00  0.00    +0.000 C 
ENDBRANCH  25  27
ENDBRANCH  19  25
ENDBRANCH  17  23
ENDBRANCH   1  17
TORSDOF 6
ENDMDL
