MODEL 1
REMARK VINA RESULT:    -8.585      0.000      0.000
REMARK INTER + INTRA:         -12.199
REMARK INTER:                 -11.094
REMARK INTRA:                  -1.105
REMARK UNBOUND:                -1.105
REMARK  Name = 
REMARK  6 active torsions:
REMARK  status: ('A' for Active; 'I' for Inactive)
REMARK    1  A    between atoms: C_1  and  C_2
REMARK    2  A    between atoms: N_7  and  C_8
REMARK    3  A    between atoms: C_8  and  C_9
REMARK    4  A    between atoms: C_12  and  C_13
REMARK    5  A    between atoms: C_13  and  N_14
REMARK    6  A    between atoms: C_15  and  C_17
REMARK                            x       y       z     vdW  Elec       q    Type
REMARK                         _______ _______ _______ _____ _____    ______ ____
ROOT
ATOM      1  C   UNL     1      44.787   5.197  10.668  0.00  0.00    +0.000 A 
ATOM      2  C   UNL     1      44.235   5.545  11.910  0.00  0.00    +0.000 A 
ATOM      3  C   UNL     1      44.903   6.427  12.773  0.00  0.00    +0.000 A 
ATOM      4  C   UNL     1      46.125   7.007  12.403  0.00  0.00    +0.000 A 
ATOM      5  C   UNL     1      46.670   6.667  11.156  0.00  0.00    +0.000 A 
ATOM      6  C   UNL     1      46.006   5.783  10.296  0.00  0.00    +0.000 A 
ENDROOT
BRANCH   1   7
ATOM      7  C   UNL     1      44.069   4.233   9.738  0.00  0.00    +0.000 C 
BRANCH   7  14
ATOM      8  C   UNL     1      47.460   2.360   4.909  0.00  0.00    +0.000 C 
ATOM      9  C   UNL     1      46.797   2.253   6.248  0.00  0.00    +0.000 A 
ATOM     10  C   UNL     1      46.961   1.134   7.059  0.00  0.00    +0.000 A 
ATOM     11  C   UNL     1      46.335   1.129   8.296  0.00  0.00    +0.000 A 
ATOM     12  N   UNL     1      45.573   2.143   8.772  0.00  0.00    +0.000 NA
ATOM     13  C   UNL     1      45.404   3.223   7.983  0.00  0.00    +0.000 A 
ATOM     14  N   UNL     1      44.654   4.330   8.410  0.00  0.00    +0.000 N 
ATOM     15  C   UNL     1      46.003   3.301   6.724  0.00  0.00    +0.000 A 
ATOM     16  H   UNL     1      43.954   4.548   7.708  0.00  0.00    +0.000 HD
ENDBRANCH   7  14
ENDBRANCH   1   7
BRANCH   4  17
ATOM     17  C   UNL     1      46.851   7.964  13.319  0.00  0.00    +0.000 C 
BRANCH  17  18
ATOM     18  N   UNL     1      47.360   7.301  14.495  0.00  0.00    +0.000 N 
ATOM     19  C   UNL     1      48.619   6.753  14.527  0.00  0.00    +0.000 C 
ATOM     20  O   UNL     1      49.387   6.812  13.571  0.00  0.00    +0.000 OA
ATOM     21  H   UNL     1      46.675   6.995  15.177  0.00  0.00    +0.000 HD
BRANCH  19  22
ATOM     22  C   UNL     1      49.026   6.142  15.801  0.00  0.00    +0.000 A 
ATOM     23  C   UNL     1      50.117   6.644  16.497  0.00  0.00    +0.000 A 
ATOM     24  S   UNL     1      50.411   5.845  17.976  0.00  0.00    +0.000 S 
ATOM     25  C   UNL     1      49.126   4.764  17.710  0.00  0.00    +0.000 A 
ATOM     26  N   UNL     1      48.845   3.774  18.601  0.00  0.00    +0.000 NA
ATOM     27  C   UNL     1      47.861   3.010  18.262  0.00  0.00    +0.000 A 
ATOM     28  N   UNL     1      47.127   3.155  17.109  0.00  0.00    +0.000 N 
ATOM     29  C   UNL     1      47.348   4.161  16.204  0.00  0.00    +0.000 A 
ATOM     30  O   UNL     1      46.632   4.295  15.219  0.00  0.00    +0.000 OA
ATOM     31  C   UNL     1      48.463   5.028  16.527  0.00  0.00    +0.000 A 
ATOM     32  H   UNL     1      46.356   2.534  16.911  0.00  0.00    +0.000 HD
ENDBRANCH  19  22
ENDBRANCH  17  18
ENDBRANCH   4  17
TORSDOF 5
ENDMDL
MODEL 2
REMARK VINA RESULT:    -7.873      1.166      1.604
REMARK INTER + INTRA:         -11.279
REMARK INTER:                 -10.574
REMARK INTRA:                  -0.705
REMARK UNBOUND:                -1.105
REMARK  Name = 
REMARK  6 active torsions:
REMARK  status: ('A' for Active; 'I' for Inactive)
REMARK    1  A    between atoms: C_1  and  C_2
REMARK    2  A    between atoms: N_7  and  C_8
REMARK    3  A    between atoms: C_8  and  C_9
REMARK    4  A    between atoms: C_12  and  C_13
REMARK    5  A    between atoms: C_13  and  N_14
REMARK    6  A    between atoms: C_15  and  C_17
REMARK                            x       y       z     vdW  Elec       q    Type
REMARK                         _______ _______ _______ _____ _____    ______ ____
ROOT
ATOM      1  C   UNL     1      44.556   5.523  11.367  0.00  0.00    +0.000 A 
ATOM      2  C   UNL     1      45.530   4.950  12.198  0.00  0.00    +0.000 A 
ATOM      3  C   UNL     1      46.462   5.752  12.874  0.00  0.00    +0.000 A 
ATOM      4  C   UNL     1      46.424   7.149  12.760  0.00  0.00    +0.000 A 
ATOM      5  C   UNL     1      45.443   7.721  11.938  0.00  0.00    +0.000 A 
ATOM      6  C   UNL     1      44.515   6.920  11.258  0.00  0.00    +0.000 A 
ENDROOT
BRANCH   1   7
ATOM      7  C   UNL     1      43.555   4.653  10.625  0.00  0.00    +0.000 C 
BRANCH   7  14
ATOM      8  C   UNL     1      46.911   0.435   7.579  0.00  0.00    +0.000 C 
ATOM      9  C   UNL     1      46.344   1.790   7.874  0.00  0.00    +0.000 A 
ATOM     10  C   UNL     1      46.585   2.881   7.044  0.00  0.00    +0.000 A 
ATOM     11  C   UNL     1      46.000   4.093   7.375  0.00  0.00    +0.000 A 
ATOM     12  N   UNL     1      45.204   4.289   8.455  0.00  0.00    +0.000 NA
ATOM     13  C   UNL     1      44.979   3.237   9.265  0.00  0.00    +0.000 A 
ATOM     14  N   UNL     1      44.145   3.345  10.389  0.00  0.00    +0.000 N 
ATOM     15  C   UNL     1      45.535   1.984   8.997  0.00  0.00    +0.000 A 
ATOM     16  H   UNL     1      44.642   3.006  11.207  0.00  0.00    +0.000 HD
ENDBRANCH   7  14
ENDBRANCH   1   7
BRANCH   4  17
ATOM     17  C   UNL     1      47.416   8.025  13.489  0.00  0.00    +0.000 C 
BRANCH  17  18
ATOM     18  N   UNL     1      47.695   7.532  14.816  0.00  0.00    +0.000 N 
ATOM     19  C   UNL     1      48.919   7.003  15.148  0.00  0.00    +0.000 C 
ATOM     20  O   UNL     1      49.846   6.938  14.346  0.00  0.00    +0.000 OA
ATOM     21  H   UNL     1      46.894   7.315  15.399  0.00  0.00    +0.000 HD
BRANCH  19  22
ATOM     22  C   UNL     1      49.080   6.573  16.545  0.00  0.00    +0.000 A 
ATOM     23  C   UNL     1      49.636   7.438  17.478  0.00  0.00    +0.000 A 
ATOM     24  S   UNL     1      49.699   6.790  19.056  0.00  0.00    +0.000 S 
ATOM     25  C   UNL     1      49.039   5.312  18.534  0.00  0.00    +0.000 A 
ATOM     26  N   UNL     1      48.855   4.280  19.402  0.00  0.00    +0.000 NA
ATOM     27  C   UNL     1      48.371   3.209  18.867  0.00  0.00    +0.000 A 
ATOM     28  N   UNL     1      48.048   3.083  17.538  0.00  0.00    +0.000 N 
ATOM     29  C   UNL     1      48.179   4.108  16.637  0.00  0.00    +0.000 A 
ATOM     30  O   UNL     1      47.821   3.977  15.472  0.00  0.00    +0.000 OA
ATOM     31  C   UNL     1      48.746   5.323  17.185  0.00  0.00    +0.000 A 
ATOM     32  H   UNL     1      47.656   2.222  17.185  0.00  0.00    +0.000 HD
ENDBRANCH  19  22
ENDBRANCH  17  18
ENDBRANCH   4  17
TORSDOF 5
ENDMDL
MODEL 3
REMARK VINA RESULT:    -7.657      2.274      2.897
REMARK INTER + INTRA:         -11.000
REMARK INTER:                 -10.110
REMARK INTRA:                  -0.890
REMARK UNBOUND:                -1.105
REMARK  Name = 
REMARK  6 active torsions:
REMARK  status: ('A' for Active; 'I' for Inactive)
REMARK    1  A    between atoms: C_1  and  C_2
REMARK    2  A    between atoms: N_7  and  C_8
REMARK    3  A    between atoms: C_8  and  C_9
REMARK    4  A    between atoms: C_12  and  C_13
REMARK    5  A    between atoms: C_13  and  N_14
REMARK    6  A    between atoms: C_15  and  C_17
REMARK                            x       y       z     vdW  Elec       q    Type
REMARK                         _______ _______ _______ _____ _____    ______ ____
ROOT
ATOM      1  C   UNL     1      45.191   5.369  11.431  0.00  0.00    +0.000 A 
ATOM      2  C   UNL     1      45.749   6.616  11.111  0.00  0.00    +0.000 A 
ATOM      3  C   UNL     1      46.708   7.211  11.945  0.00  0.00    +0.000 A 
ATOM      4  C   UNL     1      47.156   6.560  13.103  0.00  0.00    +0.000 A 
ATOM      5  C   UNL     1      46.606   5.309  13.416  0.00  0.00    +0.000 A 
ATOM      6  C   UNL     1      45.644   4.717  12.587  0.00  0.00    +0.000 A 
ENDROOT
BRANCH   1   7
ATOM      7  C   UNL     1      44.143   4.731  10.535  0.00  0.00    +0.000 C 
BRANCH   7  14
ATOM      8  C   UNL     1      46.923   0.217   7.337  0.00  0.00    +0.000 C 
ATOM      9  C   UNL     1      46.555   1.625   7.693  0.00  0.00    +0.000 A 
ATOM     10  C   UNL     1      46.979   2.707   6.928  0.00  0.00    +0.000 A 
ATOM     11  C   UNL     1      46.570   3.975   7.311  0.00  0.00    +0.000 A 
ATOM     12  N   UNL     1      45.782   4.234   8.383  0.00  0.00    +0.000 NA
ATOM     13  C   UNL     1      45.380   3.187   9.132  0.00  0.00    +0.000 A 
ATOM     14  N   UNL     1      44.539   3.362  10.242  0.00  0.00    +0.000 N 
ATOM     15  C   UNL     1      45.751   1.880   8.808  0.00  0.00    +0.000 A 
ATOM     16  H   UNL     1      44.957   2.913  11.050  0.00  0.00    +0.000 HD
ENDBRANCH   7  14
ENDBRANCH   1   7
BRANCH   4  17
ATOM     17  C   UNL     1      48.195   7.185  14.005  0.00  0.00    +0.000 C 
BRANCH  17  18
ATOM     18  N   UNL     1      48.063   6.737  15.369  0.00  0.00    +0.000 N 
ATOM     19  C   UNL     1      49.156   6.384  16.123  0.00  0.00    +0.000 C 
ATOM     20  O   UNL     1      50.303   6.447  15.688  0.00  0.00    +0.000 OA
ATOM     21  H   UNL     1      47.146   6.413  15.655  0.00  0.00    +0.000 HD
BRANCH  19  22
ATOM     22  C   UNL     1      48.883   5.983  17.510  0.00  0.00    +0.000 A 
ATOM     23  C   UNL     1      49.119   4.676  17.916  0.00  0.00    +0.000 A 
ATOM     24  S   UNL     1      48.793   4.405  19.569  0.00  0.00    +0.000 S 
ATOM     25  C   UNL     1      48.272   6.009  19.786  0.00  0.00    +0.000 A 
ATOM     26  N   UNL     1      47.813   6.442  20.992  0.00  0.00    +0.000 NA
ATOM     27  C   UNL     1      47.426   7.672  21.009  0.00  0.00    +0.000 A 
ATOM     28  N   UNL     1      47.463   8.513  19.923  0.00  0.00    +0.000 N 
ATOM     29  C   UNL     1      47.953   8.132  18.700  0.00  0.00    +0.000 A 
ATOM     30  O   UNL     1      48.028   8.929  17.771  0.00  0.00    +0.000 OA
ATOM     31  C   UNL     1      48.374   6.748  18.624  0.00  0.00    +0.000 A 
ATOM     32  H   UNL     1      47.161   9.473  20.006  0.00  0.00    +0.000 HD
ENDBRANCH  19  22
ENDBRANCH  17  18
ENDBRANCH   4  17
TORSDOF 5
ENDMDL
MODEL 4
REMARK VINA RESULT:    -7.380      4.702      9.407
REMARK INTER + INTRA:         -10.643
REMARK INTER:                  -9.865
REMARK INTRA:                  -0.777
REMARK UNBOUND:                -1.105
REMARK  Name = 
REMARK  6 active torsions:
REMARK  status: ('A' for Active; 'I' for Inactive)
REMARK    1  A    between atoms: C_1  and  C_2
REMARK    2  A    between atoms: N_7  and  C_8
REMARK    3  A    between atoms: C_8  and  C_9
REMARK    4  A    between atoms: C_12  and  C_13
REMARK    5  A    between atoms: C_13  and  N_14
REMARK    6  A    between atoms: C_15  and  C_17
REMARK                            x       y       z     vdW  Elec       q    Type
REMARK                         _______ _______ _______ _____ _____    ______ ____
ROOT
ATOM      1  C   UNL     1      51.591   2.757  17.600  0.00  0.00    +0.000 A 
ATOM      2  C   UNL     1      51.023   3.985  17.971  0.00  0.00    +0.000 A 
ATOM      3  C   UNL     1      49.653   4.229  17.790  0.00  0.00    +0.000 A 
ATOM      4  C   UNL     1      48.811   3.240  17.261  0.00  0.00    +0.000 A 
ATOM      5  C   UNL     1      49.378   2.009  16.901  0.00  0.00    +0.000 A 
ATOM      6  C   UNL     1      50.747   1.767  17.078  0.00  0.00    +0.000 A 
ENDROOT
BRANCH   1   7
ATOM      7  C   UNL     1      53.076   2.498  17.786  0.00  0.00    +0.000 C 
BRANCH   7  14
ATOM      8  C   UNL     1      54.876  -3.333  18.829  0.00  0.00    +0.000 C 
ATOM      9  C   UNL     1      54.740  -2.052  18.065  0.00  0.00    +0.000 A 
ATOM     10  C   UNL     1      55.223  -1.918  16.767  0.00  0.00    +0.000 A 
ATOM     11  C   UNL     1      55.031  -0.707  16.122  0.00  0.00    +0.000 A 
ATOM     12  N   UNL     1      54.400   0.361  16.670  0.00  0.00    +0.000 NA
ATOM     13  C   UNL     1      53.942   0.237  17.932  0.00  0.00    +0.000 A 
ATOM     14  N   UNL     1      53.253   1.282  18.565  0.00  0.00    +0.000 N 
ATOM     15  C   UNL     1      54.099  -0.953  18.646  0.00  0.00    +0.000 A 
ATOM     16  H   UNL     1      53.688   1.474  19.462  0.00  0.00    +0.000 HD
ENDBRANCH   7  14
ENDBRANCH   1   7
BRANCH   4  17
ATOM     17  C   UNL     1      47.332   3.486  17.069  0.00  0.00    +0.000 C 
BRANCH  17  18
ATOM     18  N   UNL     1      47.081   4.497  16.071  0.00  0.00    +0.000 N 
ATOM     19  C   UNL     1      47.085   4.204  14.729  0.00  0.00    +0.000 C 
ATOM     20  O   UNL     1      47.280   3.069  14.304  0.00  0.00    +0.000 OA
ATOM     21  H   UNL     1      47.196   5.462  16.362  0.00  0.00    +0.000 HD
BRANCH  19  22
ATOM     22  C   UNL     1      46.776   5.320  13.823  0.00  0.00    +0.000 A 
ATOM     23  C   UNL     1      47.703   6.334  13.627  0.00  0.00    +0.000 A 
ATOM     24  S   UNL     1      47.196   7.517  12.506  0.00  0.00    +0.000 S 
ATOM     25  C   UNL     1      45.697   6.744  12.286  0.00  0.00    +0.000 A 
ATOM     26  N   UNL     1      44.751   7.268  11.460  0.00  0.00    +0.000 NA
ATOM     27  C   UNL     1      43.652   6.594  11.408  0.00  0.00    +0.000 A 
ATOM     28  N   UNL     1      43.417   5.434  12.106  0.00  0.00    +0.000 N 
ATOM     29  C   UNL     1      44.355   4.849  12.919  0.00  0.00    +0.000 A 
ATOM     30  O   UNL     1      44.131   3.781  13.476  0.00  0.00    +0.000 OA
ATOM     31  C   UNL     1      45.597   5.586  13.032  0.00  0.00    +0.000 A 
ATOM     32  H   UNL     1      42.540   4.944  12.007  0.00  0.00    +0.000 HD
ENDBRANCH  19  22
ENDBRANCH  17  18
ENDBRANCH   4  17
TORSDOF 5
ENDMDL
MODEL 5
REMARK VINA RESULT:    -7.366      2.992      5.103
REMARK INTER + INTRA:         -10.624
REMARK INTER:                 -10.234
REMARK INTRA:                  -0.390
REMARK UNBOUND:                -1.105
REMARK  Name = 
REMARK  6 active torsions:
REMARK  status: ('A' for Active; 'I' for Inactive)
REMARK    1  A    between atoms: C_1  and  C_2
REMARK    2  A    between atoms: N_7  and  C_8
REMARK    3  A    between atoms: C_8  and  C_9
REMARK    4  A    between atoms: C_12  and  C_13
REMARK    5  A    between atoms: C_13  and  N_14
REMARK    6  A    between atoms: C_15  and  C_17
REMARK                            x       y       z     vdW  Elec       q    Type
REMARK                         _______ _______ _______ _____ _____    ______ ____
ROOT
ATOM      1  C   UNL     1      44.598   3.786  11.918  0.00  0.00    +0.000 A 
ATOM      2  C   UNL     1      45.698   3.149  12.513  0.00  0.00    +0.000 A 
ATOM      3  C   UNL     1      46.589   3.864  13.328  0.00  0.00    +0.000 A 
ATOM      4  C   UNL     1      46.386   5.226  13.593  0.00  0.00    +0.000 A 
ATOM      5  C   UNL     1      45.281   5.859  13.006  0.00  0.00    +0.000 A 
ATOM      6  C   UNL     1      44.393   5.147  12.188  0.00  0.00    +0.000 A 
ENDROOT
BRANCH   1   7
ATOM      7  C   UNL     1      43.640   3.015  11.026  0.00  0.00    +0.000 C 
BRANCH   7  14
ATOM      8  C   UNL     1      47.377   1.085   6.482  0.00  0.00    +0.000 C 
ATOM      9  C   UNL     1      46.644   2.077   7.332  0.00  0.00    +0.000 A 
ATOM     10  C   UNL     1      46.684   3.442   7.063  0.00  0.00    +0.000 A 
ATOM     11  C   UNL     1      45.955   4.289   7.883  0.00  0.00    +0.000 A 
ATOM     12  N   UNL     1      45.201   3.877   8.932  0.00  0.00    +0.000 NA
ATOM     13  C   UNL     1      45.170   2.556   9.200  0.00  0.00    +0.000 A 
ATOM     14  N   UNL     1      44.393   2.041  10.249  0.00  0.00    +0.000 N 
ATOM     15  C   UNL     1      45.879   1.642   8.418  0.00  0.00    +0.000 A 
ATOM     16  H   UNL     1      44.977   1.462  10.843  0.00  0.00    +0.000 HD
ENDBRANCH   7  14
ENDBRANCH   1   7
BRANCH   4  17
ATOM     17  C   UNL     1      47.333   6.005  14.475  0.00  0.00    +0.000 C 
BRANCH  17  18
ATOM     18  N   UNL     1      47.462   7.377  14.046  0.00  0.00    +0.000 N 
ATOM     19  C   UNL     1      48.277   7.732  12.999  0.00  0.00    +0.000 C 
ATOM     20  O   UNL     1      48.923   6.907  12.359  0.00  0.00    +0.000 OA
ATOM     21  H   UNL     1      47.177   8.090  14.709  0.00  0.00    +0.000 HD
BRANCH  19  22
ATOM     22  C   UNL     1      48.286   9.158  12.641  0.00  0.00    +0.000 A 
ATOM     23  C   UNL     1      49.489   9.845  12.551  0.00  0.00    +0.000 A 
ATOM     24  S   UNL     1      49.310  11.475  12.076  0.00  0.00    +0.000 S 
ATOM     25  C   UNL     1      47.616  11.333  12.031  0.00  0.00    +0.000 A 
ATOM     26  N   UNL     1      46.830  12.401  11.723  0.00  0.00    +0.000 NA
ATOM     27  C   UNL     1      45.562  12.159  11.752  0.00  0.00    +0.000 A 
ATOM     28  N   UNL     1      45.011  10.939  12.057  0.00  0.00    +0.000 N 
ATOM     29  C   UNL     1      45.764   9.827  12.335  0.00  0.00    +0.000 A 
ATOM     30  O   UNL     1      45.237   8.740  12.541  0.00  0.00    +0.000 OA
ATOM     31  C   UNL     1      47.195  10.056  12.343  0.00  0.00    +0.000 A 
ATOM     32  H   UNL     1      44.009  10.811  12.044  0.00  0.00    +0.000 HD
ENDBRANCH  19  22
ENDBRANCH  17  18
ENDBRANCH   4  17
TORSDOF 5
ENDMDL
MODEL 6
REMARK VINA RESULT:    -7.182      1.908      2.285
REMARK INTER + INTRA:         -10.386
REMARK INTER:                  -9.620
REMARK INTRA:                  -0.766
REMARK UNBOUND:                -1.105
REMARK  Name = 
REMARK  6 active torsions:
REMARK  status: ('A' for Active; 'I' for Inactive)
REMARK    1  A    between atoms: C_1  and  C_2
REMARK    2  A    between atoms: N_7  and  C_8
REMARK    3  A    between atoms: C_8  and  C_9
REMARK    4  A    between atoms: C_12  and  C_13
REMARK    5  A    between atoms: C_13  and  N_14
REMARK    6  A    between atoms: C_15  and  C_17
REMARK                            x       y       z     vdW  Elec       q    Type
REMARK                         _______ _______ _______ _____ _____    ______ ____
ROOT
ATOM      1  C   UNL     1      45.498   6.570  11.698  0.00  0.00    +0.000 A 
ATOM      2  C   UNL     1      45.067   7.861  12.038  0.00  0.00    +0.000 A 
ATOM      3  C   UNL     1      45.835   8.677  12.882  0.00  0.00    +0.000 A 
ATOM      4  C   UNL     1      47.068   8.235  13.382  0.00  0.00    +0.000 A 
ATOM      5  C   UNL     1      47.503   6.949  13.032  0.00  0.00    +0.000 A 
ATOM      6  C   UNL     1      46.734   6.131  12.194  0.00  0.00    +0.000 A 
ENDROOT
BRANCH   1   7
ATOM      7  C   UNL     1      44.660   5.681  10.794  0.00  0.00    +0.000 C 
BRANCH   7  14
ATOM      8  C   UNL     1      47.089   2.763   5.904  0.00  0.00    +0.000 C 
ATOM      9  C   UNL     1      46.368   2.890   7.210  0.00  0.00    +0.000 A 
ATOM     10  C   UNL     1      45.938   1.774   7.921  0.00  0.00    +0.000 A 
ATOM     11  C   UNL     1      45.303   1.980   9.136  0.00  0.00    +0.000 A 
ATOM     12  N   UNL     1      45.074   3.200   9.682  0.00  0.00    +0.000 NA
ATOM     13  C   UNL     1      45.480   4.282   8.990  0.00  0.00    +0.000 A 
ATOM     14  N   UNL     1      45.308   5.580   9.495  0.00  0.00    +0.000 N 
ATOM     15  C   UNL     1      46.126   4.154   7.758  0.00  0.00    +0.000 A 
ATOM     16  H   UNL     1      44.837   6.149   8.798  0.00  0.00    +0.000 HD
ENDBRANCH   7  14
ENDBRANCH   1   7
BRANCH   4  17
ATOM     17  C   UNL     1      47.909   9.108  14.285  0.00  0.00    +0.000 C 
BRANCH  17  18
ATOM     18  N   UNL     1      47.821   8.696  15.664  0.00  0.00    +0.000 N 
ATOM     19  C   UNL     1      48.861   8.058  16.296  0.00  0.00    +0.000 C 
ATOM     20  O   UNL     1      49.925   7.819  15.732  0.00  0.00    +0.000 OA
ATOM     21  H   UNL     1      46.889   8.623  16.059  0.00  0.00    +0.000 HD
BRANCH  19  22
ATOM     22  C   UNL     1      48.652   7.729  17.713  0.00  0.00    +0.000 A 
ATOM     23  C   UNL     1      48.332   8.730  18.620  0.00  0.00    +0.000 A 
ATOM     24  S   UNL     1      48.077   8.158  20.208  0.00  0.00    +0.000 S 
ATOM     25  C   UNL     1      48.442   6.561  19.749  0.00  0.00    +0.000 A 
ATOM     26  N   UNL     1      48.443   5.552  20.662  0.00  0.00    +0.000 NA
ATOM     27  C   UNL     1      48.763   4.397  20.183  0.00  0.00    +0.000 A 
ATOM     28  N   UNL     1      49.076   4.161  18.867  0.00  0.00    +0.000 N 
ATOM     29  C   UNL     1      49.049   5.139  17.906  0.00  0.00    +0.000 A 
ATOM     30  O   UNL     1      49.273   4.878  16.729  0.00  0.00    +0.000 OA
ATOM     31  C   UNL     1      48.723   6.461  18.401  0.00  0.00    +0.000 A 
ATOM     32  H   UNL     1      49.301   3.228  18.552  0.00  0.00    +0.000 HD
ENDBRANCH  19  22
ENDBRANCH  17  18
ENDBRANCH   4  17
TORSDOF 5
ENDMDL
MODEL 7
REMARK VINA RESULT:    -7.176      2.587      4.496
REMARK INTER + INTRA:         -10.379
REMARK INTER:                  -9.436
REMARK INTRA:                  -0.943
REMARK UNBOUND:                -1.105
REMARK  Name = 
REMARK  6 active torsions:
REMARK  status: ('A' for Active; 'I' for Inactive)
REMARK    1  A    between atoms: C_1  and  C_2
REMARK    2  A    between atoms: N_7  and  C_8
REMARK    3  A    between atoms: C_8  and  C_9
REMARK    4  A    between atoms: C_12  and  C_13
REMARK    5  A    between atoms: C_13  and  N_14
REMARK    6  A    between atoms: C_15  and  C_17
REMARK                            x       y       z     vdW  Elec       q    Type
REMARK                         _______ _______ _______ _____ _____    ______ ____
ROOT
ATOM      1  C   UNL     1      44.772   3.959  11.893  0.00  0.00    +0.000 A 
ATOM      2  C   UNL     1      45.666   3.080  12.521  0.00  0.00    +0.000 A 
ATOM      3  C   UNL     1      46.545   3.536  13.515  0.00  0.00    +0.000 A 
ATOM      4  C   UNL     1      46.531   4.876  13.927  0.00  0.00    +0.000 A 
ATOM      5  C   UNL     1      45.629   5.752  13.306  0.00  0.00    +0.000 A 
ATOM      6  C   UNL     1      44.755   5.298  12.310  0.00  0.00    +0.000 A 
ENDROOT
BRANCH   1   7
ATOM      7  C   UNL     1      43.829   3.467  10.808  0.00  0.00    +0.000 C 
BRANCH   7  14
ATOM      8  C   UNL     1      47.323   0.790   6.454  0.00  0.00    +0.000 C 
ATOM      9  C   UNL     1      46.722   1.920   7.232  0.00  0.00    +0.000 A 
ATOM     10  C   UNL     1      46.948   3.249   6.887  0.00  0.00    +0.000 A 
ATOM     11  C   UNL     1      46.330   4.233   7.643  0.00  0.00    +0.000 A 
ATOM     12  N   UNL     1      45.515   3.988   8.699  0.00  0.00    +0.000 NA
ATOM     13  C   UNL     1      45.304   2.702   9.041  0.00  0.00    +0.000 A 
ATOM     14  N   UNL     1      44.453   2.358  10.102  0.00  0.00    +0.000 N 
ATOM     15  C   UNL     1      45.892   1.656   8.327  0.00  0.00    +0.000 A 
ATOM     16  H   UNL     1      44.946   1.741  10.739  0.00  0.00    +0.000 HD
ENDBRANCH   7  14
ENDBRANCH   1   7
BRANCH   4  17
ATOM     17  C   UNL     1      47.467   5.379  15.003  0.00  0.00    +0.000 C 
BRANCH  17  18
ATOM     18  N   UNL     1      47.884   6.738  14.760  0.00  0.00    +0.000 N 
ATOM     19  C   UNL     1      49.152   7.170  15.066  0.00  0.00    +0.000 C 
ATOM     20  O   UNL     1      50.003   6.424  15.541  0.00  0.00    +0.000 OA
ATOM     21  H   UNL     1      47.148   7.425  14.640  0.00  0.00    +0.000 HD
BRANCH  19  22
ATOM     22  C   UNL     1      49.457   8.569  14.732  0.00  0.00    +0.000 A 
ATOM     23  C   UNL     1      49.950   9.425  15.706  0.00  0.00    +0.000 A 
ATOM     24  S   UNL     1      50.294  10.993  15.127  0.00  0.00    +0.000 S 
ATOM     25  C   UNL     1      49.741  10.598  13.568  0.00  0.00    +0.000 A 
ATOM     26  N   UNL     1      49.728  11.525  12.571  0.00  0.00    +0.000 NA
ATOM     27  C   UNL     1      49.259  11.097  11.448  0.00  0.00    +0.000 A 
ATOM     28  N   UNL     1      48.807   9.818  11.231  0.00  0.00    +0.000 N 
ATOM     29  C   UNL     1      48.838   8.842  12.193  0.00  0.00    +0.000 A 
ATOM     30  O   UNL     1      48.484   7.695  11.944  0.00  0.00    +0.000 OA
ATOM     31  C   UNL     1      49.330   9.282  13.483  0.00  0.00    +0.000 A 
ATOM     32  H   UNL     1      48.468   9.541  10.321  0.00  0.00    +0.000 HD
ENDBRANCH  19  22
ENDBRANCH  17  18
ENDBRANCH   4  17
TORSDOF 5
ENDMDL
MODEL 8
REMARK VINA RESULT:    -7.143      3.107      4.045
REMARK INTER + INTRA:         -10.336
REMARK INTER:                  -9.419
REMARK INTRA:                  -0.917
REMARK UNBOUND:                -1.105
REMARK  Name = 
REMARK  6 active torsions:
REMARK  status: ('A' for Active; 'I' for Inactive)
REMARK    1  A    between atoms: C_1  and  C_2
REMARK    2  A    between atoms: N_7  and  C_8
REMARK    3  A    between atoms: C_8  and  C_9
REMARK    4  A    between atoms: C_12  and  C_13
REMARK    5  A    between atoms: C_13  and  N_14
REMARK    6  A    between atoms: C_15  and  C_17
REMARK                            x       y       z     vdW  Elec       q    Type
REMARK                         _______ _______ _______ _____ _____    ______ ____
ROOT
ATOM      1  C   UNL     1      45.606   5.713  12.021  0.00  0.00    +0.000 A 
ATOM      2  C   UNL     1      46.588   6.714  12.020  0.00  0.00    +0.000 A 
ATOM      3  C   UNL     1      47.541   6.790  13.047  0.00  0.00    +0.000 A 
ATOM      4  C   UNL     1      47.554   5.847  14.085  0.00  0.00    +0.000 A 
ATOM      5  C   UNL     1      46.579   4.840  14.080  0.00  0.00    +0.000 A 
ATOM      6  C   UNL     1      45.624   4.767  13.057  0.00  0.00    +0.000 A 
ENDROOT
BRANCH   1   7
ATOM      7  C   UNL     1      44.567   5.638  10.915  0.00  0.00    +0.000 C 
BRANCH   7  14
ATOM      8  C   UNL     1      47.113   2.943   5.957  0.00  0.00    +0.000 C 
ATOM      9  C   UNL     1      46.361   3.011   7.250  0.00  0.00    +0.000 A 
ATOM     10  C   UNL     1      45.914   1.865   7.899  0.00  0.00    +0.000 A 
ATOM     11  C   UNL     1      45.250   2.016   9.107  0.00  0.00    +0.000 A 
ATOM     12  N   UNL     1      45.008   3.209   9.702  0.00  0.00    +0.000 NA
ATOM     13  C   UNL     1      45.430   4.322   9.069  0.00  0.00    +0.000 A 
ATOM     14  N   UNL     1      45.245   5.596   9.628  0.00  0.00    +0.000 N 
ATOM     15  C   UNL     1      46.105   4.249   7.849  0.00  0.00    +0.000 A 
ATOM     16  H   UNL     1      44.792   6.196   8.948  0.00  0.00    +0.000 HD
ENDBRANCH   7  14
ENDBRANCH   1   7
BRANCH   4  17
ATOM     17  C   UNL     1      48.580   5.912  15.193  0.00  0.00    +0.000 C 
BRANCH  17  18
ATOM     18  N   UNL     1      48.120   6.707  16.306  0.00  0.00    +0.000 N 
ATOM     19  C   UNL     1      48.860   6.835  17.457  0.00  0.00    +0.000 C 
ATOM     20  O   UNL     1      49.956   6.300  17.597  0.00  0.00    +0.000 OA
ATOM     21  H   UNL     1      47.129   6.919  16.335  0.00  0.00    +0.000 HD
BRANCH  19  22
ATOM     22  C   UNL     1      48.292   7.705  18.497  0.00  0.00    +0.000 A 
ATOM     23  C   UNL     1      48.020   7.194  19.759  0.00  0.00    +0.000 A 
ATOM     24  S   UNL     1      47.413   8.358  20.850  0.00  0.00    +0.000 S 
ATOM     25  C   UNL     1      47.439   9.570  19.658  0.00  0.00    +0.000 A 
ATOM     26  N   UNL     1      47.003  10.830  19.928  0.00  0.00    +0.000 NA
ATOM     27  C   UNL     1      47.054  11.641  18.926  0.00  0.00    +0.000 A 
ATOM     28  N   UNL     1      47.510  11.303  17.675  0.00  0.00    +0.000 N 
ATOM     29  C   UNL     1      47.995  10.058  17.368  0.00  0.00    +0.000 A 
ATOM     30  O   UNL     1      48.453   9.812  16.258  0.00  0.00    +0.000 OA
ATOM     31  C   UNL     1      47.932   9.102  18.456  0.00  0.00    +0.000 A 
ATOM     32  H   UNL     1      47.541  11.991  16.936  0.00  0.00    +0.000 HD
ENDBRANCH  19  22
ENDBRANCH  17  18
ENDBRANCH   4  17
TORSDOF 5
ENDMDL
MODEL 9
REMARK VINA RESULT:    -6.984      2.007      2.941
REMARK INTER + INTRA:         -10.130
REMARK INTER:                  -9.653
REMARK INTRA:                  -0.477
REMARK UNBOUND:                -1.105
REMARK  Name = 
REMARK  6 active torsions:
REMARK  status: ('A' for Active; 'I' for Inactive)
REMARK    1  A    between atoms: C_1  and  C_2
REMARK    2  A    between atoms: N_7  and  C_8
REMARK    3  A    between atoms: C_8  and  C_9
REMARK    4  A    between atoms: C_12  and  C_13
REMARK    5  A    between atoms: C_13  and  N_14
REMARK    6  A    between atoms: C_15  and  C_17
REMARK                            x       y       z     vdW  Elec       q    Type
REMARK                         _______ _______ _______ _____ _____    ______ ____
ROOT
ATOM      1  C   UNL     1      44.672   4.900  11.537  0.00  0.00    +0.000 A 
ATOM      2  C   UNL     1      45.455   4.322  12.548  0.00  0.00    +0.000 A 
ATOM      3  C   UNL     1      46.433   5.072  13.218  0.00  0.00    +0.000 A 
ATOM      4  C   UNL     1      46.632   6.427  12.915  0.00  0.00    +0.000 A 
ATOM      5  C   UNL     1      45.841   7.006  11.913  0.00  0.00    +0.000 A 
ATOM      6  C   UNL     1      44.868   6.256  11.240  0.00  0.00    +0.000 A 
ENDROOT
BRANCH   1   7
ATOM      7  C   UNL     1      43.620   4.084  10.804  0.00  0.00    +0.000 C 
BRANCH   7  14
ATOM      8  C   UNL     1      47.021   0.344   7.229  0.00  0.00    +0.000 C 
ATOM      9  C   UNL     1      46.458   1.644   7.714  0.00  0.00    +0.000 A 
ATOM     10  C   UNL     1      46.728   2.846   7.067  0.00  0.00    +0.000 A 
ATOM     11  C   UNL     1      46.143   4.000   7.565  0.00  0.00    +0.000 A 
ATOM     12  N   UNL     1      45.322   4.037   8.643  0.00  0.00    +0.000 NA
ATOM     13  C   UNL     1      45.068   2.876   9.278  0.00  0.00    +0.000 A 
ATOM     14  N   UNL     1      44.207   2.820  10.384  0.00  0.00    +0.000 N 
ATOM     15  C   UNL     1      45.621   1.672   8.835  0.00  0.00    +0.000 A 
ATOM     16  H   UNL     1      44.680   2.356  11.152  0.00  0.00    +0.000 HD
ENDBRANCH   7  14
ENDBRANCH   1   7
BRANCH   4  17
ATOM     17  C   UNL     1      47.677   7.248  13.635  0.00  0.00    +0.000 C 
BRANCH  17  18
ATOM     18  N   UNL     1      48.385   6.471  14.622  0.00  0.00    +0.000 N 
ATOM     19  C   UNL     1      48.813   7.024  15.806  0.00  0.00    +0.000 C 
ATOM     20  O   UNL     1      48.602   8.197  16.097  0.00  0.00    +0.000 OA
ATOM     21  H   UNL     1      48.811   5.608  14.303  0.00  0.00    +0.000 HD
BRANCH  19  22
ATOM     22  C   UNL     1      49.488   6.110  16.739  0.00  0.00    +0.000 A 
ATOM     23  C   UNL     1      48.740   5.307  17.589  0.00  0.00    +0.000 A 
ATOM     24  S   UNL     1      49.688   4.276  18.565  0.00  0.00    +0.000 S 
ATOM     25  C   UNL     1      51.131   4.908  17.925  0.00  0.00    +0.000 A 
ATOM     26  N   UNL     1      52.344   4.475  18.366  0.00  0.00    +0.000 NA
ATOM     27  C   UNL     1      53.354   5.058  17.815  0.00  0.00    +0.000 A 
ATOM     28  N   UNL     1      53.259   6.035  16.854  0.00  0.00    +0.000 N 
ATOM     29  C   UNL     1      52.060   6.474  16.352  0.00  0.00    +0.000 A 
ATOM     30  O   UNL     1      52.017   7.302  15.449  0.00  0.00    +0.000 OA
ATOM     31  C   UNL     1      50.894   5.868  16.961  0.00  0.00    +0.000 A 
ATOM     32  H   UNL     1      54.090   6.439  16.449  0.00  0.00    +0.000 HD
ENDBRANCH  19  22
ENDBRANCH  17  18
ENDBRANCH   4  17
TORSDOF 5
ENDMDL
