MODEL 1
REMARK VINA RESULT:    -7.882      0.000      0.000
REMARK INTER + INTRA:         -11.484
REMARK INTER:                 -10.416
REMARK INTRA:                  -1.068
REMARK UNBOUND:                -1.068
REMARK  Name = 
REMARK  6 active torsions:
REMARK  status: ('A' for Active; 'I' for Inactive)
REMARK    1  A    between atoms: N_1  and  S_2
REMARK    2  A    between atoms: S_2  and  C_5
REMARK    3  A    between atoms: C_9  and  C_10
REMARK    4  A    between atoms: C_10  and  C_11
REMARK    5  A    between atoms: C_11  and  C_12
REMARK    6  A    between atoms: C_16  and  C_17
REMARK                            x       y       z     vdW  Elec       q    Type
REMARK                         _______ _______ _______ _____ _____    ______ ____
ROOT
ATOM      1  C   UNL     1      46.667   6.957  11.712  0.00  0.00    +0.000 C 
ENDROOT
BRANCH   1   6
ATOM      2  C   UNL     1      47.767   5.431  15.010  0.00  0.00    +0.000 A 
ATOM      3  C   UNL     1      48.503   6.471  15.584  0.00  0.00    +0.000 A 
ATOM      4  C   UNL     1      48.633   7.677  14.894  0.00  0.00    +0.000 A 
ATOM      5  C   UNL     1      48.041   7.835  13.640  0.00  0.00    +0.000 A 
ATOM      6  C   UNL     1      47.311   6.788  13.062  0.00  0.00    +0.000 A 
ATOM      7  C   UNL     1      47.180   5.580  13.753  0.00  0.00    +0.000 A 
BRANCH   2   8
ATOM      8  S   UNL     1      47.613   3.884  15.846  0.00  0.00    +0.000 S 
ATOM      9  O   UNL     1      47.678   2.810  14.884  0.00  0.00    +0.000 OA
ATOM     10  O   UNL     1      46.555   3.976  16.831  0.00  0.00    +0.000 OA
BRANCH   8  11
ATOM     11  N   UNL     1      49.042   3.814  16.721  0.00  0.00    +0.000 NA
ATOM     12  H   UNL     1      48.832   3.663  17.706  0.00  0.00    +0.000 HD
ATOM     13  H   UNL     1      49.606   4.646  16.540  0.00  0.00    +0.000 HD
ENDBRANCH   8  11
ENDBRANCH   2   8
ENDBRANCH   1   6
BRANCH   1  14
ATOM     14  C   UNL     1      45.148   6.712  11.738  0.00  0.00    +0.000 C 
BRANCH  14  15
ATOM     15  C   UNL     1      44.734   5.331  11.269  0.00  0.00    +0.000 A 
ATOM     16  C   UNL     1      43.659   4.674  11.877  0.00  0.00    +0.000 A 
ATOM     17  C   UNL     1      43.274   3.406  11.440  0.00  0.00    +0.000 A 
ATOM     18  C   UNL     1      43.945   2.785  10.382  0.00  0.00    +0.000 A 
ATOM     19  C   UNL     1      45.017   3.418   9.735  0.00  0.00    +0.000 A 
ATOM     20  C   UNL     1      45.411   4.674  10.232  0.00  0.00    +0.000 A 
BRANCH  19  21
ATOM     21  C   UNL     1      45.658   2.879   8.511  0.00  0.00    +0.000 A 
ATOM     22  C   UNL     1      45.961   3.719   7.425  0.00  0.00    +0.000 A 
ATOM     23  C   UNL     1      46.716   3.262   6.340  0.00  0.00    +0.000 A 
ATOM     24  C   UNL     1      47.188   1.954   6.318  0.00  0.00    +0.000 A 
ATOM     25  C   UNL     1      46.875   1.090   7.361  0.00  0.00    +0.000 A 
ATOM     26  C   UNL     1      46.103   1.544   8.434  0.00  0.00    +0.000 A 
ENDBRANCH  19  21
ENDBRANCH  14  15
ENDBRANCH   1  14
TORSDOF 6
ENDMDL
MODEL 2
REMARK VINA RESULT:    -7.314      1.610      3.424
REMARK INTER + INTRA:         -10.733
REMARK INTER:                  -9.650
REMARK INTRA:                  -1.083
REMARK UNBOUND:                -1.068
REMARK  Name = 
REMARK  6 active torsions:
REMARK  status: ('A' for Active; 'I' for Inactive)
REMARK    1  A    between atoms: N_1  and  S_2
REMARK    2  A    between atoms: S_2  and  C_5
REMARK    3  A    between atoms: C_9  and  C_10
REMARK    4  A    between atoms: C_10  and  C_11
REMARK    5  A    between atoms: C_11  and  C_12
REMARK    6  A    between atoms: C_16  and  C_17
REMARK                            x       y       z     vdW  Elec       q    Type
REMARK                         _______ _______ _______ _____ _____    ______ ____
ROOT
ATOM      1  C   UNL     1      49.099   8.100  14.537  0.00  0.00    +0.000 C 
ENDROOT
BRANCH   1   6
ATOM      2  C   UNL     1      48.184   5.118  16.702  0.00  0.00    +0.000 A 
ATOM      3  C   UNL     1      48.225   5.665  17.987  0.00  0.00    +0.000 A 
ATOM      4  C   UNL     1      48.544   7.014  18.146  0.00  0.00    +0.000 A 
ATOM      5  C   UNL     1      48.830   7.803  17.030  0.00  0.00    +0.000 A 
ATOM      6  C   UNL     1      48.797   7.251  15.742  0.00  0.00    +0.000 A 
ATOM      7  C   UNL     1      48.477   5.900  15.583  0.00  0.00    +0.000 A 
BRANCH   2   8
ATOM      8  S   UNL     1      47.814   3.408  16.474  0.00  0.00    +0.000 S 
ATOM      9  O   UNL     1      46.608   3.077  17.194  0.00  0.00    +0.000 OA
ATOM     10  O   UNL     1      49.031   2.633  16.608  0.00  0.00    +0.000 OA
BRANCH   8  11
ATOM     11  N   UNL     1      47.417   3.349  14.846  0.00  0.00    +0.000 NA
ATOM     12  H   UNL     1      47.775   4.180  14.377  0.00  0.00    +0.000 HD
ATOM     13  H   UNL     1      46.411   3.212  14.734  0.00  0.00    +0.000 HD
ENDBRANCH   8  11
ENDBRANCH   2   8
ENDBRANCH   1   6
BRANCH   1  14
ATOM     14  C   UNL     1      48.906   7.347  13.210  0.00  0.00    +0.000 C 
BRANCH  14  15
ATOM     15  C   UNL     1      47.480   7.353  12.694  0.00  0.00    +0.000 A 
ATOM     16  C   UNL     1      46.653   8.456  12.925  0.00  0.00    +0.000 A 
ATOM     17  C   UNL     1      45.343   8.465  12.444  0.00  0.00    +0.000 A 
ATOM     18  C   UNL     1      44.849   7.379  11.713  0.00  0.00    +0.000 A 
ATOM     19  C   UNL     1      45.652   6.261  11.446  0.00  0.00    +0.000 A 
ATOM     20  C   UNL     1      46.950   6.264  11.987  0.00  0.00    +0.000 A 
BRANCH  19  21
ATOM     21  C   UNL     1      45.234   5.159  10.546  0.00  0.00    +0.000 A 
ATOM     22  C   UNL     1      45.643   5.131   9.201  0.00  0.00    +0.000 A 
ATOM     23  C   UNL     1      45.402   4.018   8.389  0.00  0.00    +0.000 A 
ATOM     24  C   UNL     1      44.748   2.904   8.907  0.00  0.00    +0.000 A 
ATOM     25  C   UNL     1      44.301   2.916  10.223  0.00  0.00    +0.000 A 
ATOM     26  C   UNL     1      44.526   4.038  11.025  0.00  0.00    +0.000 A 
ENDBRANCH  19  21
ENDBRANCH  14  15
ENDBRANCH   1  14
TORSDOF 6
ENDMDL
MODEL 3
REMARK VINA RESULT:    -7.196      2.095      2.372
REMARK INTER + INTRA:         -10.578
REMARK INTER:                  -9.438
REMARK INTRA:                  -1.139
REMARK UNBOUND:                -1.068
REMARK  Name = 
REMARK  6 active torsions:
REMARK  status: ('A' for Active; 'I' for Inactive)
REMARK    1  A    between atoms: N_1  and  S_2
REMARK    2  A    between atoms: S_2  and  C_5
REMARK    3  A    between atoms: C_9  and  C_10
REMARK    4  A    between atoms: C_10  and  C_11
REMARK    5  A    between atoms: C_11  and  C_12
REMARK    6  A    between atoms: C_16  and  C_17
REMARK                            x       y       z     vdW  Elec       q    Type
REMARK                         _______ _______ _______ _____ _____    ______ ____
ROOT
ATOM      1  C   UNL     1      45.443   7.772  12.811  0.00  0.00    +0.000 C 
ENDROOT
BRANCH   1   6
ATOM      2  C   UNL     1      48.954   7.540  14.239  0.00  0.00    +0.000 A 
ATOM      3  C   UNL     1      49.740   7.524  13.084  0.00  0.00    +0.000 A 
ATOM      4  C   UNL     1      49.122   7.598  11.836  0.00  0.00    +0.000 A 
ATOM      5  C   UNL     1      47.731   7.675  11.745  0.00  0.00    +0.000 A 
ATOM      6  C   UNL     1      46.943   7.683  12.904  0.00  0.00    +0.000 A 
ATOM      7  C   UNL     1      47.562   7.610  14.155  0.00  0.00    +0.000 A 
BRANCH   2   8
ATOM      8  S   UNL     1      49.707   7.417  15.830  0.00  0.00    +0.000 S 
ATOM      9  O   UNL     1      50.430   8.633  16.115  0.00  0.00    +0.000 OA
ATOM     10  O   UNL     1      50.311   6.108  15.974  0.00  0.00    +0.000 OA
BRANCH   8  11
ATOM     11  N   UNL     1      48.375   7.415  16.850  0.00  0.00    +0.000 NA
ATOM     12  H   UNL     1      48.522   6.744  17.602  0.00  0.00    +0.000 HD
ATOM     13  H   UNL     1      47.522   7.255  16.313  0.00  0.00    +0.000 HD
ENDBRANCH   8  11
ENDBRANCH   2   8
ENDBRANCH   1   6
BRANCH   1  14
ATOM     14  C   UNL     1      44.911   7.459  11.402  0.00  0.00    +0.000 C 
BRANCH  14  15
ATOM     15  C   UNL     1      44.559   6.002  11.180  0.00  0.00    +0.000 A 
ATOM     16  C   UNL     1      43.540   5.402  11.927  0.00  0.00    +0.000 A 
ATOM     17  C   UNL     1      43.211   4.063  11.717  0.00  0.00    +0.000 A 
ATOM     18  C   UNL     1      43.884   3.309  10.750  0.00  0.00    +0.000 A 
ATOM     19  C   UNL     1      44.901   3.878   9.969  0.00  0.00    +0.000 A 
ATOM     20  C   UNL     1      45.240   5.216  10.239  0.00  0.00    +0.000 A 
BRANCH  19  21
ATOM     21  C   UNL     1      45.534   3.177   8.826  0.00  0.00    +0.000 A 
ATOM     22  C   UNL     1      46.146   3.898   7.786  0.00  0.00    +0.000 A 
ATOM     23  C   UNL     1      46.893   3.253   6.794  0.00  0.00    +0.000 A 
ATOM     24  C   UNL     1      47.048   1.871   6.823  0.00  0.00    +0.000 A 
ATOM     25  C   UNL     1      46.425   1.128   7.819  0.00  0.00    +0.000 A 
ATOM     26  C   UNL     1      45.664   1.774   8.797  0.00  0.00    +0.000 A 
ENDBRANCH  19  21
ENDBRANCH  14  15
ENDBRANCH   1  14
TORSDOF 6
ENDMDL
MODEL 4
REMARK VINA RESULT:    -7.121      4.331      4.723
REMARK INTER + INTRA:         -10.478
REMARK INTER:                  -9.378
REMARK INTRA:                  -1.101
REMARK UNBOUND:                -1.068
REMARK  Name = 
REMARK  6 active torsions:
REMARK  status: ('A' for Active; 'I' for Inactive)
REMARK    1  A    between atoms: N_1  and  S_2
REMARK    2  A    between atoms: S_2  and  C_5
REMARK    3  A    between atoms: C_9  and  C_10
REMARK    4  A    between atoms: C_10  and  C_11
REMARK    5  A    between atoms: C_11  and  C_12
REMARK    6  A    between atoms: C_16  and  C_17
REMARK                            x       y       z     vdW  Elec       q    Type
REMARK                         _______ _______ _______ _____ _____    ______ ____
ROOT
ATOM      1  C   UNL     1      47.319   6.982  12.626  0.00  0.00    +0.000 C 
ENDROOT
BRANCH   1   6
ATOM      2  C   UNL     1      46.354  10.493  11.548  0.00  0.00    +0.000 A 
ATOM      3  C   UNL     1      47.596  11.062  11.256  0.00  0.00    +0.000 A 
ATOM      4  C   UNL     1      48.751  10.294  11.405  0.00  0.00    +0.000 A 
ATOM      5  C   UNL     1      48.664   8.975  11.851  0.00  0.00    +0.000 A 
ATOM      6  C   UNL     1      47.418   8.407  12.151  0.00  0.00    +0.000 A 
ATOM      7  C   UNL     1      46.260   9.176  12.001  0.00  0.00    +0.000 A 
BRANCH   2   8
ATOM      8  S   UNL     1      44.879  11.450  11.399  0.00  0.00    +0.000 S 
ATOM      9  O   UNL     1      44.466  11.486  10.017  0.00  0.00    +0.000 OA
ATOM     10  O   UNL     1      45.005  12.651  12.199  0.00  0.00    +0.000 OA
BRANCH   8  11
ATOM     11  N   UNL     1      43.757  10.492  12.196  0.00  0.00    +0.000 NA
ATOM     12  H   UNL     1      43.841   9.529  11.874  0.00  0.00    +0.000 HD
ATOM     13  H   UNL     1      42.820  10.884  12.090  0.00  0.00    +0.000 HD
ENDBRANCH   8  11
ENDBRANCH   2   8
ENDBRANCH   1   6
BRANCH   1  14
ATOM     14  C   UNL     1      45.976   6.670  13.308  0.00  0.00    +0.000 C 
BRANCH  14  15
ATOM     15  C   UNL     1      45.060   5.775  12.496  0.00  0.00    +0.000 A 
ATOM     16  C   UNL     1      43.702   5.683  12.815  0.00  0.00    +0.000 A 
ATOM     17  C   UNL     1      42.858   4.865  12.063  0.00  0.00    +0.000 A 
ATOM     18  C   UNL     1      43.356   4.142  10.974  0.00  0.00    +0.000 A 
ATOM     19  C   UNL     1      44.708   4.220  10.612  0.00  0.00    +0.000 A 
ATOM     20  C   UNL     1      45.541   5.015  11.420  0.00  0.00    +0.000 A 
BRANCH  19  21
ATOM     21  C   UNL     1      45.254   3.605   9.378  0.00  0.00    +0.000 A 
ATOM     22  C   UNL     1      45.827   4.398   8.368  0.00  0.00    +0.000 A 
ATOM     23  C   UNL     1      46.496   3.824   7.282  0.00  0.00    +0.000 A 
ATOM     24  C   UNL     1      46.610   2.441   7.184  0.00  0.00    +0.000 A 
ATOM     25  C   UNL     1      46.023   1.630   8.148  0.00  0.00    +0.000 A 
ATOM     26  C   UNL     1      45.338   2.207   9.221  0.00  0.00    +0.000 A 
ENDBRANCH  19  21
ENDBRANCH  14  15
ENDBRANCH   1  14
TORSDOF 6
ENDMDL
MODEL 5
REMARK VINA RESULT:    -7.032      1.872      2.323
REMARK INTER + INTRA:         -10.360
REMARK INTER:                  -9.446
REMARK INTRA:                  -0.915
REMARK UNBOUND:                -1.068
REMARK  Name = 
REMARK  6 active torsions:
REMARK  status: ('A' for Active; 'I' for Inactive)
REMARK    1  A    between atoms: N_1  and  S_2
REMARK    2  A    between atoms: S_2  and  C_5
REMARK    3  A    between atoms: C_9  and  C_10
REMARK    4  A    between atoms: C_10  and  C_11
REMARK    5  A    between atoms: C_11  and  C_12
REMARK    6  A    between atoms: C_16  and  C_17
REMARK                            x       y       z     vdW  Elec       q    Type
REMARK                         _______ _______ _______ _____ _____    ______ ____
ROOT
ATOM      1  C   UNL     1      47.640   6.904  12.247  0.00  0.00    +0.000 C 
ENDROOT
BRANCH   1   6
ATOM      2  C   UNL     1      48.303   5.978  15.870  0.00  0.00    +0.000 A 
ATOM      3  C   UNL     1      47.668   4.738  15.977  0.00  0.00    +0.000 A 
ATOM      4  C   UNL     1      47.028   4.200  14.860  0.00  0.00    +0.000 A 
ATOM      5  C   UNL     1      47.015   4.901  13.653  0.00  0.00    +0.000 A 
ATOM      6  C   UNL     1      47.646   6.148  13.549  0.00  0.00    +0.000 A 
ATOM      7  C   UNL     1      48.287   6.687  14.668  0.00  0.00    +0.000 A 
BRANCH   2   8
ATOM      8  S   UNL     1      49.093   6.697  17.274  0.00  0.00    +0.000 S 
ATOM      9  O   UNL     1      49.399   8.080  16.998  0.00  0.00    +0.000 OA
ATOM     10  O   UNL     1      50.083   5.775  17.791  0.00  0.00    +0.000 OA
BRANCH   8  11
ATOM     11  N   UNL     1      47.853   6.711  18.405  0.00  0.00    +0.000 NA
ATOM     12  H   UNL     1      47.134   7.372  18.114  0.00  0.00    +0.000 HD
ATOM     13  H   UNL     1      48.229   6.891  19.337  0.00  0.00    +0.000 HD
ENDBRANCH   8  11
ENDBRANCH   2   8
ENDBRANCH   1   6
BRANCH   1  14
ATOM     14  C   UNL     1      46.244   7.426  11.865  0.00  0.00    +0.000 C 
BRANCH  14  15
ATOM     15  C   UNL     1      45.325   6.371  11.281  0.00  0.00    +0.000 A 
ATOM     16  C   UNL     1      43.963   6.368  11.602  0.00  0.00    +0.000 A 
ATOM     17  C   UNL     1      43.116   5.402  11.059  0.00  0.00    +0.000 A 
ATOM     18  C   UNL     1      43.614   4.436  10.178  0.00  0.00    +0.000 A 
ATOM     19  C   UNL     1      44.969   4.415   9.819  0.00  0.00    +0.000 A 
ATOM     20  C   UNL     1      45.805   5.373  10.421  0.00  0.00    +0.000 A 
BRANCH  19  21
ATOM     21  C   UNL     1      45.517   3.519   8.771  0.00  0.00    +0.000 A 
ATOM     22  C   UNL     1      46.175   4.043   7.645  0.00  0.00    +0.000 A 
ATOM     23  C   UNL     1      46.843   3.212   6.739  0.00  0.00    +0.000 A 
ATOM     24  C   UNL     1      46.871   1.836   6.943  0.00  0.00    +0.000 A 
ATOM     25  C   UNL     1      46.200   1.285   8.029  0.00  0.00    +0.000 A 
ATOM     26  C   UNL     1      45.517   2.117   8.920  0.00  0.00    +0.000 A 
ENDBRANCH  19  21
ENDBRANCH  14  15
ENDBRANCH   1  14
TORSDOF 6
ENDMDL
MODEL 6
REMARK VINA RESULT:    -6.864      2.257      4.315
REMARK INTER + INTRA:         -10.139
REMARK INTER:                  -8.947
REMARK INTRA:                  -1.191
REMARK UNBOUND:                -1.068
REMARK  Name = 
REMARK  6 active torsions:
REMARK  status: ('A' for Active; 'I' for Inactive)
REMARK    1  A    between atoms: N_1  and  S_2
REMARK    2  A    between atoms: S_2  and  C_5
REMARK    3  A    between atoms: C_9  and  C_10
REMARK    4  A    between atoms: C_10  and  C_11
REMARK    5  A    between atoms: C_11  and  C_12
REMARK    6  A    between atoms: C_16  and  C_17
REMARK                            x       y       z     vdW  Elec       q    Type
REMARK                         _______ _______ _______ _____ _____    ______ ____
ROOT
ATOM      1  C   UNL     1      49.502   7.959  15.373  0.00  0.00    +0.000 C 
ENDROOT
BRANCH   1   6
ATOM      2  C   UNL     1      48.103   5.175  17.544  0.00  0.00    +0.000 A 
ATOM      3  C   UNL     1      47.688   5.872  18.681  0.00  0.00    +0.000 A 
ATOM      4  C   UNL     1      47.858   7.255  18.736  0.00  0.00    +0.000 A 
ATOM      5  C   UNL     1      48.447   7.932  17.667  0.00  0.00    +0.000 A 
ATOM      6  C   UNL     1      48.871   7.231  16.530  0.00  0.00    +0.000 A 
ATOM      7  C   UNL     1      48.700   5.845  16.475  0.00  0.00    +0.000 A 
BRANCH   2   8
ATOM      8  S   UNL     1      47.929   3.421  17.461  0.00  0.00    +0.000 S 
ATOM      9  O   UNL     1      48.873   2.889  16.508  0.00  0.00    +0.000 OA
ATOM     10  O   UNL     1      46.521   3.081  17.427  0.00  0.00    +0.000 OA
BRANCH   8  11
ATOM     11  N   UNL     1      48.474   2.943  18.974  0.00  0.00    +0.000 NA
ATOM     12  H   UNL     1      48.678   3.766  19.539  0.00  0.00    +0.000 HD
ATOM     13  H   UNL     1      49.262   2.301  18.877  0.00  0.00    +0.000 HD
ENDBRANCH   8  11
ENDBRANCH   2   8
ENDBRANCH   1   6
BRANCH   1  14
ATOM     14  C   UNL     1      49.261   7.260  14.023  0.00  0.00    +0.000 C 
BRANCH  14  15
ATOM     15  C   UNL     1      47.841   7.383  13.505  0.00  0.00    +0.000 A 
ATOM     16  C   UNL     1      47.229   8.638  13.419  0.00  0.00    +0.000 A 
ATOM     17  C   UNL     1      45.925   8.751  12.936  0.00  0.00    +0.000 A 
ATOM     18  C   UNL     1      45.222   7.616  12.518  0.00  0.00    +0.000 A 
ATOM     19  C   UNL     1      45.806   6.343  12.573  0.00  0.00    +0.000 A 
ATOM     20  C   UNL     1      47.103   6.258  13.110  0.00  0.00    +0.000 A 
BRANCH  19  21
ATOM     21  C   UNL     1      45.170   5.133  11.997  0.00  0.00    +0.000 A 
ATOM     22  C   UNL     1      44.498   4.210  12.818  0.00  0.00    +0.000 A 
ATOM     23  C   UNL     1      43.751   3.161  12.273  0.00  0.00    +0.000 A 
ATOM     24  C   UNL     1      43.656   3.013  10.893  0.00  0.00    +0.000 A 
ATOM     25  C   UNL     1      44.339   3.888  10.057  0.00  0.00    +0.000 A 
ATOM     26  C   UNL     1      45.100   4.924  10.605  0.00  0.00    +0.000 A 
ENDBRANCH  19  21
ENDBRANCH  14  15
ENDBRANCH   1  14
TORSDOF 6
ENDMDL
MODEL 7
REMARK VINA RESULT:    -6.704      2.729      4.867
REMARK INTER + INTRA:          -9.927
REMARK INTER:                  -8.637
REMARK INTRA:                  -1.290
REMARK UNBOUND:                -1.068
REMARK  Name = 
REMARK  6 active torsions:
REMARK  status: ('A' for Active; 'I' for Inactive)
REMARK    1  A    between atoms: N_1  and  S_2
REMARK    2  A    between atoms: S_2  and  C_5
REMARK    3  A    between atoms: C_9  and  C_10
REMARK    4  A    between atoms: C_10  and  C_11
REMARK    5  A    between atoms: C_11  and  C_12
REMARK    6  A    between atoms: C_16  and  C_17
REMARK                            x       y       z     vdW  Elec       q    Type
REMARK                         _______ _______ _______ _____ _____    ______ ____
ROOT
ATOM      1  C   UNL     1      49.272   8.283  15.903  0.00  0.00    +0.000 C 
ENDROOT
BRANCH   1   6
ATOM      2  C   UNL     1      48.035   4.977  17.302  0.00  0.00    +0.000 A 
ATOM      3  C   UNL     1      47.742   5.310  18.626  0.00  0.00    +0.000 A 
ATOM      4  C   UNL     1      47.941   6.621  19.061  0.00  0.00    +0.000 A 
ATOM      5  C   UNL     1      48.439   7.583  18.182  0.00  0.00    +0.000 A 
ATOM      6  C   UNL     1      48.740   7.246  16.855  0.00  0.00    +0.000 A 
ATOM      7  C   UNL     1      48.540   5.933  16.419  0.00  0.00    +0.000 A 
BRANCH   2   8
ATOM      8  S   UNL     1      47.823   3.320  16.733  0.00  0.00    +0.000 S 
ATOM      9  O   UNL     1      46.687   2.726  17.396  0.00  0.00    +0.000 OA
ATOM     10  O   UNL     1      49.113   2.664  16.675  0.00  0.00    +0.000 OA
BRANCH   8  11
ATOM     11  N   UNL     1      47.361   3.554  15.137  0.00  0.00    +0.000 NA
ATOM     12  H   UNL     1      47.515   4.527  14.876  0.00  0.00    +0.000 HD
ATOM     13  H   UNL     1      46.402   3.234  14.998  0.00  0.00    +0.000 HD
ENDBRANCH   8  11
ENDBRANCH   2   8
ENDBRANCH   1   6
BRANCH   1  14
ATOM     14  C   UNL     1      48.172   8.916  15.032  0.00  0.00    +0.000 C 
BRANCH  14  15
ATOM     15  C   UNL     1      47.972   8.236  13.693  0.00  0.00    +0.000 A 
ATOM     16  C   UNL     1      48.974   8.289  12.719  0.00  0.00    +0.000 A 
ATOM     17  C   UNL     1      48.792   7.656  11.489  0.00  0.00    +0.000 A 
ATOM     18  C   UNL     1      47.615   6.950  11.221  0.00  0.00    +0.000 A 
ATOM     19  C   UNL     1      46.593   6.860  12.177  0.00  0.00    +0.000 A 
ATOM     20  C   UNL     1      46.788   7.549  13.387  0.00  0.00    +0.000 A 
BRANCH  19  21
ATOM     21  C   UNL     1      45.399   5.996  12.008  0.00  0.00    +0.000 A 
ATOM     22  C   UNL     1      44.477   5.826  13.056  0.00  0.00    +0.000 A 
ATOM     23  C   UNL     1      43.265   5.156  12.858  0.00  0.00    +0.000 A 
ATOM     24  C   UNL     1      42.946   4.644  11.605  0.00  0.00    +0.000 A 
ATOM     25  C   UNL     1      43.853   4.766  10.558  0.00  0.00    +0.000 A 
ATOM     26  C   UNL     1      45.071   5.418  10.765  0.00  0.00    +0.000 A 
ENDBRANCH  19  21
ENDBRANCH  14  15
ENDBRANCH   1  14
TORSDOF 6
ENDMDL
MODEL 8
REMARK VINA RESULT:    -6.578      2.481      4.073
REMARK INTER + INTRA:          -9.760
REMARK INTER:                  -8.804
REMARK INTRA:                  -0.957
REMARK UNBOUND:                -1.068
REMARK  Name = 
REMARK  6 active torsions:
REMARK  status: ('A' for Active; 'I' for Inactive)
REMARK    1  A    between atoms: N_1  and  S_2
REMARK    2  A    between atoms: S_2  and  C_5
REMARK    3  A    between atoms: C_9  and  C_10
REMARK    4  A    between atoms: C_10  and  C_11
REMARK    5  A    between atoms: C_11  and  C_12
REMARK    6  A    between atoms: C_16  and  C_17
REMARK                            x       y       z     vdW  Elec       q    Type
REMARK                         _______ _______ _______ _____ _____    ______ ____
ROOT
ATOM      1  C   UNL     1      48.576   7.160  15.226  0.00  0.00    +0.000 C 
ENDROOT
BRANCH   1   6
ATOM      2  C   UNL     1      48.686   4.923  18.292  0.00  0.00    +0.000 A 
ATOM      3  C   UNL     1      48.034   3.773  17.840  0.00  0.00    +0.000 A 
ATOM      4  C   UNL     1      47.565   3.725  16.527  0.00  0.00    +0.000 A 
ATOM      5  C   UNL     1      47.737   4.821  15.681  0.00  0.00    +0.000 A 
ATOM      6  C   UNL     1      48.384   5.978  16.138  0.00  0.00    +0.000 A 
ATOM      7  C   UNL     1      48.854   6.026  17.453  0.00  0.00    +0.000 A 
BRANCH   2   8
ATOM      8  S   UNL     1      49.262   5.023  19.958  0.00  0.00    +0.000 S 
ATOM      9  O   UNL     1      48.754   6.227  20.571  0.00  0.00    +0.000 OA
ATOM     10  O   UNL     1      50.665   4.666  20.001  0.00  0.00    +0.000 OA
BRANCH   8  11
ATOM     11  N   UNL     1      48.448   3.750  20.687  0.00  0.00    +0.000 NA
ATOM     12  H   UNL     1      49.000   3.393  21.466  0.00  0.00    +0.000 HD
ATOM     13  H   UNL     1      48.208   3.042  19.992  0.00  0.00    +0.000 HD
ENDBRANCH   8  11
ENDBRANCH   2   8
ENDBRANCH   1   6
BRANCH   1  14
ATOM     14  C   UNL     1      48.631   6.767  13.740  0.00  0.00    +0.000 C 
BRANCH  14  15
ATOM     15  C   UNL     1      47.320   6.951  13.000  0.00  0.00    +0.000 A 
ATOM     16  C   UNL     1      46.630   8.164  13.081  0.00  0.00    +0.000 A 
ATOM     17  C   UNL     1      45.428   8.336  12.395  0.00  0.00    +0.000 A 
ATOM     18  C   UNL     1      44.907   7.304  11.607  0.00  0.00    +0.000 A 
ATOM     19  C   UNL     1      45.576   6.078  11.487  0.00  0.00    +0.000 A 
ATOM     20  C   UNL     1      46.760   5.921  12.230  0.00  0.00    +0.000 A 
BRANCH  19  21
ATOM     21  C   UNL     1      45.156   5.013  10.544  0.00  0.00    +0.000 A 
ATOM     22  C   UNL     1      45.549   5.047   9.195  0.00  0.00    +0.000 A 
ATOM     23  C   UNL     1      45.305   3.968   8.338  0.00  0.00    +0.000 A 
ATOM     24  C   UNL     1      44.665   2.828   8.814  0.00  0.00    +0.000 A 
ATOM     25  C   UNL     1      44.234   2.779  10.134  0.00  0.00    +0.000 A 
ATOM     26  C   UNL     1      44.462   3.867  10.982  0.00  0.00    +0.000 A 
ENDBRANCH  19  21
ENDBRANCH  14  15
ENDBRANCH   1  14
TORSDOF 6
ENDMDL
MODEL 9
REMARK VINA RESULT:    -6.432      3.804      7.404
REMARK INTER + INTRA:          -9.568
REMARK INTER:                  -8.409
REMARK INTRA:                  -1.159
REMARK UNBOUND:                -1.068
REMARK  Name = 
REMARK  6 active torsions:
REMARK  status: ('A' for Active; 'I' for Inactive)
REMARK    1  A    between atoms: N_1  and  S_2
REMARK    2  A    between atoms: S_2  and  C_5
REMARK    3  A    between atoms: C_9  and  C_10
REMARK    4  A    between atoms: C_10  and  C_11
REMARK    5  A    between atoms: C_11  and  C_12
REMARK    6  A    between atoms: C_16  and  C_17
REMARK                            x       y       z     vdW  Elec       q    Type
REMARK                         _______ _______ _______ _____ _____    ______ ____
ROOT
ATOM      1  C   UNL     1      48.037   7.108  12.432  0.00  0.00    +0.000 C 
ENDROOT
BRANCH   1   6
ATOM      2  C   UNL     1      44.892   5.217  11.457  0.00  0.00    +0.000 A 
ATOM      3  C   UNL     1      43.952   6.245  11.349  0.00  0.00    +0.000 A 
ATOM      4  C   UNL     1      44.350   7.561  11.589  0.00  0.00    +0.000 A 
ATOM      5  C   UNL     1      45.670   7.842  11.942  0.00  0.00    +0.000 A 
ATOM      6  C   UNL     1      46.610   6.808  12.057  0.00  0.00    +0.000 A 
ATOM      7  C   UNL     1      46.212   5.490  11.817  0.00  0.00    +0.000 A 
BRANCH   2   8
ATOM      8  S   UNL     1      44.410   3.540  11.190  0.00  0.00    +0.000 S 
ATOM      9  O   UNL     1      45.091   3.023  10.027  0.00  0.00    +0.000 OA
ATOM     10  O   UNL     1      42.977   3.421  11.363  0.00  0.00    +0.000 OA
BRANCH   8  11
ATOM     11  N   UNL     1      45.091   2.765  12.512  0.00  0.00    +0.000 NA
ATOM     12  H   UNL     1      45.467   3.458  13.158  0.00  0.00    +0.000 HD
ATOM     13  H   UNL     1      45.776   2.074  12.201  0.00  0.00    +0.000 HD
ENDBRANCH   8  11
ENDBRANCH   2   8
ENDBRANCH   1   6
BRANCH   1  14
ATOM     14  C   UNL     1      48.174   8.366  13.307  0.00  0.00    +0.000 C 
BRANCH  14  15
ATOM     15  C   UNL     1      48.400   8.078  14.778  0.00  0.00    +0.000 A 
ATOM     16  C   UNL     1      48.165   9.072  15.733  0.00  0.00    +0.000 A 
ATOM     17  C   UNL     1      48.365   8.805  17.088  0.00  0.00    +0.000 A 
ATOM     18  C   UNL     1      48.787   7.539  17.507  0.00  0.00    +0.000 A 
ATOM     19  C   UNL     1      49.018   6.510  16.581  0.00  0.00    +0.000 A 
ATOM     20  C   UNL     1      48.853   6.827  15.221  0.00  0.00    +0.000 A 
BRANCH  19  21
ATOM     21  C   UNL     1      49.310   5.112  16.979  0.00  0.00    +0.000 A 
ATOM     22  C   UNL     1      48.350   4.098  16.810  0.00  0.00    +0.000 A 
ATOM     23  C   UNL     1      48.668   2.752  17.019  0.00  0.00    +0.000 A 
ATOM     24  C   UNL     1      49.956   2.389  17.399  0.00  0.00    +0.000 A 
ATOM     25  C   UNL     1      50.917   3.372  17.607  0.00  0.00    +0.000 A 
ATOM     26  C   UNL     1      50.589   4.717  17.417  0.00  0.00    +0.000 A 
ENDBRANCH  19  21
ENDBRANCH  14  15
ENDBRANCH   1  14
TORSDOF 6
ENDMDL
