MODEL 1
REMARK VINA RESULT:    -7.592      0.000      0.000
REMARK INTER + INTRA:         -11.481
REMARK INTER:                 -10.476
REMARK INTRA:                  -1.004
REMARK UNBOUND:                -1.004
REMARK  Name = 
REMARK  8 active torsions:
REMARK  status: ('A' for Active; 'I' for Inactive)
REMARK    1  A    between atoms: C_1  and  C_2
REMARK    2  A    between atoms: C_5  and  C_6
REMARK    3  A    between atoms: C_6  and  C_7
REMARK    4  A    between atoms: C_7  and  O_8
REMARK    5  A    between atoms: O_8  and  C_9
REMARK    6  A    between atoms: C_12  and  C_13
REMARK    7  A    between atoms: C_19  and  C_20
REMARK    8  A    between atoms: C_20  and  N_21
REMARK                            x       y       z     vdW  Elec       q    Type
REMARK                         _______ _______ _______ _____ _____    ______ ____
ROOT
ATOM      1  C   UNL     1      43.651   2.850  11.862  0.00  0.00    +0.000 C 
ENDROOT
BRANCH   1   2
ATOM      2  C   UNL     1      43.533   3.988  12.877  0.00  0.00    +0.000 C 
BRANCH   2   7
ATOM      3  C   UNL     1      47.634   8.077  12.089  0.00  0.00    +0.000 C 
ATOM      4  C   UNL     1      46.546   7.052  12.260  0.00  0.00    +0.000 A 
ATOM      5  C   UNL     1      46.884   5.800  12.805  0.00  0.00    +0.000 A 
ATOM      6  C   UNL     1      45.918   4.810  12.997  0.00  0.00    +0.000 A 
ATOM      7  C   UNL     1      44.589   5.041  12.638  0.00  0.00    +0.000 A 
ATOM      8  C   UNL     1      44.246   6.291  12.104  0.00  0.00    +0.000 A 
ATOM      9  C   UNL     1      45.205   7.307  11.907  0.00  0.00    +0.000 A 
BRANCH   9  10
ATOM     10  C   UNL     1      44.735   8.642  11.368  0.00  0.00    +0.000 C 
BRANCH  10  11
ATOM     11  N   UNL     1      43.337   8.599  10.953  0.00  0.00    +0.000 NA
ATOM     12  H   UNL     1      42.882   7.819  11.424  0.00  0.00    +0.000 HD
ATOM     13  H   UNL     1      43.290   8.403   9.956  0.00  0.00    +0.000 HD
ENDBRANCH  10  11
ENDBRANCH   9  10
ENDBRANCH   2   7
ENDBRANCH   1   2
BRANCH   1  14
ATOM     14  O   UNL     1      43.377   3.330  10.540  0.00  0.00    +0.000 OA
BRANCH  14  15
ATOM     15  C   UNL     1      44.358   3.091   9.609  0.00  0.00    +0.000 A 
ATOM     16  C   UNL     1      44.817   1.829   9.227  0.00  0.00    +0.000 A 
ATOM     17  C   UNL     1      45.823   1.700   8.265  0.00  0.00    +0.000 A 
ATOM     18  C   UNL     1      46.381   2.831   7.664  0.00  0.00    +0.000 A 
ATOM     19  C   UNL     1      45.937   4.101   8.049  0.00  0.00    +0.000 A 
ATOM     20  C   UNL     1      44.929   4.225   9.018  0.00  0.00    +0.000 A 
BRANCH  18  21
ATOM     21  C   UNL     1      47.449   2.618   6.649  0.00  0.00    +0.000 C 
ATOM     22  N   UNL     1      47.318   3.255   5.448  0.00  0.00    +0.000 N 
ATOM     23  O   UNL     1      48.391   1.862   6.856  0.00  0.00    +0.000 OA
ATOM     24  H   UNL     1      46.450   3.674   5.147  0.00  0.00    +0.000 HD
ATOM     25  H   UNL     1      47.986   2.989   4.734  0.00  0.00    +0.000 HD
ENDBRANCH  18  21
ENDBRANCH  14  15
ENDBRANCH   1  14
TORSDOF 7
ENDMDL
MODEL 2
REMARK VINA RESULT:    -7.445      2.045      2.778
REMARK INTER + INTRA:         -11.278
REMARK INTER:                 -10.400
REMARK INTRA:                  -0.878
REMARK UNBOUND:                -1.004
REMARK  Name = 
REMARK  8 active torsions:
REMARK  status: ('A' for Active; 'I' for Inactive)
REMARK    1  A    between atoms: C_1  and  C_2
REMARK    2  A    between atoms: C_5  and  C_6
REMARK    3  A    between atoms: C_6  and  C_7
REMARK    4  A    between atoms: C_7  and  O_8
REMARK    5  A    between atoms: O_8  and  C_9
REMARK    6  A    between atoms: C_12  and  C_13
REMARK    7  A    between atoms: C_19  and  C_20
REMARK    8  A    between atoms: C_20  and  N_21
REMARK                            x       y       z     vdW  Elec       q    Type
REMARK                         _______ _______ _______ _____ _____    ______ ____
ROOT
ATOM      1  C   UNL     1      43.239   4.689  10.551  0.00  0.00    +0.000 C 
ENDROOT
BRANCH   1   2
ATOM      2  C   UNL     1      43.278   5.356  11.927  0.00  0.00    +0.000 C 
BRANCH   2   7
ATOM      3  C   UNL     1      48.771   6.875  13.227  0.00  0.00    +0.000 C 
ATOM      4  C   UNL     1      47.353   6.459  12.939  0.00  0.00    +0.000 A 
ATOM      5  C   UNL     1      46.669   7.092  11.884  0.00  0.00    +0.000 A 
ATOM      6  C   UNL     1      45.356   6.744  11.563  0.00  0.00    +0.000 A 
ATOM      7  C   UNL     1      44.685   5.762  12.294  0.00  0.00    +0.000 A 
ATOM      8  C   UNL     1      45.366   5.122  13.339  0.00  0.00    +0.000 A 
ATOM      9  C   UNL     1      46.696   5.454  13.677  0.00  0.00    +0.000 A 
BRANCH   9  10
ATOM     10  C   UNL     1      47.367   4.678  14.790  0.00  0.00    +0.000 C 
BRANCH  10  11
ATOM     11  N   UNL     1      47.403   3.246  14.510  0.00  0.00    +0.000 NA
ATOM     12  H   UNL     1      46.943   3.077  13.617  0.00  0.00    +0.000 HD
ATOM     13  H   UNL     1      46.858   2.753  15.215  0.00  0.00    +0.000 HD
ENDBRANCH  10  11
ENDBRANCH   9  10
ENDBRANCH   2   7
ENDBRANCH   1   2
BRANCH   1  14
ATOM     14  O   UNL     1      44.010   3.481  10.561  0.00  0.00    +0.000 OA
BRANCH  14  15
ATOM     15  C   UNL     1      44.846   3.304   9.486  0.00  0.00    +0.000 A 
ATOM     16  C   UNL     1      45.383   4.330   8.705  0.00  0.00    +0.000 A 
ATOM     17  C   UNL     1      46.227   4.037   7.630  0.00  0.00    +0.000 A 
ATOM     18  C   UNL     1      46.555   2.713   7.324  0.00  0.00    +0.000 A 
ATOM     19  C   UNL     1      46.012   1.678   8.093  0.00  0.00    +0.000 A 
ATOM     20  C   UNL     1      45.162   1.978   9.169  0.00  0.00    +0.000 A 
BRANCH  18  21
ATOM     21  C   UNL     1      47.458   2.476   6.166  0.00  0.00    +0.000 C 
ATOM     22  N   UNL     1      48.805   2.543   6.388  0.00  0.00    +0.000 N 
ATOM     23  O   UNL     1      47.020   2.275   5.039  0.00  0.00    +0.000 OA
ATOM     24  H   UNL     1      49.198   2.949   7.224  0.00  0.00    +0.000 HD
ATOM     25  H   UNL     1      49.389   2.509   5.561  0.00  0.00    +0.000 HD
ENDBRANCH  18  21
ENDBRANCH  14  15
ENDBRANCH   1  14
TORSDOF 7
ENDMDL
MODEL 3
REMARK VINA RESULT:    -7.004      1.746      2.562
REMARK INTER + INTRA:         -10.669
REMARK INTER:                  -9.909
REMARK INTRA:                  -0.760
REMARK UNBOUND:                -1.004
REMARK  Name = 
REMARK  8 active torsions:
REMARK  status: ('A' for Active; 'I' for Inactive)
REMARK    1  A    between atoms: C_1  and  C_2
REMARK    2  A    between atoms: C_5  and  C_6
REMARK    3  A    between atoms: C_6  and  C_7
REMARK    4  A    between atoms: C_7  and  O_8
REMARK    5  A    between atoms: O_8  and  C_9
REMARK    6  A    between atoms: C_12  and  C_13
REMARK    7  A    between atoms: C_19  and  C_20
REMARK    8  A    between atoms: C_20  and  N_21
REMARK                            x       y       z     vdW  Elec       q    Type
REMARK                         _______ _______ _______ _____ _____    ______ ____
ROOT
ATOM      1  C   UNL     1      43.527   4.683  11.260  0.00  0.00    +0.000 C 
ENDROOT
BRANCH   1   2
ATOM      2  C   UNL     1      44.691   4.645  12.251  0.00  0.00    +0.000 C 
BRANCH   2   7
ATOM      3  C   UNL     1      47.608   9.708  12.090  0.00  0.00    +0.000 C 
ATOM      4  C   UNL     1      46.900   8.381  12.154  0.00  0.00    +0.000 A 
ATOM      5  C   UNL     1      45.505   8.356  11.969  0.00  0.00    +0.000 A 
ATOM      6  C   UNL     1      44.792   7.157  12.007  0.00  0.00    +0.000 A 
ATOM      7  C   UNL     1      45.452   5.949  12.245  0.00  0.00    +0.000 A 
ATOM      8  C   UNL     1      46.843   5.968  12.420  0.00  0.00    +0.000 A 
ATOM      9  C   UNL     1      47.584   7.169  12.379  0.00  0.00    +0.000 A 
BRANCH   9  10
ATOM     10  C   UNL     1      49.088   7.089  12.532  0.00  0.00    +0.000 C 
BRANCH  10  11
ATOM     11  N   UNL     1      49.477   6.725  13.891  0.00  0.00    +0.000 NA
ATOM     12  H   UNL     1      48.908   5.937  14.193  0.00  0.00    +0.000 HD
ATOM     13  H   UNL     1      49.260   7.497  14.518  0.00  0.00    +0.000 HD
ENDBRANCH  10  11
ENDBRANCH   9  10
ENDBRANCH   2   7
ENDBRANCH   1   2
BRANCH   1  14
ATOM     14  O   UNL     1      43.463   3.457  10.519  0.00  0.00    +0.000 OA
BRANCH  14  15
ATOM     15  C   UNL     1      44.429   3.297   9.557  0.00  0.00    +0.000 A 
ATOM     16  C   UNL     1      45.016   4.330   8.823  0.00  0.00    +0.000 A 
ATOM     17  C   UNL     1      45.995   4.054   7.865  0.00  0.00    +0.000 A 
ATOM     18  C   UNL     1      46.410   2.740   7.631  0.00  0.00    +0.000 A 
ATOM     19  C   UNL     1      45.819   1.697   8.352  0.00  0.00    +0.000 A 
ATOM     20  C   UNL     1      44.833   1.980   9.310  0.00  0.00    +0.000 A 
BRANCH  18  21
ATOM     21  C   UNL     1      47.456   2.521   6.595  0.00  0.00    +0.000 C 
ATOM     22  N   UNL     1      47.318   3.178   5.405  0.00  0.00    +0.000 N 
ATOM     23  O   UNL     1      48.386   1.744   6.776  0.00  0.00    +0.000 OA
ATOM     24  H   UNL     1      46.455   3.619   5.125  0.00  0.00    +0.000 HD
ATOM     25  H   UNL     1      47.970   2.910   4.677  0.00  0.00    +0.000 HD
ENDBRANCH  18  21
ENDBRANCH  14  15
ENDBRANCH   1  14
TORSDOF 7
ENDMDL
MODEL 4
REMARK VINA RESULT:    -6.207      1.448      2.259
REMARK INTER + INTRA:          -9.570
REMARK INTER:                  -8.857
REMARK INTRA:                  -0.713
REMARK UNBOUND:                -1.004
REMARK  Name = 
REMARK  8 active torsions:
REMARK  status: ('A' for Active; 'I' for Inactive)
REMARK    1  A    between atoms: C_1  and  C_2
REMARK    2  A    between atoms: C_5  and  C_6
REMARK    3  A    between atoms: C_6  and  C_7
REMARK    4  A    between atoms: C_7  and  O_8
REMARK    5  A    between atoms: O_8  and  C_9
REMARK    6  A    between atoms: C_12  and  C_13
REMARK    7  A    between atoms: C_19  and  C_20
REMARK    8  A    between atoms: C_20  and  N_21
REMARK                            x       y       z     vdW  Elec       q    Type
REMARK                         _______ _______ _______ _____ _____    ______ ____
ROOT
ATOM      1  C   UNL     1      43.958   5.057  11.596  0.00  0.00    +0.000 C 
ENDROOT
BRANCH   1   2
ATOM      2  C   UNL     1      44.311   6.539  11.468  0.00  0.00    +0.000 C 
BRANCH   2   7
ATOM      3  C   UNL     1      49.608   7.571  13.712  0.00  0.00    +0.000 C 
ATOM      4  C   UNL     1      48.243   7.355  13.117  0.00  0.00    +0.000 A 
ATOM      5  C   UNL     1      47.778   6.036  12.966  0.00  0.00    +0.000 A 
ATOM      6  C   UNL     1      46.516   5.771  12.429  0.00  0.00    +0.000 A 
ATOM      7  C   UNL     1      45.690   6.818  12.016  0.00  0.00    +0.000 A 
ATOM      8  C   UNL     1      46.146   8.134  12.173  0.00  0.00    +0.000 A 
ATOM      9  C   UNL     1      47.414   8.425  12.720  0.00  0.00    +0.000 A 
BRANCH   9  10
ATOM     10  C   UNL     1      47.804   9.877  12.895  0.00  0.00    +0.000 C 
BRANCH  10  11
ATOM     11  N   UNL     1      46.732  10.781  12.489  0.00  0.00    +0.000 NA
ATOM     12  H   UNL     1      46.835  11.657  12.997  0.00  0.00    +0.000 HD
ATOM     13  H   UNL     1      45.838  10.385  12.770  0.00  0.00    +0.000 HD
ENDBRANCH  10  11
ENDBRANCH   9  10
ENDBRANCH   2   7
ENDBRANCH   1   2
BRANCH   1  14
ATOM     14  O   UNL     1      43.492   4.544  10.342  0.00  0.00    +0.000 OA
BRANCH  14  15
ATOM     15  C   UNL     1      44.458   4.009   9.526  0.00  0.00    +0.000 A 
ATOM     16  C   UNL     1      45.335   4.744   8.726  0.00  0.00    +0.000 A 
ATOM     17  C   UNL     1      46.286   4.096   7.932  0.00  0.00    +0.000 A 
ATOM     18  C   UNL     1      46.379   2.701   7.932  0.00  0.00    +0.000 A 
ATOM     19  C   UNL     1      45.497   1.956   8.721  0.00  0.00    +0.000 A 
ATOM     20  C   UNL     1      44.542   2.612   9.514  0.00  0.00    +0.000 A 
BRANCH  18  21
ATOM     21  C   UNL     1      47.414   2.079   7.062  0.00  0.00    +0.000 C 
ATOM     22  N   UNL     1      48.189   2.911   6.304  0.00  0.00    +0.000 N 
ATOM     23  O   UNL     1      47.543   0.863   6.985  0.00  0.00    +0.000 OA
ATOM     24  H   UNL     1      47.953   3.880   6.146  0.00  0.00    +0.000 HD
ATOM     25  H   UNL     1      48.791   2.456   5.628  0.00  0.00    +0.000 HD
ENDBRANCH  18  21
ENDBRANCH  14  15
ENDBRANCH   1  14
TORSDOF 7
ENDMDL
MODEL 5
REMARK VINA RESULT:    -6.170      5.782      7.409
REMARK INTER + INTRA:          -9.518
REMARK INTER:                  -9.069
REMARK INTRA:                  -0.450
REMARK UNBOUND:                -1.004
REMARK  Name = 
REMARK  8 active torsions:
REMARK  status: ('A' for Active; 'I' for Inactive)
REMARK    1  A    between atoms: C_1  and  C_2
REMARK    2  A    between atoms: C_5  and  C_6
REMARK    3  A    between atoms: C_6  and  C_7
REMARK    4  A    between atoms: C_7  and  O_8
REMARK    5  A    between atoms: O_8  and  C_9
REMARK    6  A    between atoms: C_12  and  C_13
REMARK    7  A    between atoms: C_19  and  C_20
REMARK    8  A    between atoms: C_20  and  N_21
REMARK                            x       y       z     vdW  Elec       q    Type
REMARK                         _______ _______ _______ _____ _____    ______ ____
ROOT
ATOM      1  C   UNL     1      47.275   4.349  15.890  0.00  0.00    +0.000 C 
ENDROOT
BRANCH   1   2
ATOM      2  C   UNL     1      47.702   3.213  16.821  0.00  0.00    +0.000 C 
BRANCH   2   7
ATOM      3  C   UNL     1      53.355   3.792  18.190  0.00  0.00    +0.000 C 
ATOM      4  C   UNL     1      51.904   3.590  17.844  0.00  0.00    +0.000 A 
ATOM      5  C   UNL     1      51.051   4.709  17.849  0.00  0.00    +0.000 A 
ATOM      6  C   UNL     1      49.698   4.589  17.529  0.00  0.00    +0.000 A 
ATOM      7  C   UNL     1      49.157   3.343  17.205  0.00  0.00    +0.000 A 
ATOM      8  C   UNL     1      50.005   2.227  17.188  0.00  0.00    +0.000 A 
ATOM      9  C   UNL     1      51.377   2.328  17.503  0.00  0.00    +0.000 A 
BRANCH   9  10
ATOM     10  C   UNL     1      52.226   1.078  17.413  0.00  0.00    +0.000 C 
BRANCH  10  11
ATOM     11  N   UNL     1      51.704   0.004  18.253  0.00  0.00    +0.000 NA
ATOM     12  H   UNL     1      50.804   0.294  18.630  0.00  0.00    +0.000 HD
ATOM     13  H   UNL     1      52.323  -0.128  19.050  0.00  0.00    +0.000 HD
ENDBRANCH  10  11
ENDBRANCH   9  10
ENDBRANCH   2   7
ENDBRANCH   1   2
BRANCH   1  14
ATOM     14  O   UNL     1      47.667   4.062  14.542  0.00  0.00    +0.000 OA
BRANCH  14  15
ATOM     15  C   UNL     1      46.686   4.223  13.594  0.00  0.00    +0.000 A 
ATOM     16  C   UNL     1      45.959   3.188  13.003  0.00  0.00    +0.000 A 
ATOM     17  C   UNL     1      44.978   3.465  12.046  0.00  0.00    +0.000 A 
ATOM     18  C   UNL     1      44.703   4.783  11.671  0.00  0.00    +0.000 A 
ATOM     19  C   UNL     1      45.436   5.826  12.249  0.00  0.00    +0.000 A 
ATOM     20  C   UNL     1      46.422   5.542  13.207  0.00  0.00    +0.000 A 
BRANCH  18  21
ATOM     21  C   UNL     1      43.647   5.003  10.647  0.00  0.00    +0.000 C 
ATOM     22  N   UNL     1      43.865   4.503   9.394  0.00  0.00    +0.000 N 
ATOM     23  O   UNL     1      42.635   5.649  10.894  0.00  0.00    +0.000 OA
ATOM     24  H   UNL     1      44.773   4.194   9.083  0.00  0.00    +0.000 HD
ATOM     25  H   UNL     1      43.193   4.780   8.688  0.00  0.00    +0.000 HD
ENDBRANCH  18  21
ENDBRANCH  14  15
ENDBRANCH   1  14
TORSDOF 7
ENDMDL
MODEL 6
REMARK VINA RESULT:    -5.889      4.455      6.745
REMARK INTER + INTRA:          -9.131
REMARK INTER:                  -8.414
REMARK INTRA:                  -0.718
REMARK UNBOUND:                -1.004
REMARK  Name = 
REMARK  8 active torsions:
REMARK  status: ('A' for Active; 'I' for Inactive)
REMARK    1  A    between atoms: C_1  and  C_2
REMARK    2  A    between atoms: C_5  and  C_6
REMARK    3  A    between atoms: C_6  and  C_7
REMARK    4  A    between atoms: C_7  and  O_8
REMARK    5  A    between atoms: O_8  and  C_9
REMARK    6  A    between atoms: C_12  and  C_13
REMARK    7  A    between atoms: C_19  and  C_20
REMARK    8  A    between atoms: C_20  and  N_21
REMARK                            x       y       z     vdW  Elec       q    Type
REMARK                         _______ _______ _______ _____ _____    ______ ____
ROOT
ATOM      1  C   UNL     1      48.628   7.324  13.939  0.00  0.00    +0.000 C 
ENDROOT
BRANCH   1   2
ATOM      2  C   UNL     1      49.683   7.121  15.027  0.00  0.00    +0.000 C 
BRANCH   2   7
ATOM      3  C   UNL     1      47.312   5.934  20.236  0.00  0.00    +0.000 C 
ATOM      4  C   UNL     1      47.907   6.191  18.878  0.00  0.00    +0.000 A 
ATOM      5  C   UNL     1      48.248   7.512  18.535  0.00  0.00    +0.000 A 
ATOM      6  C   UNL     1      48.813   7.814  17.294  0.00  0.00    +0.000 A 
ATOM      7  C   UNL     1      49.040   6.805  16.356  0.00  0.00    +0.000 A 
ATOM      8  C   UNL     1      48.710   5.486  16.698  0.00  0.00    +0.000 A 
ATOM      9  C   UNL     1      48.145   5.158  17.948  0.00  0.00    +0.000 A 
BRANCH   9  10
ATOM     10  C   UNL     1      47.864   3.701  18.248  0.00  0.00    +0.000 C 
BRANCH  10  11
ATOM     11  N   UNL     1      46.689   3.215  17.532  0.00  0.00    +0.000 NA
ATOM     12  H   UNL     1      46.056   3.997  17.377  0.00  0.00    +0.000 HD
ATOM     13  H   UNL     1      46.190   2.551  18.120  0.00  0.00    +0.000 HD
ENDBRANCH  10  11
ENDBRANCH   9  10
ENDBRANCH   2   7
ENDBRANCH   1   2
BRANCH   1  14
ATOM     14  O   UNL     1      48.446   6.116  13.189  0.00  0.00    +0.000 OA
BRANCH  14  15
ATOM     15  C   UNL     1      47.146   5.805  12.876  0.00  0.00    +0.000 A 
ATOM     16  C   UNL     1      46.299   5.007  13.648  0.00  0.00    +0.000 A 
ATOM     17  C   UNL     1      44.988   4.755  13.234  0.00  0.00    +0.000 A 
ATOM     18  C   UNL     1      44.500   5.303  12.045  0.00  0.00    +0.000 A 
ATOM     19  C   UNL     1      45.345   6.093  11.258  0.00  0.00    +0.000 A 
ATOM     20  C   UNL     1      46.662   6.340  11.676  0.00  0.00    +0.000 A 
BRANCH  18  21
ATOM     21  C   UNL     1      43.095   4.991  11.667  0.00  0.00    +0.000 C 
ATOM     22  N   UNL     1      42.186   6.010  11.710  0.00  0.00    +0.000 N 
ATOM     23  O   UNL     1      42.746   3.854  11.372  0.00  0.00    +0.000 OA
ATOM     24  H   UNL     1      42.370   6.883  12.181  0.00  0.00    +0.000 HD
ATOM     25  H   UNL     1      41.218   5.741  11.576  0.00  0.00    +0.000 HD
ENDBRANCH  18  21
ENDBRANCH  14  15
ENDBRANCH   1  14
TORSDOF 7
ENDMDL
MODEL 7
REMARK VINA RESULT:    -5.725      4.601      6.397
REMARK INTER + INTRA:          -8.904
REMARK INTER:                  -8.221
REMARK INTRA:                  -0.683
REMARK UNBOUND:                -1.004
REMARK  Name = 
REMARK  8 active torsions:
REMARK  status: ('A' for Active; 'I' for Inactive)
REMARK    1  A    between atoms: C_1  and  C_2
REMARK    2  A    between atoms: C_5  and  C_6
REMARK    3  A    between atoms: C_6  and  C_7
REMARK    4  A    between atoms: C_7  and  O_8
REMARK    5  A    between atoms: O_8  and  C_9
REMARK    6  A    between atoms: C_12  and  C_13
REMARK    7  A    between atoms: C_19  and  C_20
REMARK    8  A    between atoms: C_20  and  N_21
REMARK                            x       y       z     vdW  Elec       q    Type
REMARK                         _______ _______ _______ _____ _____    ______ ____
ROOT
ATOM      1  C   UNL     1      48.570   6.723  14.034  0.00  0.00    +0.000 C 
ENDROOT
BRANCH   1   2
ATOM      2  C   UNL     1      48.881   7.600  15.247  0.00  0.00    +0.000 C 
BRANCH   2   7
ATOM      3  C   UNL     1      48.887   4.483  20.192  0.00  0.00    +0.000 C 
ATOM      4  C   UNL     1      48.854   5.248  18.896  0.00  0.00    +0.000 A 
ATOM      5  C   UNL     1      49.269   6.592  18.901  0.00  0.00    +0.000 A 
ATOM      6  C   UNL     1      49.271   7.353  17.730  0.00  0.00    +0.000 A 
ATOM      7  C   UNL     1      48.846   6.793  16.523  0.00  0.00    +0.000 A 
ATOM      8  C   UNL     1      48.442   5.451  16.512  0.00  0.00    +0.000 A 
ATOM      9  C   UNL     1      48.438   4.663  17.683  0.00  0.00    +0.000 A 
BRANCH   9  10
ATOM     10  C   UNL     1      48.029   3.210  17.568  0.00  0.00    +0.000 C 
BRANCH  10  11
ATOM     11  N   UNL     1      46.580   3.056  17.499  0.00  0.00    +0.000 NA
ATOM     12  H   UNL     1      46.147   3.946  17.740  0.00  0.00    +0.000 HD
ATOM     13  H   UNL     1      46.281   2.388  18.206  0.00  0.00    +0.000 HD
ENDBRANCH  10  11
ENDBRANCH   9  10
ENDBRANCH   2   7
ENDBRANCH   1   2
BRANCH   1  14
ATOM     14  O   UNL     1      47.340   7.133  13.424  0.00  0.00    +0.000 OA
BRANCH  14  15
ATOM     15  C   UNL     1      46.593   6.125  12.864  0.00  0.00    +0.000 A 
ATOM     16  C   UNL     1      46.261   4.923  13.493  0.00  0.00    +0.000 A 
ATOM     17  C   UNL     1      45.491   3.963  12.829  0.00  0.00    +0.000 A 
ATOM     18  C   UNL     1      45.036   4.193  11.528  0.00  0.00    +0.000 A 
ATOM     19  C   UNL     1      45.374   5.389  10.885  0.00  0.00    +0.000 A 
ATOM     20  C   UNL     1      46.150   6.348  11.555  0.00  0.00    +0.000 A 
BRANCH  18  21
ATOM     21  C   UNL     1      44.223   3.126  10.883  0.00  0.00    +0.000 C 
ATOM     22  N   UNL     1      44.813   2.389   9.895  0.00  0.00    +0.000 N 
ATOM     23  O   UNL     1      43.050   2.940  11.186  0.00  0.00    +0.000 OA
ATOM     24  H   UNL     1      45.672   2.670   9.447  0.00  0.00    +0.000 HD
ATOM     25  H   UNL     1      44.198   1.763   9.388  0.00  0.00    +0.000 HD
ENDBRANCH  18  21
ENDBRANCH  14  15
ENDBRANCH   1  14
TORSDOF 7
ENDMDL
MODEL 8
REMARK VINA RESULT:    -5.567      5.700      7.427
REMARK INTER + INTRA:          -8.686
REMARK INTER:                  -8.294
REMARK INTRA:                  -0.392
REMARK UNBOUND:                -1.004
REMARK  Name = 
REMARK  8 active torsions:
REMARK  status: ('A' for Active; 'I' for Inactive)
REMARK    1  A    between atoms: C_1  and  C_2
REMARK    2  A    between atoms: C_5  and  C_6
REMARK    3  A    between atoms: C_6  and  C_7
REMARK    4  A    between atoms: C_7  and  O_8
REMARK    5  A    between atoms: O_8  and  C_9
REMARK    6  A    between atoms: C_12  and  C_13
REMARK    7  A    between atoms: C_19  and  C_20
REMARK    8  A    between atoms: C_20  and  N_21
REMARK                            x       y       z     vdW  Elec       q    Type
REMARK                         _______ _______ _______ _____ _____    ______ ____
ROOT
ATOM      1  C   UNL     1      47.553   3.606  15.853  0.00  0.00    +0.000 C 
ENDROOT
BRANCH   1   2
ATOM      2  C   UNL     1      48.410   2.656  16.690  0.00  0.00    +0.000 C 
BRANCH   2   7
ATOM      3  C   UNL     1      51.752   5.489  20.559  0.00  0.00    +0.000 C 
ATOM      4  C   UNL     1      50.849   4.786  19.582  0.00  0.00    +0.000 A 
ATOM      5  C   UNL     1      51.435   4.107  18.497  0.00  0.00    +0.000 A 
ATOM      6  C   UNL     1      50.651   3.428  17.561  0.00  0.00    +0.000 A 
ATOM      7  C   UNL     1      49.260   3.419  17.678  0.00  0.00    +0.000 A 
ATOM      8  C   UNL     1      48.673   4.085  18.762  0.00  0.00    +0.000 A 
ATOM      9  C   UNL     1      49.447   4.772  19.723  0.00  0.00    +0.000 A 
BRANCH   9  10
ATOM     10  C   UNL     1      48.730   5.425  20.886  0.00  0.00    +0.000 C 
BRANCH  10  11
ATOM     11  N   UNL     1      47.848   4.488  21.576  0.00  0.00    +0.000 NA
ATOM     12  H   UNL     1      48.304   3.578  21.612  0.00  0.00    +0.000 HD
ATOM     13  H   UNL     1      46.999   4.365  21.030  0.00  0.00    +0.000 HD
ENDBRANCH  10  11
ENDBRANCH   9  10
ENDBRANCH   2   7
ENDBRANCH   1   2
BRANCH   1  14
ATOM     14  O   UNL     1      47.543   3.192  14.480  0.00  0.00    +0.000 OA
BRANCH  14  15
ATOM     15  C   UNL     1      46.611   3.809  13.683  0.00  0.00    +0.000 A 
ATOM     16  C   UNL     1      45.803   3.167  12.743  0.00  0.00    +0.000 A 
ATOM     17  C   UNL     1      44.882   3.895  11.983  0.00  0.00    +0.000 A 
ATOM     18  C   UNL     1      44.750   5.275  12.157  0.00  0.00    +0.000 A 
ATOM     19  C   UNL     1      45.564   5.929  13.089  0.00  0.00    +0.000 A 
ATOM     20  C   UNL     1      46.489   5.194  13.847  0.00  0.00    +0.000 A 
BRANCH  18  21
ATOM     21  C   UNL     1      43.750   5.984  11.313  0.00  0.00    +0.000 C 
ATOM     22  N   UNL     1      43.794   7.350  11.290  0.00  0.00    +0.000 N 
ATOM     23  O   UNL     1      42.884   5.377  10.695  0.00  0.00    +0.000 OA
ATOM     24  H   UNL     1      44.314   7.888  11.967  0.00  0.00    +0.000 HD
ATOM     25  H   UNL     1      43.025   7.806  10.815  0.00  0.00    +0.000 HD
ENDBRANCH  18  21
ENDBRANCH  14  15
ENDBRANCH   1  14
TORSDOF 7
ENDMDL
MODEL 9
REMARK VINA RESULT:    -5.510      5.390      7.686
REMARK INTER + INTRA:          -8.607
REMARK INTER:                  -7.886
REMARK INTRA:                  -0.721
REMARK UNBOUND:                -1.004
REMARK  Name = 
REMARK  8 active torsions:
REMARK  status: ('A' for Active; 'I' for Inactive)
REMARK    1  A    between atoms: C_1  and  C_2
REMARK    2  A    between atoms: C_5  and  C_6
REMARK    3  A    between atoms: C_6  and  C_7
REMARK    4  A    between atoms: C_7  and  O_8
REMARK    5  A    between atoms: O_8  and  C_9
REMARK    6  A    between atoms: C_12  and  C_13
REMARK    7  A    between atoms: C_19  and  C_20
REMARK    8  A    between atoms: C_20  and  N_21
REMARK                            x       y       z     vdW  Elec       q    Type
REMARK                         _______ _______ _______ _____ _____    ______ ____
ROOT
ATOM      1  C   UNL     1      48.495   6.578  15.534  0.00  0.00    +0.000 C 
ENDROOT
BRANCH   1   2
ATOM      2  C   UNL     1      48.107   5.783  16.781  0.00  0.00    +0.000 C 
BRANCH   2   7
ATOM      3  C   UNL     1      51.485   1.079  17.570  0.00  0.00    +0.000 C 
ATOM      4  C   UNL     1      50.659   2.321  17.370  0.00  0.00    +0.000 A 
ATOM      5  C   UNL     1      49.343   2.181  16.891  0.00  0.00    +0.000 A 
ATOM      6  C   UNL     1      48.524   3.294  16.694  0.00  0.00    +0.000 A 
ATOM      7  C   UNL     1      49.001   4.579  16.958  0.00  0.00    +0.000 A 
ATOM      8  C   UNL     1      50.308   4.722  17.444  0.00  0.00    +0.000 A 
ATOM      9  C   UNL     1      51.151   3.610  17.657  0.00  0.00    +0.000 A 
BRANCH   9  10
ATOM     10  C   UNL     1      52.531   3.856  18.229  0.00  0.00    +0.000 C 
BRANCH  10  11
ATOM     11  N   UNL     1      52.532   3.810  19.688  0.00  0.00    +0.000 NA
ATOM     12  H   UNL     1      51.741   3.247  19.996  0.00  0.00    +0.000 HD
ATOM     13  H   UNL     1      52.379   4.748  20.051  0.00  0.00    +0.000 HD
ENDBRANCH  10  11
ENDBRANCH   9  10
ENDBRANCH   2   7
ENDBRANCH   1   2
BRANCH   1  14
ATOM     14  O   UNL     1      48.374   5.760  14.363  0.00  0.00    +0.000 OA
BRANCH  14  15
ATOM     15  C   UNL     1      47.126   5.729  13.790  0.00  0.00    +0.000 A 
ATOM     16  C   UNL     1      46.253   4.639  13.818  0.00  0.00    +0.000 A 
ATOM     17  C   UNL     1      45.001   4.716  13.201  0.00  0.00    +0.000 A 
ATOM     18  C   UNL     1      44.598   5.888  12.554  0.00  0.00    +0.000 A 
ATOM     19  C   UNL     1      45.471   6.981  12.511  0.00  0.00    +0.000 A 
ATOM     20  C   UNL     1      46.729   6.897  13.128  0.00  0.00    +0.000 A 
BRANCH  18  21
ATOM     21  C   UNL     1      43.252   5.898  11.920  0.00  0.00    +0.000 C 
ATOM     22  N   UNL     1      42.899   7.004  11.200  0.00  0.00    +0.000 N 
ATOM     23  O   UNL     1      42.464   4.972  12.070  0.00  0.00    +0.000 OA
ATOM     24  H   UNL     1      43.404   7.876  11.260  0.00  0.00    +0.000 HD
ATOM     25  H   UNL     1      41.934   7.038  10.892  0.00  0.00    +0.000 HD
ENDBRANCH  18  21
ENDBRANCH  14  15
ENDBRANCH   1  14
TORSDOF 7
ENDMDL
