MODEL 1
REMARK VINA RESULT:    -8.573      0.000      0.000
REMARK INTER + INTRA:         -12.483
REMARK INTER:                 -11.580
REMARK INTRA:                  -0.904
REMARK UNBOUND:                -0.904
REMARK  Name = 
REMARK  6 active torsions:
REMARK  status: ('A' for Active; 'I' for Inactive)
REMARK    1  A    between atoms: C_2  and  C_19
REMARK    2  A    between atoms: N_3  and  C_4
REMARK    3  A    between atoms: C_4  and  C_5
REMARK    4  A    between atoms: C_8  and  O_9
REMARK    5  A    between atoms: O_9  and  C_10
REMARK    6  A    between atoms: C_10  and  C_11
REMARK                            x       y       z     vdW  Elec       q    Type
REMARK                         _______ _______ _______ _____ _____    ______ ____
ROOT
ATOM      1  O   UNL     1      46.942   3.192  13.941  0.00  0.00    +0.000 OA
ATOM      2  C   UNL     1      46.671   4.339  14.327  0.00  0.00    +0.000 C 
ATOM      3  N   UNL     1      45.465   4.934  14.085  0.00  0.00    +0.000 N 
ATOM      4  H   UNL     1      45.311   5.897  14.372  0.00  0.00    +0.000 HD
ENDROOT
BRANCH   2   5
ATOM      5  C   UNL     1      47.613   5.110  15.139  0.00  0.00    +0.000 A 
ATOM      6  C   UNL     1      48.320   6.195  14.641  0.00  0.00    +0.000 A 
ATOM      7  S   UNL     1      49.382   6.890  15.790  0.00  0.00    +0.000 S 
ATOM      8  C   UNL     1      48.887   5.795  16.996  0.00  0.00    +0.000 A 
ATOM      9  N   UNL     1      49.420   5.825  18.248  0.00  0.00    +0.000 NA
ATOM     10  C   UNL     1      48.920   4.966  19.063  0.00  0.00    +0.000 A 
ATOM     11  N   UNL     1      47.919   4.073  18.748  0.00  0.00    +0.000 N 
ATOM     12  C   UNL     1      47.382   3.978  17.496  0.00  0.00    +0.000 A 
ATOM     13  O   UNL     1      46.553   3.095  17.237  0.00  0.00    +0.000 OA
ATOM     14  C   UNL     1      47.919   4.918  16.535  0.00  0.00    +0.000 A 
ATOM     15  H   UNL     1      47.572   3.420  19.429  0.00  0.00    +0.000 HD
ENDBRANCH   2   5
BRANCH   3  16
ATOM     16  C   UNL     1      44.448   4.306  13.286  0.00  0.00    +0.000 C 
BRANCH  16  17
ATOM     17  C   UNL     1      44.756   4.295  11.809  0.00  0.00    +0.000 A 
ATOM     18  C   UNL     1      44.420   3.185  11.025  0.00  0.00    +0.000 A 
ATOM     19  C   UNL     1      44.652   3.167   9.639  0.00  0.00    +0.000 A 
ATOM     20  C   UNL     1      45.203   4.296   9.018  0.00  0.00    +0.000 A 
ATOM     21  C   UNL     1      45.542   5.395   9.801  0.00  0.00    +0.000 A 
ATOM     22  C   UNL     1      45.354   5.396  11.178  0.00  0.00    +0.000 A 
BRANCH  20  23
ATOM     23  O   UNL     1      45.436   4.309   7.660  0.00  0.00    +0.000 OA
BRANCH  23  24
ATOM     24  C   UNL     1      46.826   4.093   7.310  0.00  0.00    +0.000 C 
BRANCH  24  25
ATOM     25  C   UNL     1      47.006   2.788   6.579  0.00  0.00    +0.000 A 
ATOM     26  C   UNL     1      47.108   1.577   7.263  0.00  0.00    +0.000 A 
ATOM     27  C   UNL     1      47.241   0.410   6.531  0.00  0.00    +0.000 A 
ATOM     28  N   UNL     1      47.268   0.364   5.183  0.00  0.00    +0.000 NA
ATOM     29  C   UNL     1      47.154   1.543   4.538  0.00  0.00    +0.000 A 
ATOM     30  C   UNL     1      47.013   2.763   5.179  0.00  0.00    +0.000 A 
ENDBRANCH  24  25
ENDBRANCH  23  24
ENDBRANCH  20  23
ENDBRANCH  16  17
ENDBRANCH   3  16
TORSDOF 6
ENDMDL
MODEL 2
REMARK VINA RESULT:    -8.243      1.793      2.659
REMARK INTER + INTRA:         -12.038
REMARK INTER:                 -10.861
REMARK INTRA:                  -1.177
REMARK UNBOUND:                -0.904
REMARK  Name = 
REMARK  6 active torsions:
REMARK  status: ('A' for Active; 'I' for Inactive)
REMARK    1  A    between atoms: C_2  and  C_19
REMARK    2  A    between atoms: N_3  and  C_4
REMARK    3  A    between atoms: C_4  and  C_5
REMARK    4  A    between atoms: C_8  and  O_9
REMARK    5  A    between atoms: O_9  and  C_10
REMARK    6  A    between atoms: C_10  and  C_11
REMARK                            x       y       z     vdW  Elec       q    Type
REMARK                         _______ _______ _______ _____ _____    ______ ____
ROOT
ATOM      1  O   UNL     1      49.238   6.759  13.476  0.00  0.00    +0.000 OA
ATOM      2  C   UNL     1      48.496   6.827  14.466  0.00  0.00    +0.000 C 
ATOM      3  N   UNL     1      47.221   7.316  14.402  0.00  0.00    +0.000 N 
ATOM      4  H   UNL     1      46.671   7.404  15.252  0.00  0.00    +0.000 HD
ENDROOT
BRANCH   2   5
ATOM      5  C   UNL     1      48.919   6.315  15.770  0.00  0.00    +0.000 A 
ATOM      6  C   UNL     1      49.872   6.950  16.553  0.00  0.00    +0.000 A 
ATOM      7  S   UNL     1      50.208   6.117  18.011  0.00  0.00    +0.000 S 
ATOM      8  C   UNL     1      49.053   4.917  17.659  0.00  0.00    +0.000 A 
ATOM      9  N   UNL     1      48.834   3.871  18.502  0.00  0.00    +0.000 NA
ATOM     10  C   UNL     1      47.904   3.068  18.125  0.00  0.00    +0.000 A 
ATOM     11  N   UNL     1      47.155   3.212  16.977  0.00  0.00    +0.000 N 
ATOM     12  C   UNL     1      47.366   4.222  16.082  0.00  0.00    +0.000 A 
ATOM     13  O   UNL     1      46.733   4.256  15.018  0.00  0.00    +0.000 OA
ATOM     14  C   UNL     1      48.412   5.151  16.453  0.00  0.00    +0.000 A 
ATOM     15  H   UNL     1      46.443   2.546  16.734  0.00  0.00    +0.000 HD
ENDBRANCH   2   5
BRANCH   3  16
ATOM     16  C   UNL     1      46.674   7.871  13.193  0.00  0.00    +0.000 C 
BRANCH  16  17
ATOM     17  C   UNL     1      45.991   6.854  12.312  0.00  0.00    +0.000 A 
ATOM     18  C   UNL     1      46.485   6.583  11.031  0.00  0.00    +0.000 A 
ATOM     19  C   UNL     1      45.898   5.607  10.208  0.00  0.00    +0.000 A 
ATOM     20  C   UNL     1      44.813   4.863  10.689  0.00  0.00    +0.000 A 
ATOM     21  C   UNL     1      44.319   5.138  11.961  0.00  0.00    +0.000 A 
ATOM     22  C   UNL     1      44.872   6.135  12.757  0.00  0.00    +0.000 A 
BRANCH  20  23
ATOM     23  O   UNL     1      44.221   3.895   9.906  0.00  0.00    +0.000 OA
BRANCH  23  24
ATOM     24  C   UNL     1      44.467   4.070   8.488  0.00  0.00    +0.000 C 
BRANCH  24  25
ATOM     25  C   UNL     1      45.528   3.119   7.999  0.00  0.00    +0.000 A 
ATOM     26  C   UNL     1      46.559   3.546   7.162  0.00  0.00    +0.000 A 
ATOM     27  C   UNL     1      47.521   2.630   6.773  0.00  0.00    +0.000 A 
ATOM     28  N   UNL     1      47.534   1.338   7.163  0.00  0.00    +0.000 NA
ATOM     29  C   UNL     1      46.537   0.947   7.984  0.00  0.00    +0.000 A 
ATOM     30  C   UNL     1      45.532   1.788   8.432  0.00  0.00    +0.000 A 
ENDBRANCH  24  25
ENDBRANCH  23  24
ENDBRANCH  20  23
ENDBRANCH  16  17
ENDBRANCH   3  16
TORSDOF 6
ENDMDL
MODEL 3
REMARK VINA RESULT:    -7.753      3.100      4.180
REMARK INTER + INTRA:         -11.376
REMARK INTER:                 -10.738
REMARK INTRA:                  -0.638
REMARK UNBOUND:                -0.904
REMARK  Name = 
REMARK  6 active torsions:
REMARK  status: ('A' for Active; 'I' for Inactive)
REMARK    1  A    between atoms: C_2  and  C_19
REMARK    2  A    between atoms: N_3  and  C_4
REMARK    3  A    between atoms: C_4  and  C_5
REMARK    4  A    between atoms: C_8  and  O_9
REMARK    5  A    between atoms: O_9  and  C_10
REMARK    6  A    between atoms: C_10  and  C_11
REMARK                            x       y       z     vdW  Elec       q    Type
REMARK                         _______ _______ _______ _____ _____    ______ ____
ROOT
ATOM      1  O   UNL     1      45.070   4.478  12.518  0.00  0.00    +0.000 OA
ATOM      2  C   UNL     1      45.066   5.379  11.666  0.00  0.00    +0.000 C 
ATOM      3  N   UNL     1      44.587   5.195  10.399  0.00  0.00    +0.000 N 
ATOM      4  H   UNL     1      44.657   5.947   9.718  0.00  0.00    +0.000 HD
ENDROOT
BRANCH   2   5
ATOM      5  C   UNL     1      45.513   6.734  11.989  0.00  0.00    +0.000 A 
ATOM      6  C   UNL     1      44.794   7.867  11.635  0.00  0.00    +0.000 A 
ATOM      7  S   UNL     1      45.564   9.324  12.100  0.00  0.00    +0.000 S 
ATOM      8  C   UNL     1      46.850   8.480  12.830  0.00  0.00    +0.000 A 
ATOM      9  N   UNL     1      47.886   9.134  13.421  0.00  0.00    +0.000 NA
ATOM     10  C   UNL     1      48.761   8.366  13.966  0.00  0.00    +0.000 A 
ATOM     11  N   UNL     1      48.698   6.990  13.986  0.00  0.00    +0.000 N 
ATOM     12  C   UNL     1      47.699   6.289  13.371  0.00  0.00    +0.000 A 
ATOM     13  O   UNL     1      47.737   5.051  13.333  0.00  0.00    +0.000 OA
ATOM     14  C   UNL     1      46.691   7.107  12.731  0.00  0.00    +0.000 A 
ATOM     15  H   UNL     1      49.418   6.443  14.425  0.00  0.00    +0.000 HD
ENDBRANCH   2   5
BRANCH   3  16
ATOM     16  C   UNL     1      44.132   3.914   9.931  0.00  0.00    +0.000 C 
BRANCH  16  17
ATOM     17  C   UNL     1      45.062   3.265   8.936  0.00  0.00    +0.000 A 
ATOM     18  C   UNL     1      45.777   4.047   8.022  0.00  0.00    +0.000 A 
ATOM     19  C   UNL     1      46.686   3.475   7.117  0.00  0.00    +0.000 A 
ATOM     20  C   UNL     1      46.909   2.091   7.147  0.00  0.00    +0.000 A 
ATOM     21  C   UNL     1      46.192   1.314   8.052  0.00  0.00    +0.000 A 
ATOM     22  C   UNL     1      45.260   1.876   8.917  0.00  0.00    +0.000 A 
BRANCH  20  23
ATOM     23  O   UNL     1      47.800   1.502   6.276  0.00  0.00    +0.000 OA
BRANCH  23  24
ATOM     24  C   UNL     1      47.628   1.928   4.900  0.00  0.00    +0.000 C 
BRANCH  24  25
ATOM     25  C   UNL     1      46.967   0.853   4.077  0.00  0.00    +0.000 A 
ATOM     26  C   UNL     1      47.200  -0.500   4.323  0.00  0.00    +0.000 A 
ATOM     27  C   UNL     1      46.537  -1.439   3.551  0.00  0.00    +0.000 A 
ATOM     28  N   UNL     1      45.661  -1.128   2.572  0.00  0.00    +0.000 NA
ATOM     29  C   UNL     1      45.438   0.185   2.359  0.00  0.00    +0.000 A 
ATOM     30  C   UNL     1      46.048   1.199   3.080  0.00  0.00    +0.000 A 
ENDBRANCH  24  25
ENDBRANCH  23  24
ENDBRANCH  20  23
ENDBRANCH  16  17
ENDBRANCH   3  16
TORSDOF 6
ENDMDL
MODEL 4
REMARK VINA RESULT:    -7.750      1.948      2.947
REMARK INTER + INTRA:         -11.371
REMARK INTER:                 -10.212
REMARK INTRA:                  -1.160
REMARK UNBOUND:                -0.904
REMARK  Name = 
REMARK  6 active torsions:
REMARK  status: ('A' for Active; 'I' for Inactive)
REMARK    1  A    between atoms: C_2  and  C_19
REMARK    2  A    between atoms: N_3  and  C_4
REMARK    3  A    between atoms: C_4  and  C_5
REMARK    4  A    between atoms: C_8  and  O_9
REMARK    5  A    between atoms: O_9  and  C_10
REMARK    6  A    between atoms: C_10  and  C_11
REMARK                            x       y       z     vdW  Elec       q    Type
REMARK                         _______ _______ _______ _____ _____    ______ ____
ROOT
ATOM      1  O   UNL     1      50.034   6.908  14.740  0.00  0.00    +0.000 OA
ATOM      2  C   UNL     1      48.973   6.914  15.381  0.00  0.00    +0.000 C 
ATOM      3  N   UNL     1      47.754   7.099  14.791  0.00  0.00    +0.000 N 
ATOM      4  H   UNL     1      46.917   7.153  15.367  0.00  0.00    +0.000 HD
ENDROOT
BRANCH   2   5
ATOM      5  C   UNL     1      48.952   6.651  16.820  0.00  0.00    +0.000 A 
ATOM      6  C   UNL     1      49.157   7.642  17.769  0.00  0.00    +0.000 A 
ATOM      7  S   UNL     1      49.121   7.053  19.376  0.00  0.00    +0.000 S 
ATOM      8  C   UNL     1      48.780   5.471  18.850  0.00  0.00    +0.000 A 
ATOM      9  N   UNL     1      48.634   4.443  19.731  0.00  0.00    +0.000 NA
ATOM     10  C   UNL     1      48.338   3.315  19.191  0.00  0.00    +0.000 A 
ATOM     11  N   UNL     1      48.163   3.110  17.840  0.00  0.00    +0.000 N 
ATOM     12  C   UNL     1      48.339   4.100  16.915  0.00  0.00    +0.000 A 
ATOM     13  O   UNL     1      48.264   3.845  15.705  0.00  0.00    +0.000 OA
ATOM     14  C   UNL     1      48.685   5.392  17.470  0.00  0.00    +0.000 A 
ATOM     15  H   UNL     1      47.937   2.200  17.477  0.00  0.00    +0.000 HD
ENDBRANCH   2   5
BRANCH   3  16
ATOM     16  C   UNL     1      47.618   7.387  13.389  0.00  0.00    +0.000 C 
BRANCH  16  17
ATOM     17  C   UNL     1      46.723   6.420  12.654  0.00  0.00    +0.000 A 
ATOM     18  C   UNL     1      46.240   6.733  11.378  0.00  0.00    +0.000 A 
ATOM     19  C   UNL     1      45.444   5.832  10.651  0.00  0.00    +0.000 A 
ATOM     20  C   UNL     1      45.150   4.576  11.200  0.00  0.00    +0.000 A 
ATOM     21  C   UNL     1      45.625   4.270  12.471  0.00  0.00    +0.000 A 
ATOM     22  C   UNL     1      46.375   5.179  13.208  0.00  0.00    +0.000 A 
BRANCH  20  23
ATOM     23  O   UNL     1      44.377   3.669  10.507  0.00  0.00    +0.000 OA
BRANCH  23  24
ATOM     24  C   UNL     1      44.354   3.904   9.077  0.00  0.00    +0.000 C 
BRANCH  24  25
ATOM     25  C   UNL     1      45.423   3.104   8.378  0.00  0.00    +0.000 A 
ATOM     26  C   UNL     1      46.357   3.712   7.540  0.00  0.00    +0.000 A 
ATOM     27  C   UNL     1      47.333   2.925   6.952  0.00  0.00    +0.000 A 
ATOM     28  N   UNL     1      47.448   1.595   7.146  0.00  0.00    +0.000 NA
ATOM     29  C   UNL     1      46.543   1.026   7.970  0.00  0.00    +0.000 A 
ATOM     30  C   UNL     1      45.534   1.728   8.609  0.00  0.00    +0.000 A 
ENDBRANCH  24  25
ENDBRANCH  23  24
ENDBRANCH  20  23
ENDBRANCH  16  17
ENDBRANCH   3  16
TORSDOF 6
ENDMDL
MODEL 5
REMARK VINA RESULT:    -7.718      2.398      3.246
REMARK INTER + INTRA:         -11.329
REMARK INTER:                 -10.342
REMARK INTRA:                  -0.987
REMARK UNBOUND:                -0.904
REMARK  Name = 
REMARK  6 active torsions:
REMARK  status: ('A' for Active; 'I' for Inactive)
REMARK    1  A    between atoms: C_2  and  C_19
REMARK    2  A    between atoms: N_3  and  C_4
REMARK    3  A    between atoms: C_4  and  C_5
REMARK    4  A    between atoms: C_8  and  O_9
REMARK    5  A    between atoms: O_9  and  C_10
REMARK    6  A    between atoms: C_10  and  C_11
REMARK                            x       y       z     vdW  Elec       q    Type
REMARK                         _______ _______ _______ _____ _____    ______ ____
ROOT
ATOM      1  O   UNL     1      49.909   6.749  15.202  0.00  0.00    +0.000 OA
ATOM      2  C   UNL     1      48.815   6.364  15.642  0.00  0.00    +0.000 C 
ATOM      3  N   UNL     1      47.686   6.315  14.873  0.00  0.00    +0.000 N 
ATOM      4  H   UNL     1      46.800   6.047  15.293  0.00  0.00    +0.000 HD
ENDROOT
BRANCH   2   5
ATOM      5  C   UNL     1      48.678   5.865  17.010  0.00  0.00    +0.000 A 
ATOM      6  C   UNL     1      48.927   4.545  17.357  0.00  0.00    +0.000 A 
ATOM      7  S   UNL     1      48.651   4.222  19.015  0.00  0.00    +0.000 S 
ATOM      8  C   UNL     1      48.241   5.844  19.323  0.00  0.00    +0.000 A 
ATOM      9  N   UNL     1      47.879   6.264  20.566  0.00  0.00    +0.000 NA
ATOM     10  C   UNL     1      47.638   7.524  20.656  0.00  0.00    +0.000 A 
ATOM     11  N   UNL     1      47.732   8.420  19.613  0.00  0.00    +0.000 N 
ATOM     12  C   UNL     1      48.052   8.039  18.341  0.00  0.00    +0.000 A 
ATOM     13  O   UNL     1      48.030   8.865  17.418  0.00  0.00    +0.000 OA
ATOM     14  C   UNL     1      48.323   6.626  18.182  0.00  0.00    +0.000 A 
ATOM     15  H   UNL     1      47.525   9.394  19.746  0.00  0.00    +0.000 HD
ENDBRANCH   2   5
BRANCH   3  16
ATOM     16  C   UNL     1      47.662   6.790  13.516  0.00  0.00    +0.000 C 
BRANCH  16  17
ATOM     17  C   UNL     1      46.771   5.982  12.605  0.00  0.00    +0.000 A 
ATOM     18  C   UNL     1      46.452   6.456  11.327  0.00  0.00    +0.000 A 
ATOM     19  C   UNL     1      45.664   5.703  10.440  0.00  0.00    +0.000 A 
ATOM     20  C   UNL     1      45.211   4.434  10.828  0.00  0.00    +0.000 A 
ATOM     21  C   UNL     1      45.525   3.969  12.101  0.00  0.00    +0.000 A 
ATOM     22  C   UNL     1      46.267   4.733  12.995  0.00  0.00    +0.000 A 
BRANCH  20  23
ATOM     23  O   UNL     1      44.442   3.671   9.976  0.00  0.00    +0.000 OA
BRANCH  23  24
ATOM     24  C   UNL     1      44.672   3.960   8.575  0.00  0.00    +0.000 C 
BRANCH  24  25
ATOM     25  C   UNL     1      45.753   3.077   8.007  0.00  0.00    +0.000 A 
ATOM     26  C   UNL     1      46.783   3.597   7.225  0.00  0.00    +0.000 A 
ATOM     27  C   UNL     1      47.763   2.737   6.759  0.00  0.00    +0.000 A 
ATOM     28  N   UNL     1      47.794   1.414   7.025  0.00  0.00    +0.000 NA
ATOM     29  C   UNL     1      46.797   0.932   7.796  0.00  0.00    +0.000 A 
ATOM     30  C   UNL     1      45.775   1.711   8.312  0.00  0.00    +0.000 A 
ENDBRANCH  24  25
ENDBRANCH  23  24
ENDBRANCH  20  23
ENDBRANCH  16  17
ENDBRANCH   3  16
TORSDOF 6
ENDMDL
MODEL 6
REMARK VINA RESULT:    -7.441      3.487      4.795
REMARK INTER + INTRA:         -10.954
REMARK INTER:                  -9.709
REMARK INTRA:                  -1.245
REMARK UNBOUND:                -0.904
REMARK  Name = 
REMARK  6 active torsions:
REMARK  status: ('A' for Active; 'I' for Inactive)
REMARK    1  A    between atoms: C_2  and  C_19
REMARK    2  A    between atoms: N_3  and  C_4
REMARK    3  A    between atoms: C_4  and  C_5
REMARK    4  A    between atoms: C_8  and  O_9
REMARK    5  A    between atoms: O_9  and  C_10
REMARK    6  A    between atoms: C_10  and  C_11
REMARK                            x       y       z     vdW  Elec       q    Type
REMARK                         _______ _______ _______ _____ _____    ______ ____
ROOT
ATOM      1  O   UNL     1      49.756   6.586  14.929  0.00  0.00    +0.000 OA
ATOM      2  C   UNL     1      48.824   7.296  14.523  0.00  0.00    +0.000 C 
ATOM      3  N   UNL     1      47.617   6.781  14.139  0.00  0.00    +0.000 N 
ATOM      4  H   UNL     1      46.903   7.398  13.759  0.00  0.00    +0.000 HD
ENDROOT
BRANCH   2   5
ATOM      5  C   UNL     1      48.934   8.754  14.496  0.00  0.00    +0.000 A 
ATOM      6  C   UNL     1      49.104   9.516  15.642  0.00  0.00    +0.000 A 
ATOM      7  S   UNL     1      49.163  11.198  15.330  0.00  0.00    +0.000 S 
ATOM      8  C   UNL     1      49.013  10.951  13.652  0.00  0.00    +0.000 A 
ATOM      9  N   UNL     1      48.980  11.994  12.779  0.00  0.00    +0.000 NA
ATOM     10  C   UNL     1      48.907  11.652  11.541  0.00  0.00    +0.000 A 
ATOM     11  N   UNL     1      48.870  10.352  11.084  0.00  0.00    +0.000 N 
ATOM     12  C   UNL     1      48.861   9.275  11.924  0.00  0.00    +0.000 A 
ATOM     13  O   UNL     1      48.730   8.130  11.470  0.00  0.00    +0.000 OA
ATOM     14  C   UNL     1      48.931   9.605  13.332  0.00  0.00    +0.000 A 
ATOM     15  H   UNL     1      48.807  10.149  10.102  0.00  0.00    +0.000 HD
ENDBRANCH   2   5
BRANCH   3  16
ATOM     16  C   UNL     1      47.367   5.366  14.095  0.00  0.00    +0.000 C 
BRANCH  16  17
ATOM     17  C   UNL     1      46.455   4.945  12.969  0.00  0.00    +0.000 A 
ATOM     18  C   UNL     1      46.195   5.818  11.906  0.00  0.00    +0.000 A 
ATOM     19  C   UNL     1      45.388   5.436  10.821  0.00  0.00    +0.000 A 
ATOM     20  C   UNL     1      44.855   4.140  10.782  0.00  0.00    +0.000 A 
ATOM     21  C   UNL     1      45.110   3.276  11.843  0.00  0.00    +0.000 A 
ATOM     22  C   UNL     1      45.871   3.670  12.937  0.00  0.00    +0.000 A 
BRANCH  20  23
ATOM     23  O   UNL     1      44.065   3.736   9.728  0.00  0.00    +0.000 OA
BRANCH  23  24
ATOM     24  C   UNL     1      44.602   4.101   8.431  0.00  0.00    +0.000 C 
BRANCH  24  25
ATOM     25  C   UNL     1      45.697   3.157   8.010  0.00  0.00    +0.000 A 
ATOM     26  C   UNL     1      45.664   1.805   8.349  0.00  0.00    +0.000 A 
ATOM     27  C   UNL     1      46.686   0.984   7.905  0.00  0.00    +0.000 A 
ATOM     28  N   UNL     1      47.720   1.408   7.147  0.00  0.00    +0.000 NA
ATOM     29  C   UNL     1      47.728   2.716   6.818  0.00  0.00    +0.000 A 
ATOM     30  C   UNL     1      46.750   3.616   7.210  0.00  0.00    +0.000 A 
ENDBRANCH  24  25
ENDBRANCH  23  24
ENDBRANCH  20  23
ENDBRANCH  16  17
ENDBRANCH   3  16
TORSDOF 6
ENDMDL
MODEL 7
REMARK VINA RESULT:    -7.359      3.959      5.261
REMARK INTER + INTRA:         -10.844
REMARK INTER:                  -9.831
REMARK INTRA:                  -1.013
REMARK UNBOUND:                -0.904
REMARK  Name = 
REMARK  6 active torsions:
REMARK  status: ('A' for Active; 'I' for Inactive)
REMARK    1  A    between atoms: C_2  and  C_19
REMARK    2  A    between atoms: N_3  and  C_4
REMARK    3  A    between atoms: C_4  and  C_5
REMARK    4  A    between atoms: C_8  and  O_9
REMARK    5  A    between atoms: O_9  and  C_10
REMARK    6  A    between atoms: C_10  and  C_11
REMARK                            x       y       z     vdW  Elec       q    Type
REMARK                         _______ _______ _______ _____ _____    ______ ____
ROOT
ATOM      1  O   UNL     1      45.502   5.355  12.738  0.00  0.00    +0.000 OA
ATOM      2  C   UNL     1      45.774   6.083  11.772  0.00  0.00    +0.000 C 
ATOM      3  N   UNL     1      45.342   5.817  10.502  0.00  0.00    +0.000 N 
ATOM      4  H   UNL     1      45.638   6.413   9.733  0.00  0.00    +0.000 HD
ENDROOT
BRANCH   2   5
ATOM      5  C   UNL     1      46.524   7.327  11.944  0.00  0.00    +0.000 A 
ATOM      6  C   UNL     1      47.880   7.352  12.234  0.00  0.00    +0.000 A 
ATOM      7  S   UNL     1      48.498   8.937  12.423  0.00  0.00    +0.000 S 
ATOM      8  C   UNL     1      46.985   9.632  12.072  0.00  0.00    +0.000 A 
ATOM      9  N   UNL     1      46.802  10.980  12.074  0.00  0.00    +0.000 NA
ATOM     10  C   UNL     1      45.617  11.360  11.749  0.00  0.00    +0.000 A 
ATOM     11  N   UNL     1      44.585  10.512  11.410  0.00  0.00    +0.000 N 
ATOM     12  C   UNL     1      44.709   9.152  11.433  0.00  0.00    +0.000 A 
ATOM     13  O   UNL     1      43.726   8.432  11.214  0.00  0.00    +0.000 OA
ATOM     14  C   UNL     1      46.023   8.671  11.804  0.00  0.00    +0.000 A 
ATOM     15  H   UNL     1      43.677  10.871  11.170  0.00  0.00    +0.000 HD
ENDBRANCH   2   5
BRANCH   3  16
ATOM     16  C   UNL     1      44.611   4.622  10.177  0.00  0.00    +0.000 C 
BRANCH  16  17
ATOM     17  C   UNL     1      45.286   3.762   9.137  0.00  0.00    +0.000 A 
ATOM     18  C   UNL     1      45.992   4.351   8.082  0.00  0.00    +0.000 A 
ATOM     19  C   UNL     1      46.670   3.575   7.127  0.00  0.00    +0.000 A 
ATOM     20  C   UNL     1      46.668   2.179   7.247  0.00  0.00    +0.000 A 
ATOM     21  C   UNL     1      45.959   1.595   8.293  0.00  0.00    +0.000 A 
ATOM     22  C   UNL     1      45.252   2.361   9.211  0.00  0.00    +0.000 A 
BRANCH  20  23
ATOM     23  O   UNL     1      47.329   1.393   6.328  0.00  0.00    +0.000 OA
BRANCH  23  24
ATOM     24  C   UNL     1      47.217   1.877   4.966  0.00  0.00    +0.000 C 
BRANCH  24  25
ATOM     25  C   UNL     1      46.683   0.806   4.051  0.00  0.00    +0.000 A 
ATOM     26  C   UNL     1      45.881   1.118   2.954  0.00  0.00    +0.000 A 
ATOM     27  C   UNL     1      45.448   0.090   2.134  0.00  0.00    +0.000 A 
ATOM     28  N   UNL     1      45.764  -1.209   2.321  0.00  0.00    +0.000 NA
ATOM     29  C   UNL     1      46.552  -1.490   3.379  0.00  0.00    +0.000 A 
ATOM     30  C   UNL     1      47.039  -0.533   4.255  0.00  0.00    +0.000 A 
ENDBRANCH  24  25
ENDBRANCH  23  24
ENDBRANCH  20  23
ENDBRANCH  16  17
ENDBRANCH   3  16
TORSDOF 6
ENDMDL
MODEL 8
REMARK VINA RESULT:    -6.966      3.771      8.515
REMARK INTER + INTRA:         -10.313
REMARK INTER:                  -9.321
REMARK INTRA:                  -0.992
REMARK UNBOUND:                -0.904
REMARK  Name = 
REMARK  6 active torsions:
REMARK  status: ('A' for Active; 'I' for Inactive)
REMARK    1  A    between atoms: C_2  and  C_19
REMARK    2  A    between atoms: N_3  and  C_4
REMARK    3  A    between atoms: C_4  and  C_5
REMARK    4  A    between atoms: C_8  and  O_9
REMARK    5  A    between atoms: O_9  and  C_10
REMARK    6  A    between atoms: C_10  and  C_11
REMARK                            x       y       z     vdW  Elec       q    Type
REMARK                         _______ _______ _______ _____ _____    ______ ____
ROOT
ATOM      1  O   UNL     1      45.777   7.752  11.984  0.00  0.00    +0.000 OA
ATOM      2  C   UNL     1      46.428   6.839  11.455  0.00  0.00    +0.000 C 
ATOM      3  N   UNL     1      47.790   6.759  11.536  0.00  0.00    +0.000 N 
ATOM      4  H   UNL     1      48.283   6.022  11.038  0.00  0.00    +0.000 HD
ENDROOT
BRANCH   2   5
ATOM      5  C   UNL     1      45.764   5.735  10.760  0.00  0.00    +0.000 A 
ATOM      6  C   UNL     1      45.854   5.549   9.388  0.00  0.00    +0.000 A 
ATOM      7  S   UNL     1      44.949   4.206   8.831  0.00  0.00    +0.000 S 
ATOM      8  C   UNL     1      44.455   3.810  10.411  0.00  0.00    +0.000 A 
ATOM      9  N   UNL     1      43.636   2.751  10.657  0.00  0.00    +0.000 NA
ATOM     10  C   UNL     1      43.383   2.549  11.901  0.00  0.00    +0.000 A 
ATOM     11  N   UNL     1      43.881   3.306  12.939  0.00  0.00    +0.000 N 
ATOM     12  C   UNL     1      44.673   4.401  12.739  0.00  0.00    +0.000 A 
ATOM     13  O   UNL     1      45.017   5.106  13.698  0.00  0.00    +0.000 OA
ATOM     14  C   UNL     1      44.980   4.680  11.352  0.00  0.00    +0.000 A 
ATOM     15  H   UNL     1      43.641   3.100  13.893  0.00  0.00    +0.000 HD
ENDBRANCH   2   5
BRANCH   3  16
ATOM     16  C   UNL     1      48.580   7.779  12.171  0.00  0.00    +0.000 C 
BRANCH  16  17
ATOM     17  C   UNL     1      49.029   7.420  13.565  0.00  0.00    +0.000 A 
ATOM     18  C   UNL     1      50.349   7.658  13.967  0.00  0.00    +0.000 A 
ATOM     19  C   UNL     1      50.782   7.378  15.274  0.00  0.00    +0.000 A 
ATOM     20  C   UNL     1      49.867   6.877  16.210  0.00  0.00    +0.000 A 
ATOM     21  C   UNL     1      48.557   6.635  15.807  0.00  0.00    +0.000 A 
ATOM     22  C   UNL     1      48.140   6.871  14.502  0.00  0.00    +0.000 A 
BRANCH  20  23
ATOM     23  O   UNL     1      50.262   6.599  17.501  0.00  0.00    +0.000 OA
BRANCH  23  24
ATOM     24  C   UNL     1      49.449   5.590  18.149  0.00  0.00    +0.000 C 
BRANCH  24  25
ATOM     25  C   UNL     1      49.782   4.212  17.638  0.00  0.00    +0.000 A 
ATOM     26  C   UNL     1      51.066   3.680  17.761  0.00  0.00    +0.000 A 
ATOM     27  C   UNL     1      51.299   2.397  17.298  0.00  0.00    +0.000 A 
ATOM     28  N   UNL     1      50.354   1.611  16.741  0.00  0.00    +0.000 NA
ATOM     29  C   UNL     1      49.115   2.138  16.644  0.00  0.00    +0.000 A 
ATOM     30  C   UNL     1      48.781   3.409  17.080  0.00  0.00    +0.000 A 
ENDBRANCH  24  25
ENDBRANCH  23  24
ENDBRANCH  20  23
ENDBRANCH  16  17
ENDBRANCH   3  16
TORSDOF 6
ENDMDL
MODEL 9
REMARK VINA RESULT:    -6.912      4.505      8.538
REMARK INTER + INTRA:         -10.240
REMARK INTER:                  -8.742
REMARK INTRA:                  -1.498
REMARK UNBOUND:                -0.904
REMARK  Name = 
REMARK  6 active torsions:
REMARK  status: ('A' for Active; 'I' for Inactive)
REMARK    1  A    between atoms: C_2  and  C_19
REMARK    2  A    between atoms: N_3  and  C_4
REMARK    3  A    between atoms: C_4  and  C_5
REMARK    4  A    between atoms: C_8  and  O_9
REMARK    5  A    between atoms: O_9  and  C_10
REMARK    6  A    between atoms: C_10  and  C_11
REMARK                            x       y       z     vdW  Elec       q    Type
REMARK                         _______ _______ _______ _____ _____    ______ ____
ROOT
ATOM      1  O   UNL     1      48.463   7.326  12.460  0.00  0.00    +0.000 OA
ATOM      2  C   UNL     1      47.373   7.544  13.008  0.00  0.00    +0.000 C 
ATOM      3  N   UNL     1      47.236   8.396  14.069  0.00  0.00    +0.000 N 
ATOM      4  H   UNL     1      46.331   8.498  14.521  0.00  0.00    +0.000 HD
ENDROOT
BRANCH   2   5
ATOM      5  C   UNL     1      46.135   6.948  12.504  0.00  0.00    +0.000 A 
ATOM      6  C   UNL     1      45.178   7.677  11.813  0.00  0.00    +0.000 A 
ATOM      7  S   UNL     1      43.811   6.745  11.374  0.00  0.00    +0.000 S 
ATOM      8  C   UNL     1      44.483   5.335  12.048  0.00  0.00    +0.000 A 
ATOM      9  N   UNL     1      43.816   4.148  12.029  0.00  0.00    +0.000 NA
ATOM     10  C   UNL     1      44.465   3.162  12.537  0.00  0.00    +0.000 A 
ATOM     11  N   UNL     1      45.736   3.244  13.064  0.00  0.00    +0.000 N 
ATOM     12  C   UNL     1      46.428   4.419  13.142  0.00  0.00    +0.000 A 
ATOM     13  O   UNL     1      47.527   4.460  13.711  0.00  0.00    +0.000 OA
ATOM     14  C   UNL     1      45.736   5.566  12.592  0.00  0.00    +0.000 A 
ATOM     15  H   UNL     1      46.190   2.436  13.453  0.00  0.00    +0.000 HD
ENDBRANCH   2   5
BRANCH   3  16
ATOM     16  C   UNL     1      48.366   9.039  14.684  0.00  0.00    +0.000 C 
BRANCH  16  17
ATOM     17  C   UNL     1      49.009   8.221  15.777  0.00  0.00    +0.000 A 
ATOM     18  C   UNL     1      48.465   8.213  17.067  0.00  0.00    +0.000 A 
ATOM     19  C   UNL     1      49.015   7.424  18.092  0.00  0.00    +0.000 A 
ATOM     20  C   UNL     1      50.114   6.600  17.812  0.00  0.00    +0.000 A 
ATOM     21  C   UNL     1      50.657   6.615  16.531  0.00  0.00    +0.000 A 
ATOM     22  C   UNL     1      50.140   7.430  15.529  0.00  0.00    +0.000 A 
BRANCH  20  23
ATOM     23  O   UNL     1      50.670   5.811  18.795  0.00  0.00    +0.000 OA
BRANCH  23  24
ATOM     24  C   UNL     1      49.788   4.757  19.257  0.00  0.00    +0.000 C 
BRANCH  24  25
ATOM     25  C   UNL     1      49.627   3.686  18.210  0.00  0.00    +0.000 A 
ATOM     26  C   UNL     1      48.403   3.464  17.578  0.00  0.00    +0.000 A 
ATOM     27  C   UNL     1      48.328   2.485  16.602  0.00  0.00    +0.000 A 
ATOM     28  N   UNL     1      49.375   1.730  16.208  0.00  0.00    +0.000 NA
ATOM     29  C   UNL     1      50.554   1.969  16.821  0.00  0.00    +0.000 A 
ATOM     30  C   UNL     1      50.731   2.928  17.805  0.00  0.00    +0.000 A 
ENDBRANCH  24  25
ENDBRANCH  23  24
ENDBRANCH  20  23
ENDBRANCH  16  17
ENDBRANCH   3  16
TORSDOF 6
ENDMDL
