MODEL 1
REMARK VINA RESULT:    -7.740      0.000      0.000
REMARK INTER + INTRA:         -11.798
REMARK INTER:                 -10.907
REMARK INTRA:                  -0.891
REMARK UNBOUND:                -0.891
REMARK  Name = 
REMARK  9 active torsions:
REMARK  status: ('A' for Active; 'I' for Inactive)
REMARK    1  A    between atoms: C_1  and  O_2
REMARK    2  A    between atoms: O_2  and  C_3
REMARK    3  A    between atoms: C_5  and  C_6
REMARK    4  A    between atoms: C_6  and  C_7
REMARK    5  A    between atoms: C_7  and  N_8
REMARK    6  A    between atoms: C_12  and  C_13
REMARK    7  A    between atoms: C_19  and  S_20
REMARK    8  A    between atoms: S_20  and  C_21
REMARK    9  A    between atoms: N_23  and  C_24
REMARK                            x       y       z     vdW  Elec       q    Type
REMARK                         _______ _______ _______ _____ _____    ______ ____
ROOT
ATOM      1  C   UNL     1      43.276   5.310  12.309  0.00  0.00    +0.000 C 
ENDROOT
BRANCH   1   4
ATOM      2  C   UNL     1      46.692   4.341  13.785  0.00  0.00    +0.000 A 
ATOM      3  C   UNL     1      45.398   4.236  13.284  0.00  0.00    +0.000 A 
ATOM      4  C   UNL     1      44.723   5.368  12.783  0.00  0.00    +0.000 A 
ATOM      5  C   UNL     1      45.402   6.610  12.760  0.00  0.00    +0.000 A 
ATOM      6  C   UNL     1      46.720   6.718  13.224  0.00  0.00    +0.000 A 
ATOM      7  C   UNL     1      47.339   5.577  13.752  0.00  0.00    +0.000 A 
BRANCH   2   9
ATOM      8  C   UNL     1      47.642   3.386  15.760  0.00  0.00    +0.000 C 
ATOM      9  O   UNL     1      47.418   3.329  14.357  0.00  0.00    +0.000 OA
ENDBRANCH   2   9
BRANCH   6  10
ATOM     10  S   UNL     1      47.606   8.260  13.393  0.00  0.00    +0.000 S 
BRANCH  10  11
ATOM     11  C   UNL     1      49.117   7.800  14.301  0.00  0.00    +0.000 C 
ATOM     12  C   UNL     1      49.753   8.878  15.201  0.00  0.00    +0.000 C 
ATOM     13  N   UNL     1      51.069   8.653  14.549  0.00  0.00    +0.000 NA
ATOM     14  C   UNL     1      51.879   7.688  15.293  0.00  0.00    +0.000 C 
ATOM     15  C   UNL     1      50.383   7.988  13.418  0.00  0.00    +0.000 C 
ENDBRANCH  10  11
ENDBRANCH   6  10
ENDBRANCH   1   4
BRANCH   1  16
ATOM     16  C   UNL     1      43.045   4.560  10.992  0.00  0.00    +0.000 C 
BRANCH  16  17
ATOM     17  N   UNL     1      43.869   5.086   9.897  0.00  0.00    +0.000 N 
ATOM     18  C   UNL     1      44.635   4.063   9.296  0.00  0.00    +0.000 A 
ATOM     19  C   UNL     1      45.478   4.378   8.235  0.00  0.00    +0.000 A 
ATOM     20  C   UNL     1      46.225   3.364   7.633  0.00  0.00    +0.000 A 
ATOM     21  C   UNL     1      46.121   2.051   8.102  0.00  0.00    +0.000 A 
ATOM     22  C   UNL     1      45.257   1.829   9.155  0.00  0.00    +0.000 A 
ATOM     23  N   UNL     1      44.519   2.797   9.748  0.00  0.00    +0.000 NA
ATOM     24  H   UNL     1      44.491   5.829  10.191  0.00  0.00    +0.000 HD
BRANCH  21  25
ATOM     25  C   UNL     1      46.923   0.978   7.480  0.00  0.00    +0.000 C 
ATOM     26  N   UNL     1      47.875   1.307   6.554  0.00  0.00    +0.000 N 
ATOM     27  O   UNL     1      46.745  -0.194   7.777  0.00  0.00    +0.000 OA
ATOM     28  H   UNL     1      48.106   2.234   6.229  0.00  0.00    +0.000 HD
ATOM     29  H   UNL     1      48.395   0.535   6.156  0.00  0.00    +0.000 HD
ENDBRANCH  21  25
ENDBRANCH  16  17
ENDBRANCH   1  16
TORSDOF 7
ENDMDL
MODEL 2
REMARK VINA RESULT:    -7.528      2.358      3.489
REMARK INTER + INTRA:         -11.499
REMARK INTER:                 -11.088
REMARK INTRA:                  -0.411
REMARK UNBOUND:                -0.891
REMARK  Name = 
REMARK  9 active torsions:
REMARK  status: ('A' for Active; 'I' for Inactive)
REMARK    1  A    between atoms: C_1  and  O_2
REMARK    2  A    between atoms: O_2  and  C_3
REMARK    3  A    between atoms: C_5  and  C_6
REMARK    4  A    between atoms: C_6  and  C_7
REMARK    5  A    between atoms: C_7  and  N_8
REMARK    6  A    between atoms: C_12  and  C_13
REMARK    7  A    between atoms: C_19  and  S_20
REMARK    8  A    between atoms: S_20  and  C_21
REMARK    9  A    between atoms: N_23  and  C_24
REMARK                            x       y       z     vdW  Elec       q    Type
REMARK                         _______ _______ _______ _____ _____    ______ ____
ROOT
ATOM      1  C   UNL     1      43.269   4.766  12.444  0.00  0.00    +0.000 C 
ENDROOT
BRANCH   1   4
ATOM      2  C   UNL     1      46.811   5.255  13.858  0.00  0.00    +0.000 A 
ATOM      3  C   UNL     1      45.605   4.654  13.508  0.00  0.00    +0.000 A 
ATOM      4  C   UNL     1      44.634   5.359  12.768  0.00  0.00    +0.000 A 
ATOM      5  C   UNL     1      44.925   6.680  12.349  0.00  0.00    +0.000 A 
ATOM      6  C   UNL     1      46.152   7.280  12.660  0.00  0.00    +0.000 A 
ATOM      7  C   UNL     1      47.073   6.559  13.433  0.00  0.00    +0.000 A 
BRANCH   2   9
ATOM      8  C   UNL     1      47.507   4.452  15.999  0.00  0.00    +0.000 C 
ATOM      9  O   UNL     1      47.796   4.695  14.628  0.00  0.00    +0.000 OA
ENDBRANCH   2   9
BRANCH   6  10
ATOM     10  S   UNL     1      46.553   8.989  12.327  0.00  0.00    +0.000 S 
BRANCH  10  11
ATOM     11  C   UNL     1      44.927   9.795  12.154  0.00  0.00    +0.000 C 
ATOM     12  C   UNL     1      44.204   9.637  10.802  0.00  0.00    +0.000 C 
ATOM     13  N   UNL     1      44.020  11.109  10.723  0.00  0.00    +0.000 NA
ATOM     14  C   UNL     1      42.722  11.516  11.263  0.00  0.00    +0.000 C 
ATOM     15  C   UNL     1      45.080  11.286  11.741  0.00  0.00    +0.000 C 
ENDBRANCH  10  11
ENDBRANCH   6  10
ENDBRANCH   1   4
BRANCH   1  16
ATOM     16  C   UNL     1      43.128   4.168  11.039  0.00  0.00    +0.000 C 
BRANCH  16  17
ATOM     17  N   UNL     1      43.914   4.900  10.039  0.00  0.00    +0.000 N 
ATOM     18  C   UNL     1      44.749   4.028   9.306  0.00  0.00    +0.000 A 
ATOM     19  C   UNL     1      45.568   4.548   8.309  0.00  0.00    +0.000 A 
ATOM     20  C   UNL     1      46.384   3.683   7.577  0.00  0.00    +0.000 A 
ATOM     21  C   UNL     1      46.371   2.313   7.854  0.00  0.00    +0.000 A 
ATOM     22  C   UNL     1      45.525   1.885   8.856  0.00  0.00    +0.000 A 
ATOM     23  N   UNL     1      44.721   2.705   9.573  0.00  0.00    +0.000 NA
ATOM     24  H   UNL     1      44.483   5.634  10.441  0.00  0.00    +0.000 HD
BRANCH  21  25
ATOM     25  C   UNL     1      47.246   1.397   7.093  0.00  0.00    +0.000 C 
ATOM     26  N   UNL     1      48.356   1.898   6.469  0.00  0.00    +0.000 N 
ATOM     27  O   UNL     1      46.991   0.205   7.013  0.00  0.00    +0.000 OA
ATOM     28  H   UNL     1      48.663   2.860   6.462  0.00  0.00    +0.000 HD
ATOM     29  H   UNL     1      48.920   1.230   5.959  0.00  0.00    +0.000 HD
ENDBRANCH  21  25
ENDBRANCH  16  17
ENDBRANCH   1  16
TORSDOF 7
ENDMDL
MODEL 3
REMARK VINA RESULT:    -7.178      2.433      3.385
REMARK INTER + INTRA:         -11.006
REMARK INTER:                 -10.248
REMARK INTRA:                  -0.757
REMARK UNBOUND:                -0.891
REMARK  Name = 
REMARK  9 active torsions:
REMARK  status: ('A' for Active; 'I' for Inactive)
REMARK    1  A    between atoms: C_1  and  O_2
REMARK    2  A    between atoms: O_2  and  C_3
REMARK    3  A    between atoms: C_5  and  C_6
REMARK    4  A    between atoms: C_6  and  C_7
REMARK    5  A    between atoms: C_7  and  N_8
REMARK    6  A    between atoms: C_12  and  C_13
REMARK    7  A    between atoms: C_19  and  S_20
REMARK    8  A    between atoms: S_20  and  C_21
REMARK    9  A    between atoms: N_23  and  C_24
REMARK                            x       y       z     vdW  Elec       q    Type
REMARK                         _______ _______ _______ _____ _____    ______ ____
ROOT
ATOM      1  C   UNL     1      43.452   5.529  12.139  0.00  0.00    +0.000 C 
ENDROOT
BRANCH   1   4
ATOM      2  C   UNL     1      47.024   6.863  12.634  0.00  0.00    +0.000 A 
ATOM      3  C   UNL     1      45.713   6.750  12.182  0.00  0.00    +0.000 A 
ATOM      4  C   UNL     1      44.863   5.739  12.675  0.00  0.00    +0.000 A 
ATOM      5  C   UNL     1      45.354   4.865  13.674  0.00  0.00    +0.000 A 
ATOM      6  C   UNL     1      46.659   4.996  14.167  0.00  0.00    +0.000 A 
ATOM      7  C   UNL     1      47.484   5.987  13.619  0.00  0.00    +0.000 A 
BRANCH   2   9
ATOM      8  C   UNL     1      48.164   8.942  12.940  0.00  0.00    +0.000 C 
ATOM      9  O   UNL     1      47.957   7.757  12.181  0.00  0.00    +0.000 OA
ENDBRANCH   2   9
BRANCH   6  10
ATOM     10  S   UNL     1      47.430   3.849  15.299  0.00  0.00    +0.000 S 
BRANCH  10  11
ATOM     11  C   UNL     1      48.128   4.918  16.599  0.00  0.00    +0.000 C 
ATOM     12  C   UNL     1      49.290   4.343  17.433  0.00  0.00    +0.000 C 
ATOM     13  N   UNL     1      48.572   4.695  18.685  0.00  0.00    +0.000 NA
ATOM     14  C   UNL     1      48.981   6.005  19.189  0.00  0.00    +0.000 C 
ATOM     15  C   UNL     1      47.311   4.808  17.917  0.00  0.00    +0.000 C 
ENDBRANCH  10  11
ENDBRANCH   6  10
ENDBRANCH   1   4
BRANCH   1  16
ATOM     16  C   UNL     1      43.365   5.039  10.688  0.00  0.00    +0.000 C 
BRANCH  16  17
ATOM     17  N   UNL     1      43.616   3.598  10.569  0.00  0.00    +0.000 N 
ATOM     18  C   UNL     1      44.579   3.327   9.572  0.00  0.00    +0.000 A 
ATOM     19  C   UNL     1      44.946   2.009   9.320  0.00  0.00    +0.000 A 
ATOM     20  C   UNL     1      45.907   1.743   8.343  0.00  0.00    +0.000 A 
ATOM     21  C   UNL     1      46.486   2.798   7.631  0.00  0.00    +0.000 A 
ATOM     22  C   UNL     1      46.066   4.074   7.951  0.00  0.00    +0.000 A 
ATOM     23  N   UNL     1      45.140   4.353   8.898  0.00  0.00    +0.000 NA
ATOM     24  H   UNL     1      42.779   3.065  10.367  0.00  0.00    +0.000 HD
BRANCH  21  25
ATOM     25  C   UNL     1      47.491   2.520   6.585  0.00  0.00    +0.000 C 
ATOM     26  N   UNL     1      47.360   3.113   5.358  0.00  0.00    +0.000 N 
ATOM     27  O   UNL     1      48.431   1.769   6.798  0.00  0.00    +0.000 OA
ATOM     28  H   UNL     1      46.627   3.743   5.068  0.00  0.00    +0.000 HD
ATOM     29  H   UNL     1      48.072   2.887   4.676  0.00  0.00    +0.000 HD
ENDBRANCH  21  25
ENDBRANCH  16  17
ENDBRANCH   1  16
TORSDOF 7
ENDMDL
MODEL 4
REMARK VINA RESULT:    -6.920      1.916      2.305
REMARK INTER + INTRA:         -10.642
REMARK INTER:                  -9.861
REMARK INTRA:                  -0.781
REMARK UNBOUND:                -0.891
REMARK  Name = 
REMARK  9 active torsions:
REMARK  status: ('A' for Active; 'I' for Inactive)
REMARK    1  A    between atoms: C_1  and  O_2
REMARK    2  A    between atoms: O_2  and  C_3
REMARK    3  A    between atoms: C_5  and  C_6
REMARK    4  A    between atoms: C_6  and  C_7
REMARK    5  A    between atoms: C_7  and  N_8
REMARK    6  A    between atoms: C_12  and  C_13
REMARK    7  A    between atoms: C_19  and  S_20
REMARK    8  A    between atoms: S_20  and  C_21
REMARK    9  A    between atoms: N_23  and  C_24
REMARK                            x       y       z     vdW  Elec       q    Type
REMARK                         _______ _______ _______ _____ _____    ______ ____
ROOT
ATOM      1  C   UNL     1      44.058   5.657  12.070  0.00  0.00    +0.000 C 
ENDROOT
BRANCH   1   4
ATOM      2  C   UNL     1      47.311   5.410  14.105  0.00  0.00    +0.000 A 
ATOM      3  C   UNL     1      46.006   5.184  13.678  0.00  0.00    +0.000 A 
ATOM      4  C   UNL     1      45.506   5.811  12.518  0.00  0.00    +0.000 A 
ATOM      5  C   UNL     1      46.371   6.644  11.769  0.00  0.00    +0.000 A 
ATOM      6  C   UNL     1      47.699   6.846  12.167  0.00  0.00    +0.000 A 
ATOM      7  C   UNL     1      48.144   6.237  13.349  0.00  0.00    +0.000 A 
BRANCH   2   9
ATOM      8  C   UNL     1      47.126   3.984  16.015  0.00  0.00    +0.000 C 
ATOM      9  O   UNL     1      47.882   4.912  15.247  0.00  0.00    +0.000 OA
ENDBRANCH   2   9
BRANCH   6  10
ATOM     10  S   UNL     1      48.820   8.002  11.393  0.00  0.00    +0.000 S 
BRANCH  10  11
ATOM     11  C   UNL     1      48.483   9.577  12.246  0.00  0.00    +0.000 C 
ATOM     12  C   UNL     1      49.152  10.843  11.675  0.00  0.00    +0.000 C 
ATOM     13  N   UNL     1      49.679  11.179  13.023  0.00  0.00    +0.000 NA
ATOM     14  C   UNL     1      48.783  12.088  13.738  0.00  0.00    +0.000 C 
ATOM     15  C   UNL     1      49.444   9.781  13.451  0.00  0.00    +0.000 C 
ENDBRANCH  10  11
ENDBRANCH   6  10
ENDBRANCH   1   4
BRANCH   1  16
ATOM     16  C   UNL     1      43.863   5.159  10.633  0.00  0.00    +0.000 C 
BRANCH  16  17
ATOM     17  N   UNL     1      44.077   3.712  10.510  0.00  0.00    +0.000 N 
ATOM     18  C   UNL     1      44.899   3.409   9.403  0.00  0.00    +0.000 A 
ATOM     19  C   UNL     1      45.213   2.081   9.131  0.00  0.00    +0.000 A 
ATOM     20  C   UNL     1      46.037   1.783   8.043  0.00  0.00    +0.000 A 
ATOM     21  C   UNL     1      46.533   2.817   7.244  0.00  0.00    +0.000 A 
ATOM     22  C   UNL     1      46.176   4.104   7.590  0.00  0.00    +0.000 A 
ATOM     23  N   UNL     1      45.384   4.414   8.643  0.00  0.00    +0.000 NA
ATOM     24  H   UNL     1      43.214   3.189  10.427  0.00  0.00    +0.000 HD
BRANCH  21  25
ATOM     25  C   UNL     1      47.391   2.505   6.082  0.00  0.00    +0.000 C 
ATOM     26  N   UNL     1      48.751   2.531   6.229  0.00  0.00    +0.000 N 
ATOM     27  O   UNL     1      46.904   2.229   4.995  0.00  0.00    +0.000 OA
ATOM     28  H   UNL     1      49.263   2.748   7.072  0.00  0.00    +0.000 HD
ATOM     29  H   UNL     1      49.293   2.313   5.403  0.00  0.00    +0.000 HD
ENDBRANCH  21  25
ENDBRANCH  16  17
ENDBRANCH   1  16
TORSDOF 7
ENDMDL
MODEL 5
REMARK VINA RESULT:    -6.686      2.536      3.431
REMARK INTER + INTRA:         -10.312
REMARK INTER:                  -9.633
REMARK INTRA:                  -0.679
REMARK UNBOUND:                -0.891
REMARK  Name = 
REMARK  9 active torsions:
REMARK  status: ('A' for Active; 'I' for Inactive)
REMARK    1  A    between atoms: C_1  and  O_2
REMARK    2  A    between atoms: O_2  and  C_3
REMARK    3  A    between atoms: C_5  and  C_6
REMARK    4  A    between atoms: C_6  and  C_7
REMARK    5  A    between atoms: C_7  and  N_8
REMARK    6  A    between atoms: C_12  and  C_13
REMARK    7  A    between atoms: C_19  and  S_20
REMARK    8  A    between atoms: S_20  and  C_21
REMARK    9  A    between atoms: N_23  and  C_24
REMARK                            x       y       z     vdW  Elec       q    Type
REMARK                         _______ _______ _______ _____ _____    ______ ____
ROOT
ATOM      1  C   UNL     1      43.758   5.672  12.116  0.00  0.00    +0.000 C 
ENDROOT
BRANCH   1   4
ATOM      2  C   UNL     1      45.605   9.029  11.782  0.00  0.00    +0.000 A 
ATOM      3  C   UNL     1      44.586   8.080  11.769  0.00  0.00    +0.000 A 
ATOM      4  C   UNL     1      44.823   6.759  12.199  0.00  0.00    +0.000 A 
ATOM      5  C   UNL     1      46.109   6.423  12.686  0.00  0.00    +0.000 A 
ATOM      6  C   UNL     1      47.130   7.380  12.742  0.00  0.00    +0.000 A 
ATOM      7  C   UNL     1      46.864   8.671  12.266  0.00  0.00    +0.000 A 
BRANCH   2   9
ATOM      8  C   UNL     1      44.320  11.039  11.621  0.00  0.00    +0.000 C 
ATOM      9  O   UNL     1      45.510  10.317  11.327  0.00  0.00    +0.000 OA
ENDBRANCH   2   9
BRANCH   6  10
ATOM     10  S   UNL     1      48.826   7.022  13.179  0.00  0.00    +0.000 S 
BRANCH  10  11
ATOM     11  C   UNL     1      48.832   7.087  15.000  0.00  0.00    +0.000 C 
ATOM     12  C   UNL     1      50.179   6.842  15.708  0.00  0.00    +0.000 C 
ATOM     13  N   UNL     1      49.545   5.812  16.570  0.00  0.00    +0.000 NA
ATOM     14  C   UNL     1      49.089   6.381  17.839  0.00  0.00    +0.000 C 
ATOM     15  C   UNL     1      48.420   5.718  15.613  0.00  0.00    +0.000 C 
ENDBRANCH  10  11
ENDBRANCH   6  10
ENDBRANCH   1   4
BRANCH   1  16
ATOM     16  C   UNL     1      43.462   5.147  10.707  0.00  0.00    +0.000 C 
BRANCH  16  17
ATOM     17  N   UNL     1      43.711   3.706  10.584  0.00  0.00    +0.000 N 
ATOM     18  C   UNL     1      44.655   3.434   9.568  0.00  0.00    +0.000 A 
ATOM     19  C   UNL     1      45.017   2.116   9.311  0.00  0.00    +0.000 A 
ATOM     20  C   UNL     1      45.960   1.850   8.315  0.00  0.00    +0.000 A 
ATOM     21  C   UNL     1      46.524   2.905   7.592  0.00  0.00    +0.000 A 
ATOM     22  C   UNL     1      46.110   4.180   7.918  0.00  0.00    +0.000 A 
ATOM     23  N   UNL     1      45.203   4.460   8.883  0.00  0.00    +0.000 NA
ATOM     24  H   UNL     1      42.871   3.172  10.398  0.00  0.00    +0.000 HD
BRANCH  21  25
ATOM     25  C   UNL     1      47.508   2.626   6.526  0.00  0.00    +0.000 C 
ATOM     26  N   UNL     1      47.315   3.161   5.282  0.00  0.00    +0.000 N 
ATOM     27  O   UNL     1      48.486   1.925   6.740  0.00  0.00    +0.000 OA
ATOM     28  H   UNL     1      46.547   3.747   4.989  0.00  0.00    +0.000 HD
ATOM     29  H   UNL     1      48.016   2.937   4.587  0.00  0.00    +0.000 HD
ENDBRANCH  21  25
ENDBRANCH  16  17
ENDBRANCH   1  16
TORSDOF 7
ENDMDL
MODEL 6
REMARK VINA RESULT:    -6.628      2.075      3.023
REMARK INTER + INTRA:         -10.231
REMARK INTER:                  -9.708
REMARK INTRA:                  -0.523
REMARK UNBOUND:                -0.891
REMARK  Name = 
REMARK  9 active torsions:
REMARK  status: ('A' for Active; 'I' for Inactive)
REMARK    1  A    between atoms: C_1  and  O_2
REMARK    2  A    between atoms: O_2  and  C_3
REMARK    3  A    between atoms: C_5  and  C_6
REMARK    4  A    between atoms: C_6  and  C_7
REMARK    5  A    between atoms: C_7  and  N_8
REMARK    6  A    between atoms: C_12  and  C_13
REMARK    7  A    between atoms: C_19  and  S_20
REMARK    8  A    between atoms: S_20  and  C_21
REMARK    9  A    between atoms: N_23  and  C_24
REMARK                            x       y       z     vdW  Elec       q    Type
REMARK                         _______ _______ _______ _____ _____    ______ ____
ROOT
ATOM      1  C   UNL     1      43.794   4.923  12.309  0.00  0.00    +0.000 C 
ENDROOT
BRANCH   1   4
ATOM      2  C   UNL     1      45.231   8.478  12.012  0.00  0.00    +0.000 A 
ATOM      3  C   UNL     1      44.337   7.412  11.966  0.00  0.00    +0.000 A 
ATOM      4  C   UNL     1      44.714   6.133  12.425  0.00  0.00    +0.000 A 
ATOM      5  C   UNL     1      46.007   5.961  12.975  0.00  0.00    +0.000 A 
ATOM      6  C   UNL     1      46.900   7.036  13.064  0.00  0.00    +0.000 A 
ATOM      7  C   UNL     1      46.501   8.281  12.558  0.00  0.00    +0.000 A 
BRANCH   2   9
ATOM      8  C   UNL     1      43.989   9.904  10.550  0.00  0.00    +0.000 C 
ATOM      9  O   UNL     1      45.001   9.741  11.536  0.00  0.00    +0.000 OA
ENDBRANCH   2   9
BRANCH   6  10
ATOM     10  S   UNL     1      48.604   6.893  13.583  0.00  0.00    +0.000 S 
BRANCH  10  11
ATOM     11  C   UNL     1      49.455   8.216  12.663  0.00  0.00    +0.000 C 
ATOM     12  C   UNL     1      50.030   7.854  11.280  0.00  0.00    +0.000 C 
ATOM     13  N   UNL     1      51.348   8.414  11.675  0.00  0.00    +0.000 NA
ATOM     14  C   UNL     1      51.483   9.811  11.261  0.00  0.00    +0.000 C 
ATOM     15  C   UNL     1      50.944   8.334  13.097  0.00  0.00    +0.000 C 
ENDBRANCH  10  11
ENDBRANCH   6  10
ENDBRANCH   1   4
BRANCH   1  16
ATOM     16  C   UNL     1      43.261   4.635  10.900  0.00  0.00    +0.000 C 
BRANCH  16  17
ATOM     17  N   UNL     1      44.154   5.140   9.850  0.00  0.00    +0.000 N 
ATOM     18  C   UNL     1      44.868   4.087   9.237  0.00  0.00    +0.000 A 
ATOM     19  C   UNL     1      45.764   4.377   8.213  0.00  0.00    +0.000 A 
ATOM     20  C   UNL     1      46.460   3.334   7.599  0.00  0.00    +0.000 A 
ATOM     21  C   UNL     1      46.252   2.017   8.019  0.00  0.00    +0.000 A 
ATOM     22  C   UNL     1      45.341   1.821   9.037  0.00  0.00    +0.000 A 
ATOM     23  N   UNL     1      44.651   2.817   9.641  0.00  0.00    +0.000 NA
ATOM     24  H   UNL     1      44.815   5.828  10.188  0.00  0.00    +0.000 HD
BRANCH  21  25
ATOM     25  C   UNL     1      46.999   0.912   7.383  0.00  0.00    +0.000 C 
ATOM     26  N   UNL     1      47.796   1.179   6.304  0.00  0.00    +0.000 N 
ATOM     27  O   UNL     1      46.912  -0.231   7.806  0.00  0.00    +0.000 OA
ATOM     28  H   UNL     1      47.942   2.078   5.868  0.00  0.00    +0.000 HD
ATOM     29  H   UNL     1      48.284   0.387   5.904  0.00  0.00    +0.000 HD
ENDBRANCH  21  25
ENDBRANCH  16  17
ENDBRANCH   1  16
TORSDOF 7
ENDMDL
MODEL 7
REMARK VINA RESULT:    -6.602      3.688      5.706
REMARK INTER + INTRA:         -10.195
REMARK INTER:                  -9.590
REMARK INTRA:                  -0.604
REMARK UNBOUND:                -0.891
REMARK  Name = 
REMARK  9 active torsions:
REMARK  status: ('A' for Active; 'I' for Inactive)
REMARK    1  A    between atoms: C_1  and  O_2
REMARK    2  A    between atoms: O_2  and  C_3
REMARK    3  A    between atoms: C_5  and  C_6
REMARK    4  A    between atoms: C_6  and  C_7
REMARK    5  A    between atoms: C_7  and  N_8
REMARK    6  A    between atoms: C_12  and  C_13
REMARK    7  A    between atoms: C_19  and  S_20
REMARK    8  A    between atoms: S_20  and  C_21
REMARK    9  A    between atoms: N_23  and  C_24
REMARK                            x       y       z     vdW  Elec       q    Type
REMARK                         _______ _______ _______ _____ _____    ______ ____
ROOT
ATOM      1  C   UNL     1      44.166   5.692  12.025  0.00  0.00    +0.000 C 
ENDROOT
BRANCH   1   4
ATOM      2  C   UNL     1      46.198   8.901  12.625  0.00  0.00    +0.000 A 
ATOM      3  C   UNL     1      45.810   7.564  12.653  0.00  0.00    +0.000 A 
ATOM      4  C   UNL     1      44.671   7.127  11.946  0.00  0.00    +0.000 A 
ATOM      5  C   UNL     1      43.951   8.066  11.170  0.00  0.00    +0.000 A 
ATOM      6  C   UNL     1      44.356   9.405  11.101  0.00  0.00    +0.000 A 
ATOM      7  C   UNL     1      45.469   9.807  11.852  0.00  0.00    +0.000 A 
BRANCH   2   9
ATOM      8  C   UNL     1      48.050   8.579  14.102  0.00  0.00    +0.000 C 
ATOM      9  O   UNL     1      47.241   9.451  13.322  0.00  0.00    +0.000 OA
ENDBRANCH   2   9
BRANCH   6  10
ATOM     10  S   UNL     1      43.429  10.700  10.290  0.00  0.00    +0.000 S 
BRANCH  10  11
ATOM     11  C   UNL     1      41.694  10.318  10.698  0.00  0.00    +0.000 C 
ATOM     12  C   UNL     1      40.606  11.154   9.996  0.00  0.00    +0.000 C 
ATOM     13  N   UNL     1      39.984  11.457  11.311  0.00  0.00    +0.000 NA
ATOM     14  C   UNL     1      38.916  10.508  11.630  0.00  0.00    +0.000 C 
ATOM     15  C   UNL     1      41.242  11.064  11.986  0.00  0.00    +0.000 C 
ENDBRANCH  10  11
ENDBRANCH   6  10
ENDBRANCH   1   4
BRANCH   1  16
ATOM     16  C   UNL     1      43.472   5.168  10.762  0.00  0.00    +0.000 C 
BRANCH  16  17
ATOM     17  N   UNL     1      43.632   3.718  10.597  0.00  0.00    +0.000 N 
ATOM     18  C   UNL     1      44.580   3.419   9.593  0.00  0.00    +0.000 A 
ATOM     19  C   UNL     1      44.864   2.090   9.299  0.00  0.00    +0.000 A 
ATOM     20  C   UNL     1      45.810   1.796   8.315  0.00  0.00    +0.000 A 
ATOM     21  C   UNL     1      46.456   2.835   7.639  0.00  0.00    +0.000 A 
ATOM     22  C   UNL     1      46.116   4.123   7.998  0.00  0.00    +0.000 A 
ATOM     23  N   UNL     1      45.207   4.430   8.953  0.00  0.00    +0.000 NA
ATOM     24  H   UNL     1      42.765   3.245  10.376  0.00  0.00    +0.000 HD
BRANCH  21  25
ATOM     25  C   UNL     1      47.445   2.528   6.585  0.00  0.00    +0.000 C 
ATOM     26  N   UNL     1      47.348   3.158   5.374  0.00  0.00    +0.000 N 
ATOM     27  O   UNL     1      48.342   1.721   6.779  0.00  0.00    +0.000 OA
ATOM     28  H   UNL     1      46.651   3.835   5.100  0.00  0.00    +0.000 HD
ATOM     29  H   UNL     1      48.047   2.911   4.685  0.00  0.00    +0.000 HD
ENDBRANCH  21  25
ENDBRANCH  16  17
ENDBRANCH   1  16
TORSDOF 7
ENDMDL
MODEL 8
REMARK VINA RESULT:    -6.211      3.854      8.184
REMARK INTER + INTRA:          -9.643
REMARK INTER:                  -9.589
REMARK INTRA:                  -0.055
REMARK UNBOUND:                -0.891
REMARK  Name = 
REMARK  9 active torsions:
REMARK  status: ('A' for Active; 'I' for Inactive)
REMARK    1  A    between atoms: C_1  and  O_2
REMARK    2  A    between atoms: O_2  and  C_3
REMARK    3  A    between atoms: C_5  and  C_6
REMARK    4  A    between atoms: C_6  and  C_7
REMARK    5  A    between atoms: C_7  and  N_8
REMARK    6  A    between atoms: C_12  and  C_13
REMARK    7  A    between atoms: C_19  and  S_20
REMARK    8  A    between atoms: S_20  and  C_21
REMARK    9  A    between atoms: N_23  and  C_24
REMARK                            x       y       z     vdW  Elec       q    Type
REMARK                         _______ _______ _______ _____ _____    ______ ____
ROOT
ATOM      1  C   UNL     1      47.252   3.939  15.031  0.00  0.00    +0.000 C 
ENDROOT
BRANCH   1   4
ATOM      2  C   UNL     1      46.992   7.145  12.924  0.00  0.00    +0.000 A 
ATOM      3  C   UNL     1      47.497   6.169  13.779  0.00  0.00    +0.000 A 
ATOM      4  C   UNL     1      46.773   4.987  14.034  0.00  0.00    +0.000 A 
ATOM      5  C   UNL     1      45.538   4.789  13.371  0.00  0.00    +0.000 A 
ATOM      6  C   UNL     1      45.040   5.745  12.477  0.00  0.00    +0.000 A 
ATOM      7  C   UNL     1      45.771   6.926  12.284  0.00  0.00    +0.000 A 
BRANCH   2   9
ATOM      8  C   UNL     1      48.762   8.364  11.878  0.00  0.00    +0.000 C 
ATOM      9  O   UNL     1      47.571   8.357  12.654  0.00  0.00    +0.000 OA
ENDBRANCH   2   9
BRANCH   6  10
ATOM     10  S   UNL     1      43.423   5.673  11.720  0.00  0.00    +0.000 S 
BRANCH  10  11
ATOM     11  C   UNL     1      43.568   4.322  10.505  0.00  0.00    +0.000 C 
ATOM     12  C   UNL     1      43.863   2.912  11.053  0.00  0.00    +0.000 C 
ATOM     13  N   UNL     1      44.999   2.776  10.105  0.00  0.00    +0.000 NA
ATOM     14  C   UNL     1      44.590   2.109   8.869  0.00  0.00    +0.000 C 
ATOM     15  C   UNL     1      45.007   4.245   9.919  0.00  0.00    +0.000 C 
ENDBRANCH  10  11
ENDBRANCH   6  10
ENDBRANCH   1   4
BRANCH   1  16
ATOM     16  C   UNL     1      47.195   4.357  16.505  0.00  0.00    +0.000 C 
BRANCH  16  17
ATOM     17  N   UNL     1      48.435   5.003  16.951  0.00  0.00    +0.000 N 
ATOM     18  C   UNL     1      49.465   4.055  17.144  0.00  0.00    +0.000 A 
ATOM     19  C   UNL     1      50.718   4.487  17.566  0.00  0.00    +0.000 A 
ATOM     20  C   UNL     1      51.738   3.551  17.744  0.00  0.00    +0.000 A 
ATOM     21  C   UNL     1      51.491   2.198  17.499  0.00  0.00    +0.000 A 
ATOM     22  C   UNL     1      50.221   1.859  17.078  0.00  0.00    +0.000 A 
ATOM     23  N   UNL     1      49.219   2.752  16.893  0.00  0.00    +0.000 NA
ATOM     24  H   UNL     1      48.320   5.536  17.804  0.00  0.00    +0.000 HD
BRANCH  21  25
ATOM     25  C   UNL     1      52.563   1.202  17.703  0.00  0.00    +0.000 C 
ATOM     26  N   UNL     1      52.255  -0.006  18.267  0.00  0.00    +0.000 N 
ATOM     27  O   UNL     1      53.716   1.443  17.378  0.00  0.00    +0.000 OA
ATOM     28  H   UNL     1      51.344  -0.313  18.576  0.00  0.00    +0.000 HD
ATOM     29  H   UNL     1      53.025  -0.651  18.387  0.00  0.00    +0.000 HD
ENDBRANCH  21  25
ENDBRANCH  16  17
ENDBRANCH   1  16
TORSDOF 7
ENDMDL
MODEL 9
REMARK VINA RESULT:    -6.206      1.527      1.847
REMARK INTER + INTRA:          -9.636
REMARK INTER:                 -10.167
REMARK INTRA:                   0.532
REMARK UNBOUND:                -0.891
REMARK  Name = 
REMARK  9 active torsions:
REMARK  status: ('A' for Active; 'I' for Inactive)
REMARK    1  A    between atoms: C_1  and  O_2
REMARK    2  A    between atoms: O_2  and  C_3
REMARK    3  A    between atoms: C_5  and  C_6
REMARK    4  A    between atoms: C_6  and  C_7
REMARK    5  A    between atoms: C_7  and  N_8
REMARK    6  A    between atoms: C_12  and  C_13
REMARK    7  A    between atoms: C_19  and  S_20
REMARK    8  A    between atoms: S_20  and  C_21
REMARK    9  A    between atoms: N_23  and  C_24
REMARK                            x       y       z     vdW  Elec       q    Type
REMARK                         _______ _______ _______ _____ _____    ______ ____
ROOT
ATOM      1  C   UNL     1      45.212   5.838  10.626  0.00  0.00    +0.000 C 
ENDROOT
BRANCH   1   4
ATOM      2  C   UNL     1      46.627   4.786  14.043  0.00  0.00    +0.000 A 
ATOM      3  C   UNL     1      45.875   4.779  12.872  0.00  0.00    +0.000 A 
ATOM      4  C   UNL     1      46.075   5.760  11.879  0.00  0.00    +0.000 A 
ATOM      5  C   UNL     1      47.087   6.731  12.077  0.00  0.00    +0.000 A 
ATOM      6  C   UNL     1      47.876   6.723  13.233  0.00  0.00    +0.000 A 
ATOM      7  C   UNL     1      47.617   5.756  14.214  0.00  0.00    +0.000 A 
BRANCH   2   9
ATOM      8  C   UNL     1      47.410   4.024  16.170  0.00  0.00    +0.000 C 
ATOM      9  O   UNL     1      46.475   3.929  15.101  0.00  0.00    +0.000 OA
ENDBRANCH   2   9
BRANCH   6  10
ATOM     10  S   UNL     1      49.059   7.993  13.657  0.00  0.00    +0.000 S 
BRANCH  10  11
ATOM     11  C   UNL     1      49.642   7.515  15.315  0.00  0.00    +0.000 C 
ATOM     12  C   UNL     1      49.796   8.639  16.358  0.00  0.00    +0.000 C 
ATOM     13  N   UNL     1      51.183   8.190  16.646  0.00  0.00    +0.000 NA
ATOM     14  C   UNL     1      51.223   7.263  17.777  0.00  0.00    +0.000 C 
ATOM     15  C   UNL     1      51.195   7.444  15.367  0.00  0.00    +0.000 C 
ENDBRANCH  10  11
ENDBRANCH   6  10
ENDBRANCH   1   4
BRANCH   1  16
ATOM     16  C   UNL     1      43.921   5.012  10.664  0.00  0.00    +0.000 C 
BRANCH  16  17
ATOM     17  N   UNL     1      44.174   3.572  10.534  0.00  0.00    +0.000 N 
ATOM     18  C   UNL     1      44.947   3.290   9.386  0.00  0.00    +0.000 A 
ATOM     19  C   UNL     1      45.288   1.971   9.102  0.00  0.00    +0.000 A 
ATOM     20  C   UNL     1      46.063   1.695   7.974  0.00  0.00    +0.000 A 
ATOM     21  C   UNL     1      46.483   2.740   7.146  0.00  0.00    +0.000 A 
ATOM     22  C   UNL     1      46.103   4.016   7.506  0.00  0.00    +0.000 A 
ATOM     23  N   UNL     1      45.358   4.307   8.599  0.00  0.00    +0.000 NA
ATOM     24  H   UNL     1      43.325   3.021  10.498  0.00  0.00    +0.000 HD
BRANCH  21  25
ATOM     25  C   UNL     1      47.289   2.450   5.941  0.00  0.00    +0.000 C 
ATOM     26  N   UNL     1      48.651   2.385   6.048  0.00  0.00    +0.000 N 
ATOM     27  O   UNL     1      46.756   2.272   4.856  0.00  0.00    +0.000 OA
ATOM     28  H   UNL     1      49.198   2.518   6.886  0.00  0.00    +0.000 HD
ATOM     29  H   UNL     1      49.156   2.187   5.194  0.00  0.00    +0.000 HD
ENDBRANCH  21  25
ENDBRANCH  16  17
ENDBRANCH   1  16
TORSDOF 7
ENDMDL
