MODEL 1
REMARK VINA RESULT:    -8.550      0.000      0.000
REMARK INTER + INTRA:         -12.499
REMARK INTER:                 -11.550
REMARK INTRA:                  -0.949
REMARK UNBOUND:                -0.949
REMARK  Name = 
REMARK  6 active torsions:
REMARK  status: ('A' for Active; 'I' for Inactive)
REMARK    1  A    between atoms: C_2  and  C_4
REMARK    2  A    between atoms: C_7  and  O_8
REMARK    3  A    between atoms: O_8  and  C_9
REMARK    4  A    between atoms: C_9  and  C_10
REMARK    5  A    between atoms: C_10  and  C_11
REMARK    6  A    between atoms: C_15  and  C_16
REMARK                            x       y       z     vdW  Elec       q    Type
REMARK                         _______ _______ _______ _____ _____    ______ ____
ROOT
ATOM      1  C   UNL     1      43.540   3.781  12.669  0.00  0.00    +0.000 C 
ENDROOT
BRANCH   1   2
ATOM      2  C   UNL     1      44.555   4.889  12.521  0.00  0.00    +0.000 A 
ATOM      3  C   UNL     1      45.894   4.685  12.871  0.00  0.00    +0.000 A 
ATOM      4  C   UNL     1      46.824   5.718  12.742  0.00  0.00    +0.000 A 
ATOM      5  C   UNL     1      46.426   6.966  12.258  0.00  0.00    +0.000 A 
ATOM      6  C   UNL     1      45.090   7.197  11.904  0.00  0.00    +0.000 A 
ATOM      7  C   UNL     1      44.161   6.152  12.056  0.00  0.00    +0.000 A 
BRANCH   6   8
ATOM      8  C   UNL     1      44.672   8.530  11.305  0.00  0.00    +0.000 C 
ATOM      9  C   UNL     1      45.097   9.719  12.186  0.00  0.00    +0.000 C 
ATOM     10  C   UNL     1      44.603  11.043  11.606  0.00  0.00    +0.000 C 
ATOM     11  C   UNL     1      43.106  10.980  11.317  0.00  0.00    +0.000 C 
ATOM     12  C   UNL     1      42.761   9.768  10.457  0.00  0.00    +0.000 C 
ATOM     13  N   UNL     1      43.218   8.533  11.082  0.00  0.00    +0.000 NA
ATOM     14  H   UNL     1      42.981   7.736  10.491  0.00  0.00    +0.000 HD
ENDBRANCH   6   8
ENDBRANCH   1   2
BRANCH   1  15
ATOM     15  C   UNL     1      43.533   2.880  11.437  0.00  0.00    +0.000 C 
BRANCH  15  16
ATOM     16  O   UNL     1      43.572   3.674  10.246  0.00  0.00    +0.000 OA
BRANCH  16  20
ATOM     17  C   UNL     1      46.510   2.408   7.558  0.00  0.00    +0.000 A 
ATOM     18  C   UNL     1      46.184   3.765   7.605  0.00  0.00    +0.000 A 
ATOM     19  C   UNL     1      45.207   4.222   8.493  0.00  0.00    +0.000 A 
ATOM     20  C   UNL     1      44.538   3.330   9.336  0.00  0.00    +0.000 A 
ATOM     21  C   UNL     1      44.848   1.969   9.268  0.00  0.00    +0.000 A 
ATOM     22  C   UNL     1      45.826   1.506   8.378  0.00  0.00    +0.000 A 
BRANCH  17  24
ATOM     23  N   UNL     1      48.662   2.686   6.456  0.00  0.00    +0.000 N 
ATOM     24  C   UNL     1      47.556   1.900   6.635  0.00  0.00    +0.000 C 
ATOM     25  O   UNL     1      47.456   0.813   6.080  0.00  0.00    +0.000 OA
ATOM     26  H   UNL     1      49.413   2.284   5.908  0.00  0.00    +0.000 HD
ATOM     27  H   UNL     1      48.892   3.442   7.082  0.00  0.00    +0.000 HD
ENDBRANCH  17  24
ENDBRANCH  16  20
ENDBRANCH  15  16
ENDBRANCH   1  15
TORSDOF 6
ENDMDL
MODEL 2
REMARK VINA RESULT:    -8.536      2.751      4.749
REMARK INTER + INTRA:         -12.479
REMARK INTER:                 -11.516
REMARK INTRA:                  -0.963
REMARK UNBOUND:                -0.949
REMARK  Name = 
REMARK  6 active torsions:
REMARK  status: ('A' for Active; 'I' for Inactive)
REMARK    1  A    between atoms: C_2  and  C_4
REMARK    2  A    between atoms: C_7  and  O_8
REMARK    3  A    between atoms: O_8  and  C_9
REMARK    4  A    between atoms: C_9  and  C_10
REMARK    5  A    between atoms: C_10  and  C_11
REMARK    6  A    between atoms: C_15  and  C_16
REMARK                            x       y       z     vdW  Elec       q    Type
REMARK                         _______ _______ _______ _____ _____    ______ ____
ROOT
ATOM      1  C   UNL     1      43.634   4.936  11.714  0.00  0.00    +0.000 C 
ENDROOT
BRANCH   1   2
ATOM      2  C   UNL     1      44.999   5.280  12.261  0.00  0.00    +0.000 A 
ATOM      3  C   UNL     1      45.844   6.159  11.575  0.00  0.00    +0.000 A 
ATOM      4  C   UNL     1      47.108   6.464  12.083  0.00  0.00    +0.000 A 
ATOM      5  C   UNL     1      47.540   5.896  13.282  0.00  0.00    +0.000 A 
ATOM      6  C   UNL     1      46.714   5.009  13.987  0.00  0.00    +0.000 A 
ATOM      7  C   UNL     1      45.450   4.699  13.454  0.00  0.00    +0.000 A 
BRANCH   6   8
ATOM      8  C   UNL     1      47.152   4.453  15.331  0.00  0.00    +0.000 C 
ATOM      9  C   UNL     1      48.147   5.385  16.046  0.00  0.00    +0.000 C 
ATOM     10  C   UNL     1      48.634   4.773  17.359  0.00  0.00    +0.000 C 
ATOM     11  C   UNL     1      49.153   3.356  17.134  0.00  0.00    +0.000 C 
ATOM     12  C   UNL     1      48.121   2.500  16.405  0.00  0.00    +0.000 C 
ATOM     13  N   UNL     1      47.729   3.113  15.142  0.00  0.00    +0.000 NA
ATOM     14  H   UNL     1      47.038   2.528  14.672  0.00  0.00    +0.000 HD
ENDBRANCH   6   8
ENDBRANCH   1   2
BRANCH   1  15
ATOM     15  C   UNL     1      43.692   4.709  10.206  0.00  0.00    +0.000 C 
BRANCH  15  16
ATOM     16  O   UNL     1      43.724   3.306   9.920  0.00  0.00    +0.000 OA
BRANCH  16  20
ATOM     17  C   UNL     1      46.791   2.269   7.278  0.00  0.00    +0.000 A 
ATOM     18  C   UNL     1      46.222   1.269   8.070  0.00  0.00    +0.000 A 
ATOM     19  C   UNL     1      45.193   1.582   8.963  0.00  0.00    +0.000 A 
ATOM     20  C   UNL     1      44.729   2.895   9.082  0.00  0.00    +0.000 A 
ATOM     21  C   UNL     1      45.320   3.897   8.308  0.00  0.00    +0.000 A 
ATOM     22  C   UNL     1      46.352   3.590   7.413  0.00  0.00    +0.000 A 
BRANCH  17  24
ATOM     23  N   UNL     1      48.926   2.832   6.255  0.00  0.00    +0.000 N 
ATOM     24  C   UNL     1      47.874   1.960   6.311  0.00  0.00    +0.000 C 
ATOM     25  O   UNL     1      47.849   0.953   5.613  0.00  0.00    +0.000 OA
ATOM     26  H   UNL     1      49.706   2.557   5.670  0.00  0.00    +0.000 HD
ATOM     27  H   UNL     1      49.102   3.510   6.981  0.00  0.00    +0.000 HD
ENDBRANCH  17  24
ENDBRANCH  16  20
ENDBRANCH  15  16
ENDBRANCH   1  15
TORSDOF 6
ENDMDL
MODEL 3
REMARK VINA RESULT:    -7.781      1.421      2.117
REMARK INTER + INTRA:         -11.460
REMARK INTER:                 -10.416
REMARK INTRA:                  -1.044
REMARK UNBOUND:                -0.949
REMARK  Name = 
REMARK  6 active torsions:
REMARK  status: ('A' for Active; 'I' for Inactive)
REMARK    1  A    between atoms: C_2  and  C_4
REMARK    2  A    between atoms: C_7  and  O_8
REMARK    3  A    between atoms: O_8  and  C_9
REMARK    4  A    between atoms: C_9  and  C_10
REMARK    5  A    between atoms: C_10  and  C_11
REMARK    6  A    between atoms: C_15  and  C_16
REMARK                            x       y       z     vdW  Elec       q    Type
REMARK                         _______ _______ _______ _____ _____    ______ ____
ROOT
ATOM      1  C   UNL     1      43.263   4.767  12.447  0.00  0.00    +0.000 C 
ENDROOT
BRANCH   1   2
ATOM      2  C   UNL     1      44.663   5.291  12.660  0.00  0.00    +0.000 A 
ATOM      3  C   UNL     1      45.635   4.502  13.286  0.00  0.00    +0.000 A 
ATOM      4  C   UNL     1      46.924   4.998  13.489  0.00  0.00    +0.000 A 
ATOM      5  C   UNL     1      47.256   6.286  13.066  0.00  0.00    +0.000 A 
ATOM      6  C   UNL     1      46.300   7.097  12.439  0.00  0.00    +0.000 A 
ATOM      7  C   UNL     1      45.001   6.590  12.258  0.00  0.00    +0.000 A 
BRANCH   6   8
ATOM      8  C   UNL     1      46.684   8.469  11.908  0.00  0.00    +0.000 C 
ATOM      9  C   UNL     1      48.154   8.814  12.207  0.00  0.00    +0.000 C 
ATOM     10  C   UNL     1      48.499  10.226  11.734  0.00  0.00    +0.000 C 
ATOM     11  C   UNL     1      47.494  11.237  12.278  0.00  0.00    +0.000 C 
ATOM     12  C   UNL     1      46.062  10.818  11.960  0.00  0.00    +0.000 C 
ATOM     13  N   UNL     1      45.779   9.483  12.474  0.00  0.00    +0.000 NA
ATOM     14  H   UNL     1      44.820   9.220  12.249  0.00  0.00    +0.000 HD
ENDBRANCH   6   8
ENDBRANCH   1   2
BRANCH   1  15
ATOM     15  C   UNL     1      43.220   3.784  11.281  0.00  0.00    +0.000 C 
BRANCH  15  16
ATOM     16  O   UNL     1      43.669   4.425  10.081  0.00  0.00    +0.000 OA
BRANCH  16  20
ATOM     17  C   UNL     1      46.559   2.503   7.753  0.00  0.00    +0.000 A 
ATOM     18  C   UNL     1      45.729   1.728   8.567  0.00  0.00    +0.000 A 
ATOM     19  C   UNL     1      44.752   2.340   9.357  0.00  0.00    +0.000 A 
ATOM     20  C   UNL     1      44.598   3.729   9.351  0.00  0.00    +0.000 A 
ATOM     21  C   UNL     1      45.447   4.502   8.555  0.00  0.00    +0.000 A 
ATOM     22  C   UNL     1      46.430   3.896   7.763  0.00  0.00    +0.000 A 
BRANCH  17  24
ATOM     23  N   UNL     1      48.439   2.719   6.223  0.00  0.00    +0.000 N 
ATOM     24  C   UNL     1      47.594   1.877   6.893  0.00  0.00    +0.000 C 
ATOM     25  O   UNL     1      47.714   0.661   6.807  0.00  0.00    +0.000 OA
ATOM     26  H   UNL     1      49.204   2.282   5.724  0.00  0.00    +0.000 HD
ATOM     27  H   UNL     1      48.536   3.692   6.470  0.00  0.00    +0.000 HD
ENDBRANCH  17  24
ENDBRANCH  16  20
ENDBRANCH  15  16
ENDBRANCH   1  15
TORSDOF 6
ENDMDL
MODEL 4
REMARK VINA RESULT:    -7.519      2.310      3.822
REMARK INTER + INTRA:         -11.106
REMARK INTER:                 -10.366
REMARK INTRA:                  -0.739
REMARK UNBOUND:                -0.949
REMARK  Name = 
REMARK  6 active torsions:
REMARK  status: ('A' for Active; 'I' for Inactive)
REMARK    1  A    between atoms: C_2  and  C_4
REMARK    2  A    between atoms: C_7  and  O_8
REMARK    3  A    between atoms: O_8  and  C_9
REMARK    4  A    between atoms: C_9  and  C_10
REMARK    5  A    between atoms: C_10  and  C_11
REMARK    6  A    between atoms: C_15  and  C_16
REMARK                            x       y       z     vdW  Elec       q    Type
REMARK                         _______ _______ _______ _____ _____    ______ ____
ROOT
ATOM      1  C   UNL     1      44.682   5.055  11.758  0.00  0.00    +0.000 C 
ENDROOT
BRANCH   1   2
ATOM      2  C   UNL     1      45.143   6.468  12.022  0.00  0.00    +0.000 A 
ATOM      3  C   UNL     1      44.471   7.558  11.458  0.00  0.00    +0.000 A 
ATOM      4  C   UNL     1      44.911   8.861  11.698  0.00  0.00    +0.000 A 
ATOM      5  C   UNL     1      46.025   9.088  12.508  0.00  0.00    +0.000 A 
ATOM      6  C   UNL     1      46.718   8.014  13.082  0.00  0.00    +0.000 A 
ATOM      7  C   UNL     1      46.273   6.706  12.816  0.00  0.00    +0.000 A 
BRANCH   6   8
ATOM      8  C   UNL     1      47.883   8.265  14.026  0.00  0.00    +0.000 C 
ATOM      9  C   UNL     1      48.646   6.970  14.359  0.00  0.00    +0.000 C 
ATOM     10  C   UNL     1      49.764   7.231  15.368  0.00  0.00    +0.000 C 
ATOM     11  C   UNL     1      49.228   7.974  16.587  0.00  0.00    +0.000 C 
ATOM     12  C   UNL     1      48.469   9.232  16.176  0.00  0.00    +0.000 C 
ATOM     13  N   UNL     1      47.389   8.915  15.250  0.00  0.00    +0.000 NA
ATOM     14  H   UNL     1      46.896   9.768  14.986  0.00  0.00    +0.000 HD
ENDBRANCH   6   8
ENDBRANCH   1   2
BRANCH   1  15
ATOM     15  C   UNL     1      43.889   4.974  10.456  0.00  0.00    +0.000 C 
BRANCH  15  16
ATOM     16  O   UNL     1      43.707   3.605  10.076  0.00  0.00    +0.000 OA
BRANCH  16  20
ATOM     17  C   UNL     1      46.625   2.261   7.403  0.00  0.00    +0.000 A 
ATOM     18  C   UNL     1      46.005   1.332   8.241  0.00  0.00    +0.000 A 
ATOM     19  C   UNL     1      45.025   1.749   9.146  0.00  0.00    +0.000 A 
ATOM     20  C   UNL     1      44.659   3.095   9.230  0.00  0.00    +0.000 A 
ATOM     21  C   UNL     1      45.300   4.025   8.408  0.00  0.00    +0.000 A 
ATOM     22  C   UNL     1      46.285   3.614   7.501  0.00  0.00    +0.000 A 
BRANCH  17  24
ATOM     23  N   UNL     1      48.776   2.623   6.325  0.00  0.00    +0.000 N 
ATOM     24  C   UNL     1      47.657   1.842   6.422  0.00  0.00    +0.000 C 
ATOM     25  O   UNL     1      47.535   0.825   5.750  0.00  0.00    +0.000 OA
ATOM     26  H   UNL     1      49.518   2.272   5.731  0.00  0.00    +0.000 HD
ATOM     27  H   UNL     1      49.023   3.301   7.030  0.00  0.00    +0.000 HD
ENDBRANCH  17  24
ENDBRANCH  16  20
ENDBRANCH  15  16
ENDBRANCH   1  15
TORSDOF 6
ENDMDL
MODEL 5
REMARK VINA RESULT:    -7.327      2.634      3.571
REMARK INTER + INTRA:         -10.846
REMARK INTER:                  -9.925
REMARK INTRA:                  -0.921
REMARK UNBOUND:                -0.949
REMARK  Name = 
REMARK  6 active torsions:
REMARK  status: ('A' for Active; 'I' for Inactive)
REMARK    1  A    between atoms: C_2  and  C_4
REMARK    2  A    between atoms: C_7  and  O_8
REMARK    3  A    between atoms: O_8  and  C_9
REMARK    4  A    between atoms: C_9  and  C_10
REMARK    5  A    between atoms: C_10  and  C_11
REMARK    6  A    between atoms: C_15  and  C_16
REMARK                            x       y       z     vdW  Elec       q    Type
REMARK                         _______ _______ _______ _____ _____    ______ ____
ROOT
ATOM      1  C   UNL     1      44.509   6.118  11.456  0.00  0.00    +0.000 C 
ENDROOT
BRANCH   1   2
ATOM      2  C   UNL     1      45.885   6.268  12.060  0.00  0.00    +0.000 A 
ATOM      3  C   UNL     1      46.254   5.534  13.193  0.00  0.00    +0.000 A 
ATOM      4  C   UNL     1      47.524   5.686  13.750  0.00  0.00    +0.000 A 
ATOM      5  C   UNL     1      48.441   6.571  13.180  0.00  0.00    +0.000 A 
ATOM      6  C   UNL     1      48.095   7.321  12.048  0.00  0.00    +0.000 A 
ATOM      7  C   UNL     1      46.805   7.169  11.507  0.00  0.00    +0.000 A 
BRANCH   6   8
ATOM      8  C   UNL     1      49.119   8.225  11.381  0.00  0.00    +0.000 C 
ATOM      9  C   UNL     1      50.557   7.712  11.577  0.00  0.00    +0.000 C 
ATOM     10  C   UNL     1      51.576   8.673  10.966  0.00  0.00    +0.000 C 
ATOM     11  C   UNL     1      51.343  10.096  11.468  0.00  0.00    +0.000 C 
ATOM     12  C   UNL     1      49.894  10.524  11.258  0.00  0.00    +0.000 C 
ATOM     13  N   UNL     1      48.972   9.594  11.899  0.00  0.00    +0.000 NA
ATOM     14  H   UNL     1      48.011   9.897  11.745  0.00  0.00    +0.000 HD
ENDBRANCH   6   8
ENDBRANCH   1   2
BRANCH   1  15
ATOM     15  C   UNL     1      44.071   4.656  11.452  0.00  0.00    +0.000 C 
BRANCH  15  16
ATOM     16  O   UNL     1      43.619   4.282  10.145  0.00  0.00    +0.000 OA
BRANCH  16  20
ATOM     17  C   UNL     1      46.486   2.441   7.726  0.00  0.00    +0.000 A 
ATOM     18  C   UNL     1      46.361   3.831   7.678  0.00  0.00    +0.000 A 
ATOM     19  C   UNL     1      45.413   4.478   8.475  0.00  0.00    +0.000 A 
ATOM     20  C   UNL     1      44.574   3.746   9.320  0.00  0.00    +0.000 A 
ATOM     21  C   UNL     1      44.685   2.353   9.346  0.00  0.00    +0.000 A 
ATOM     22  C   UNL     1      45.632   1.699   8.548  0.00  0.00    +0.000 A 
BRANCH  17  24
ATOM     23  N   UNL     1      48.548   2.471   6.434  0.00  0.00    +0.000 N 
ATOM     24  C   UNL     1      47.496   1.731   6.902  0.00  0.00    +0.000 C 
ATOM     25  O   UNL     1      47.417   0.530   6.674  0.00  0.00    +0.000 OA
ATOM     26  H   UNL     1      49.283   1.957   5.963  0.00  0.00    +0.000 HD
ATOM     27  H   UNL     1      48.779   3.377   6.812  0.00  0.00    +0.000 HD
ENDBRANCH  17  24
ENDBRANCH  16  20
ENDBRANCH  15  16
ENDBRANCH   1  15
TORSDOF 6
ENDMDL
MODEL 6
REMARK VINA RESULT:    -7.290      2.751      3.896
REMARK INTER + INTRA:         -10.796
REMARK INTER:                  -9.871
REMARK INTRA:                  -0.925
REMARK UNBOUND:                -0.949
REMARK  Name = 
REMARK  6 active torsions:
REMARK  status: ('A' for Active; 'I' for Inactive)
REMARK    1  A    between atoms: C_2  and  C_4
REMARK    2  A    between atoms: C_7  and  O_8
REMARK    3  A    between atoms: O_8  and  C_9
REMARK    4  A    between atoms: C_9  and  C_10
REMARK    5  A    between atoms: C_10  and  C_11
REMARK    6  A    between atoms: C_15  and  C_16
REMARK                            x       y       z     vdW  Elec       q    Type
REMARK                         _______ _______ _______ _____ _____    ______ ____
ROOT
ATOM      1  C   UNL     1      44.866   6.231  11.243  0.00  0.00    +0.000 C 
ENDROOT
BRANCH   1   2
ATOM      2  C   UNL     1      45.832   5.936  12.366  0.00  0.00    +0.000 A 
ATOM      3  C   UNL     1      45.899   4.660  12.936  0.00  0.00    +0.000 A 
ATOM      4  C   UNL     1      46.787   4.400  13.981  0.00  0.00    +0.000 A 
ATOM      5  C   UNL     1      47.619   5.410  14.465  0.00  0.00    +0.000 A 
ATOM      6  C   UNL     1      47.569   6.697  13.914  0.00  0.00    +0.000 A 
ATOM      7  C   UNL     1      46.657   6.949  12.873  0.00  0.00    +0.000 A 
BRANCH   6   8
ATOM      8  C   UNL     1      48.530   7.776  14.387  0.00  0.00    +0.000 C 
ATOM      9  C   UNL     1      49.836   7.181  14.943  0.00  0.00    +0.000 C 
ATOM     10  C   UNL     1      50.756   8.276  15.484  0.00  0.00    +0.000 C 
ATOM     11  C   UNL     1      50.008   9.173  16.465  0.00  0.00    +0.000 C 
ATOM     12  C   UNL     1      48.718   9.707  15.850  0.00  0.00    +0.000 C 
ATOM     13  N   UNL     1      47.863   8.617  15.394  0.00  0.00    +0.000 NA
ATOM     14  H   UNL     1      47.009   8.994  14.985  0.00  0.00    +0.000 HD
ENDBRANCH   6   8
ENDBRANCH   1   2
BRANCH   1  15
ATOM     15  C   UNL     1      43.815   5.131  11.125  0.00  0.00    +0.000 C 
BRANCH  15  16
ATOM     16  O   UNL     1      43.551   4.849   9.746  0.00  0.00    +0.000 OA
BRANCH  16  20
ATOM     17  C   UNL     1      46.142   2.046   8.045  0.00  0.00    +0.000 A 
ATOM     18  C   UNL     1      46.234   3.379   7.637  0.00  0.00    +0.000 A 
ATOM     19  C   UNL     1      45.383   4.342   8.187  0.00  0.00    +0.000 A 
ATOM     20  C   UNL     1      44.426   3.984   9.141  0.00  0.00    +0.000 A 
ATOM     21  C   UNL     1      44.319   2.645   9.527  0.00  0.00    +0.000 A 
ATOM     22  C   UNL     1      45.168   1.676   8.978  0.00  0.00    +0.000 A 
BRANCH  17  24
ATOM     23  N   UNL     1      48.045   1.434   6.657  0.00  0.00    +0.000 N 
ATOM     24  C   UNL     1      47.045   1.008   7.488  0.00  0.00    +0.000 C 
ATOM     25  O   UNL     1      46.927  -0.175   7.781  0.00  0.00    +0.000 OA
ATOM     26  H   UNL     1      48.716   0.734   6.368  0.00  0.00    +0.000 HD
ATOM     27  H   UNL     1      48.326   2.402   6.605  0.00  0.00    +0.000 HD
ENDBRANCH  17  24
ENDBRANCH  16  20
ENDBRANCH  15  16
ENDBRANCH   1  15
TORSDOF 6
ENDMDL
MODEL 7
REMARK VINA RESULT:    -7.235      3.642      7.467
REMARK INTER + INTRA:         -10.722
REMARK INTER:                  -9.562
REMARK INTRA:                  -1.160
REMARK UNBOUND:                -0.949
REMARK  Name = 
REMARK  6 active torsions:
REMARK  status: ('A' for Active; 'I' for Inactive)
REMARK    1  A    between atoms: C_2  and  C_4
REMARK    2  A    between atoms: C_7  and  O_8
REMARK    3  A    between atoms: O_8  and  C_9
REMARK    4  A    between atoms: C_9  and  C_10
REMARK    5  A    between atoms: C_10  and  C_11
REMARK    6  A    between atoms: C_15  and  C_16
REMARK                            x       y       z     vdW  Elec       q    Type
REMARK                         _______ _______ _______ _____ _____    ______ ____
ROOT
ATOM      1  C   UNL     1      45.488   7.699  11.509  0.00  0.00    +0.000 C 
ENDROOT
BRANCH   1   2
ATOM      2  C   UNL     1      44.840   6.364  11.231  0.00  0.00    +0.000 A 
ATOM      3  C   UNL     1      43.794   5.895  12.033  0.00  0.00    +0.000 A 
ATOM      4  C   UNL     1      43.208   4.654  11.775  0.00  0.00    +0.000 A 
ATOM      5  C   UNL     1      43.660   3.870  10.713  0.00  0.00    +0.000 A 
ATOM      6  C   UNL     1      44.709   4.315   9.897  0.00  0.00    +0.000 A 
ATOM      7  C   UNL     1      45.300   5.560  10.179  0.00  0.00    +0.000 A 
BRANCH   6   8
ATOM      8  C   UNL     1      45.148   3.498   8.693  0.00  0.00    +0.000 C 
ATOM      9  C   UNL     1      45.717   2.127   9.101  0.00  0.00    +0.000 C 
ATOM     10  C   UNL     1      46.223   1.353   7.885  0.00  0.00    +0.000 C 
ATOM     11  C   UNL     1      47.179   2.209   7.060  0.00  0.00    +0.000 C 
ATOM     12  C   UNL     1      46.552   3.555   6.711  0.00  0.00    +0.000 C 
ATOM     13  N   UNL     1      46.131   4.266   7.912  0.00  0.00    +0.000 NA
ATOM     14  H   UNL     1      45.713   5.161   7.658  0.00  0.00    +0.000 HD
ENDBRANCH   6   8
ENDBRANCH   1   2
BRANCH   1  15
ATOM     15  C   UNL     1      46.094   7.731  12.909  0.00  0.00    +0.000 C 
BRANCH  15  16
ATOM     16  O   UNL     1      47.322   6.994  12.929  0.00  0.00    +0.000 OA
BRANCH  16  20
ATOM     17  C   UNL     1      47.818   4.558  16.289  0.00  0.00    +0.000 A 
ATOM     18  C   UNL     1      48.553   5.743  16.205  0.00  0.00    +0.000 A 
ATOM     19  C   UNL     1      48.410   6.580  15.095  0.00  0.00    +0.000 A 
ATOM     20  C   UNL     1      47.540   6.241  14.055  0.00  0.00    +0.000 A 
ATOM     21  C   UNL     1      46.827   5.042  14.130  0.00  0.00    +0.000 A 
ATOM     22  C   UNL     1      46.968   4.198  15.239  0.00  0.00    +0.000 A 
BRANCH  17  24
ATOM     23  N   UNL     1      46.953   2.730  17.641  0.00  0.00    +0.000 N 
ATOM     24  C   UNL     1      47.940   3.660  17.464  0.00  0.00    +0.000 C 
ATOM     25  O   UNL     1      48.897   3.720  18.227  0.00  0.00    +0.000 OA
ATOM     26  H   UNL     1      47.099   2.056  18.383  0.00  0.00    +0.000 HD
ATOM     27  H   UNL     1      46.307   2.484  16.907  0.00  0.00    +0.000 HD
ENDBRANCH  17  24
ENDBRANCH  16  20
ENDBRANCH  15  16
ENDBRANCH   1  15
TORSDOF 6
ENDMDL
MODEL 8
REMARK VINA RESULT:    -7.096      2.917      4.287
REMARK INTER + INTRA:         -10.534
REMARK INTER:                  -9.654
REMARK INTRA:                  -0.880
REMARK UNBOUND:                -0.949
REMARK  Name = 
REMARK  6 active torsions:
REMARK  status: ('A' for Active; 'I' for Inactive)
REMARK    1  A    between atoms: C_2  and  C_4
REMARK    2  A    between atoms: C_7  and  O_8
REMARK    3  A    between atoms: O_8  and  C_9
REMARK    4  A    between atoms: C_9  and  C_10
REMARK    5  A    between atoms: C_10  and  C_11
REMARK    6  A    between atoms: C_15  and  C_16
REMARK                            x       y       z     vdW  Elec       q    Type
REMARK                         _______ _______ _______ _____ _____    ______ ____
ROOT
ATOM      1  C   UNL     1      45.764   5.243  12.102  0.00  0.00    +0.000 C 
ENDROOT
BRANCH   1   2
ATOM      2  C   UNL     1      46.870   6.241  12.343  0.00  0.00    +0.000 A 
ATOM      3  C   UNL     1      47.530   6.852  11.271  0.00  0.00    +0.000 A 
ATOM      4  C   UNL     1      48.558   7.766  11.502  0.00  0.00    +0.000 A 
ATOM      5  C   UNL     1      48.937   8.083  12.808  0.00  0.00    +0.000 A 
ATOM      6  C   UNL     1      48.294   7.483  13.900  0.00  0.00    +0.000 A 
ATOM      7  C   UNL     1      47.271   6.551  13.650  0.00  0.00    +0.000 A 
BRANCH   6   8
ATOM      8  C   UNL     1      48.652   7.887  15.320  0.00  0.00    +0.000 C 
ATOM      9  C   UNL     1      48.744   6.671  16.260  0.00  0.00    +0.000 C 
ATOM     10  C   UNL     1      49.029   7.103  17.699  0.00  0.00    +0.000 C 
ATOM     11  C   UNL     1      48.035   8.170  18.148  0.00  0.00    +0.000 C 
ATOM     12  C   UNL     1      47.986   9.331  17.158  0.00  0.00    +0.000 C 
ATOM     13  N   UNL     1      47.668   8.862  15.815  0.00  0.00    +0.000 NA
ATOM     14  H   UNL     1      47.642   9.651  15.169  0.00  0.00    +0.000 HD
ENDBRANCH   6   8
ENDBRANCH   1   2
BRANCH   1  15
ATOM     15  C   UNL     1      44.863   5.692  10.955  0.00  0.00    +0.000 C 
BRANCH  15  16
ATOM     16  O   UNL     1      44.213   4.558  10.367  0.00  0.00    +0.000 OA
BRANCH  16  20
ATOM     17  C   UNL     1      46.581   2.529   7.586  0.00  0.00    +0.000 A 
ATOM     18  C   UNL     1      45.881   1.786   8.539  0.00  0.00    +0.000 A 
ATOM     19  C   UNL     1      45.079   2.434   9.483  0.00  0.00    +0.000 A 
ATOM     20  C   UNL     1      44.975   3.828   9.492  0.00  0.00    +0.000 A 
ATOM     21  C   UNL     1      45.698   4.569   8.553  0.00  0.00    +0.000 A 
ATOM     22  C   UNL     1      46.504   3.925   7.606  0.00  0.00    +0.000 A 
BRANCH  17  24
ATOM     23  N   UNL     1      48.606   2.475   6.237  0.00  0.00    +0.000 N 
ATOM     24  C   UNL     1      47.426   1.864   6.563  0.00  0.00    +0.000 C 
ATOM     25  O   UNL     1      47.104   0.798   6.052  0.00  0.00    +0.000 OA
ATOM     26  H   UNL     1      49.222   1.962   5.618  0.00  0.00    +0.000 HD
ATOM     27  H   UNL     1      49.016   3.195   6.813  0.00  0.00    +0.000 HD
ENDBRANCH  17  24
ENDBRANCH  16  20
ENDBRANCH  15  16
ENDBRANCH   1  15
TORSDOF 6
ENDMDL
MODEL 9
REMARK VINA RESULT:    -6.813      4.109      7.455
REMARK INTER + INTRA:         -10.152
REMARK INTER:                  -8.923
REMARK INTRA:                  -1.228
REMARK UNBOUND:                -0.949
REMARK  Name = 
REMARK  6 active torsions:
REMARK  status: ('A' for Active; 'I' for Inactive)
REMARK    1  A    between atoms: C_2  and  C_4
REMARK    2  A    between atoms: C_7  and  O_8
REMARK    3  A    between atoms: O_8  and  C_9
REMARK    4  A    between atoms: C_9  and  C_10
REMARK    5  A    between atoms: C_10  and  C_11
REMARK    6  A    between atoms: C_15  and  C_16
REMARK                            x       y       z     vdW  Elec       q    Type
REMARK                         _______ _______ _______ _____ _____    ______ ____
ROOT
ATOM      1  C   UNL     1      49.005   8.019  11.874  0.00  0.00    +0.000 C 
ENDROOT
BRANCH   1   2
ATOM      2  C   UNL     1      47.497   7.961  11.842  0.00  0.00    +0.000 A 
ATOM      3  C   UNL     1      46.729   9.057  12.249  0.00  0.00    +0.000 A 
ATOM      4  C   UNL     1      45.335   8.990  12.226  0.00  0.00    +0.000 A 
ATOM      5  C   UNL     1      44.694   7.828  11.793  0.00  0.00    +0.000 A 
ATOM      6  C   UNL     1      45.440   6.715  11.383  0.00  0.00    +0.000 A 
ATOM      7  C   UNL     1      46.844   6.792  11.428  0.00  0.00    +0.000 A 
BRANCH   6   8
ATOM      8  C   UNL     1      44.743   5.479  10.838  0.00  0.00    +0.000 C 
ATOM      9  C   UNL     1      44.916   4.262  11.765  0.00  0.00    +0.000 C 
ATOM     10  C   UNL     1      44.274   3.012  11.163  0.00  0.00    +0.000 C 
ATOM     11  C   UNL     1      44.765   2.789   9.735  0.00  0.00    +0.000 C 
ATOM     12  C   UNL     1      44.578   4.042   8.886  0.00  0.00    +0.000 C 
ATOM     13  N   UNL     1      45.248   5.189   9.487  0.00  0.00    +0.000 NA
ATOM     14  H   UNL     1      45.110   6.015   8.906  0.00  0.00    +0.000 HD
ENDBRANCH   6   8
ENDBRANCH   1   2
BRANCH   1  15
ATOM     15  C   UNL     1      49.560   7.183  13.024  0.00  0.00    +0.000 C 
BRANCH  15  16
ATOM     16  O   UNL     1      48.963   7.591  14.261  0.00  0.00    +0.000 OA
BRANCH  16  20
ATOM     17  C   UNL     1      47.983   4.452  16.839  0.00  0.00    +0.000 A 
ATOM     18  C   UNL     1      48.993   5.339  17.217  0.00  0.00    +0.000 A 
ATOM     19  C   UNL     1      49.345   6.400  16.377  0.00  0.00    +0.000 A 
ATOM     20  C   UNL     1      48.700   6.582  15.151  0.00  0.00    +0.000 A 
ATOM     21  C   UNL     1      47.707   5.677  14.765  0.00  0.00    +0.000 A 
ATOM     22  C   UNL     1      47.352   4.611  15.601  0.00  0.00    +0.000 A 
BRANCH  17  24
ATOM     23  N   UNL     1      48.372   3.072  18.805  0.00  0.00    +0.000 N 
ATOM     24  C   UNL     1      47.580   3.327  17.719  0.00  0.00    +0.000 C 
ATOM     25  O   UNL     1      46.566   2.672  17.508  0.00  0.00    +0.000 OA
ATOM     26  H   UNL     1      48.032   2.373  19.454  0.00  0.00    +0.000 HD
ATOM     27  H   UNL     1      49.047   3.739  19.147  0.00  0.00    +0.000 HD
ENDBRANCH  17  24
ENDBRANCH  16  20
ENDBRANCH  15  16
ENDBRANCH   1  15
TORSDOF 6
ENDMDL
