MODEL 1
REMARK VINA RESULT:    -7.102      0.000      0.000
REMARK INTER + INTRA:         -10.117
REMARK INTER:                  -9.177
REMARK INTRA:                  -0.940
REMARK UNBOUND:                -0.940
REMARK  Name = 
REMARK  6 active torsions:
REMARK  status: ('A' for Active; 'I' for Inactive)
REMARK    1  A    between atoms: C_1  and  O_2
REMARK    2  A    between atoms: O_2  and  C_3
REMARK    3  A    between atoms: C_7  and  N_8
REMARK    4  A    between atoms: N_8  and  C_9
REMARK    5  A    between atoms: C_9  and  C_10
REMARK    6  A    between atoms: C_15  and  N_16
REMARK                            x       y       z     vdW  Elec       q    Type
REMARK                         _______ _______ _______ _____ _____    ______ ____
ROOT
ATOM      1  C   UNL     1      43.940   4.842  11.485  0.00  0.00    +0.000 C 
ATOM      2  C   UNL     1      42.551   5.038  12.085  0.00  0.00    +0.000 C 
ATOM      3  C   UNL     1      43.044   5.987  11.047  0.00  0.00    +0.000 C 
ENDROOT
BRANCH   1   4
ATOM      4  C   UNL     1      45.161   5.229  12.322  0.00  0.00    +0.000 A 
ATOM      5  C   UNL     1      45.668   4.388  13.324  0.00  0.00    +0.000 A 
ATOM      6  C   UNL     1      46.838   4.711  14.012  0.00  0.00    +0.000 A 
ATOM      7  C   UNL     1      47.519   5.886  13.704  0.00  0.00    +0.000 A 
ATOM      8  F   UNL     1      48.639   6.154  14.399  0.00  0.00    +0.000 F 
ATOM      9  C   UNL     1      47.053   6.780  12.732  0.00  0.00    +0.000 A 
ATOM     10  C   UNL     1      45.859   6.426  12.072  0.00  0.00    +0.000 A 
BRANCH   9  11
ATOM     11  N   UNL     1      47.708   7.938  12.348  0.00  0.00    +0.000 N 
ATOM     12  C   UNL     1      48.937   7.917  11.540  0.00  0.00    +0.000 C 
ATOM     13  C   UNL     1      50.145   8.405  12.349  0.00  0.00    +0.000 C 
ATOM     14  O   UNL     1      49.891   9.684  12.958  0.00  0.00    +0.000 OA
ATOM     15  C   UNL     1      48.770   9.588  13.852  0.00  0.00    +0.000 C 
ATOM     16  C   UNL     1      47.487   9.178  13.109  0.00  0.00    +0.000 C 
ENDBRANCH   9  11
ENDBRANCH   1   4
BRANCH   1  17
ATOM     17  N   UNL     1      44.081   3.569  10.741  0.00  0.00    +0.000 N 
ATOM     18  H   UNL     1      44.108   2.745  11.337  0.00  0.00    +0.000 HD
BRANCH  17  23
ATOM     19  C   UNL     1      46.185   2.047   8.059  0.00  0.00    +0.000 A 
ATOM     20  C   UNL     1      46.523   3.204   7.379  0.00  0.00    +0.000 A 
ATOM     21  N   UNL     1      46.098   4.441   7.746  0.00  0.00    +0.000 NA
ATOM     22  C   UNL     1      45.294   4.492   8.842  0.00  0.00    +0.000 A 
ATOM     23  C   UNL     1      44.880   3.390   9.596  0.00  0.00    +0.000 A 
ATOM     24  C   UNL     1      45.405   2.162   9.213  0.00  0.00    +0.000 A 
BRANCH  19  26
ATOM     25  C   UNL     1      47.358   0.977   6.337  0.00  0.00    +0.000 C 
ATOM     26  O   UNL     1      46.653   0.856   7.571  0.00  0.00    +0.000 OA
ENDBRANCH  19  26
ENDBRANCH  17  23
ENDBRANCH   1  17
TORSDOF 5
ENDMDL
MODEL 2
REMARK VINA RESULT:    -6.989      3.210      7.005
REMARK INTER + INTRA:          -9.971
REMARK INTER:                  -9.213
REMARK INTRA:                  -0.758
REMARK UNBOUND:                -0.940
REMARK  Name = 
REMARK  6 active torsions:
REMARK  status: ('A' for Active; 'I' for Inactive)
REMARK    1  A    between atoms: C_1  and  O_2
REMARK    2  A    between atoms: O_2  and  C_3
REMARK    3  A    between atoms: C_7  and  N_8
REMARK    4  A    between atoms: N_8  and  C_9
REMARK    5  A    between atoms: C_9  and  C_10
REMARK    6  A    between atoms: C_15  and  N_16
REMARK                            x       y       z     vdW  Elec       q    Type
REMARK                         _______ _______ _______ _____ _____    ______ ____
ROOT
ATOM      1  C   UNL     1      46.005   6.901  12.462  0.00  0.00    +0.000 C 
ATOM      2  C   UNL     1      47.299   6.826  13.266  0.00  0.00    +0.000 C 
ATOM      3  C   UNL     1      47.362   6.974  11.785  0.00  0.00    +0.000 C 
ENDROOT
BRANCH   1   4
ATOM      4  C   UNL     1      45.211   5.614  12.231  0.00  0.00    +0.000 A 
ATOM      5  C   UNL     1      44.376   5.072  13.221  0.00  0.00    +0.000 A 
ATOM      6  C   UNL     1      43.585   3.953  12.962  0.00  0.00    +0.000 A 
ATOM      7  C   UNL     1      43.617   3.358  11.704  0.00  0.00    +0.000 A 
ATOM      8  F   UNL     1      42.839   2.280  11.506  0.00  0.00    +0.000 F 
ATOM      9  C   UNL     1      44.446   3.836  10.680  0.00  0.00    +0.000 A 
ATOM     10  C   UNL     1      45.242   4.957  10.987  0.00  0.00    +0.000 A 
BRANCH   9  11
ATOM     11  N   UNL     1      44.488   3.318   9.396  0.00  0.00    +0.000 N 
ATOM     12  C   UNL     1      44.660   1.882   9.130  0.00  0.00    +0.000 C 
ATOM     13  C   UNL     1      46.016   1.595   8.475  0.00  0.00    +0.000 C 
ATOM     14  O   UNL     1      46.224   2.414   7.311  0.00  0.00    +0.000 OA
ATOM     15  C   UNL     1      46.195   3.803   7.676  0.00  0.00    +0.000 C 
ATOM     16  C   UNL     1      44.836   4.203   8.273  0.00  0.00    +0.000 C 
ENDBRANCH   9  11
ENDBRANCH   1   4
BRANCH   1  17
ATOM     17  N   UNL     1      45.180   8.084  12.793  0.00  0.00    +0.000 N 
ATOM     18  H   UNL     1      44.329   7.863  13.306  0.00  0.00    +0.000 HD
BRANCH  17  23
ATOM     19  C   UNL     1      43.844  10.379  10.169  0.00  0.00    +0.000 A 
ATOM     20  C   UNL     1      44.781  11.391  10.281  0.00  0.00    +0.000 A 
ATOM     21  N   UNL     1      45.812  11.363  11.165  0.00  0.00    +0.000 NA
ATOM     22  C   UNL     1      45.880  10.265  11.965  0.00  0.00    +0.000 A 
ATOM     23  C   UNL     1      44.983   9.192  11.946  0.00  0.00    +0.000 A 
ATOM     24  C   UNL     1      43.993   9.246  10.973  0.00  0.00    +0.000 A 
BRANCH  19  26
ATOM     25  C   UNL     1      41.614  11.009   9.830  0.00  0.00    +0.000 C 
ATOM     26  O   UNL     1      42.833  10.539   9.258  0.00  0.00    +0.000 OA
ENDBRANCH  19  26
ENDBRANCH  17  23
ENDBRANCH   1  17
TORSDOF 5
ENDMDL
MODEL 3
REMARK VINA RESULT:    -6.541      2.497      6.999
REMARK INTER + INTRA:          -9.393
REMARK INTER:                  -8.599
REMARK INTRA:                  -0.794
REMARK UNBOUND:                -0.940
REMARK  Name = 
REMARK  6 active torsions:
REMARK  status: ('A' for Active; 'I' for Inactive)
REMARK    1  A    between atoms: C_1  and  O_2
REMARK    2  A    between atoms: O_2  and  C_3
REMARK    3  A    between atoms: C_7  and  N_8
REMARK    4  A    between atoms: N_8  and  C_9
REMARK    5  A    between atoms: C_9  and  C_10
REMARK    6  A    between atoms: C_15  and  N_16
REMARK                            x       y       z     vdW  Elec       q    Type
REMARK                         _______ _______ _______ _____ _____    ______ ____
ROOT
ATOM      1  C   UNL     1      45.981   6.911  12.183  0.00  0.00    +0.000 C 
ATOM      2  C   UNL     1      45.500   8.150  11.435  0.00  0.00    +0.000 C 
ATOM      3  C   UNL     1      45.254   8.035  12.900  0.00  0.00    +0.000 C 
ENDROOT
BRANCH   1   4
ATOM      4  C   UNL     1      45.197   5.607  12.017  0.00  0.00    +0.000 A 
ATOM      5  C   UNL     1      44.379   5.100  13.039  0.00  0.00    +0.000 A 
ATOM      6  C   UNL     1      43.597   3.963  12.839  0.00  0.00    +0.000 A 
ATOM      7  C   UNL     1      43.622   3.314  11.607  0.00  0.00    +0.000 A 
ATOM      8  F   UNL     1      42.853   2.219  11.466  0.00  0.00    +0.000 F 
ATOM      9  C   UNL     1      44.436   3.754  10.555  0.00  0.00    +0.000 A 
ATOM     10  C   UNL     1      45.223   4.895  10.803  0.00  0.00    +0.000 A 
BRANCH   9  11
ATOM     11  N   UNL     1      44.470   3.180   9.294  0.00  0.00    +0.000 N 
ATOM     12  C   UNL     1      44.726   1.747   9.088  0.00  0.00    +0.000 C 
ATOM     13  C   UNL     1      46.076   1.515   8.399  0.00  0.00    +0.000 C 
ATOM     14  O   UNL     1      46.193   2.289   7.193  0.00  0.00    +0.000 OA
ATOM     15  C   UNL     1      46.087   3.689   7.497  0.00  0.00    +0.000 C 
ATOM     16  C   UNL     1      44.724   4.031   8.121  0.00  0.00    +0.000 C 
ENDBRANCH   9  11
ENDBRANCH   1   4
BRANCH   1  17
ATOM     17  N   UNL     1      47.452   6.752  12.167  0.00  0.00    +0.000 N 
ATOM     18  H   UNL     1      47.785   6.056  11.503  0.00  0.00    +0.000 HD
BRANCH  17  23
ATOM     19  C   UNL     1      48.845   6.226  15.591  0.00  0.00    +0.000 A 
ATOM     20  C   UNL     1      49.946   7.061  15.498  0.00  0.00    +0.000 A 
ATOM     21  N   UNL     1      50.254   7.773  14.383  0.00  0.00    +0.000 NA
ATOM     22  C   UNL     1      49.410   7.619  13.327  0.00  0.00    +0.000 A 
ATOM     23  C   UNL     1      48.280   6.797  13.307  0.00  0.00    +0.000 A 
ATOM     24  C   UNL     1      47.978   6.150  14.498  0.00  0.00    +0.000 A 
BRANCH  19  26
ATOM     25  C   UNL     1      47.668   4.516  16.675  0.00  0.00    +0.000 C 
ATOM     26  O   UNL     1      48.659   5.538  16.761  0.00  0.00    +0.000 OA
ENDBRANCH  19  26
ENDBRANCH  17  23
ENDBRANCH   1  17
TORSDOF 5
ENDMDL
MODEL 4
REMARK VINA RESULT:    -6.450      1.466      2.156
REMARK INTER + INTRA:          -9.275
REMARK INTER:                  -8.498
REMARK INTRA:                  -0.778
REMARK UNBOUND:                -0.940
REMARK  Name = 
REMARK  6 active torsions:
REMARK  status: ('A' for Active; 'I' for Inactive)
REMARK    1  A    between atoms: C_1  and  O_2
REMARK    2  A    between atoms: O_2  and  C_3
REMARK    3  A    between atoms: C_7  and  N_8
REMARK    4  A    between atoms: N_8  and  C_9
REMARK    5  A    between atoms: C_9  and  C_10
REMARK    6  A    between atoms: C_15  and  N_16
REMARK                            x       y       z     vdW  Elec       q    Type
REMARK                         _______ _______ _______ _____ _____    ______ ____
ROOT
ATOM      1  C   UNL     1      43.902   5.294  11.895  0.00  0.00    +0.000 C 
ATOM      2  C   UNL     1      42.821   5.150  12.962  0.00  0.00    +0.000 C 
ATOM      3  C   UNL     1      42.455   5.656  11.609  0.00  0.00    +0.000 C 
ENDROOT
BRANCH   1   4
ATOM      4  C   UNL     1      44.878   6.468  11.995  0.00  0.00    +0.000 A 
ATOM      5  C   UNL     1      44.507   7.772  11.632  0.00  0.00    +0.000 A 
ATOM      6  C   UNL     1      45.375   8.847  11.819  0.00  0.00    +0.000 A 
ATOM      7  C   UNL     1      46.633   8.631  12.376  0.00  0.00    +0.000 A 
ATOM      8  F   UNL     1      47.435   9.700  12.532  0.00  0.00    +0.000 F 
ATOM      9  C   UNL     1      47.074   7.351  12.737  0.00  0.00    +0.000 A 
ATOM     10  C   UNL     1      46.173   6.290  12.516  0.00  0.00    +0.000 A 
BRANCH   9  11
ATOM     11  N   UNL     1      48.292   7.079  13.337  0.00  0.00    +0.000 N 
ATOM     12  C   UNL     1      48.496   7.188  14.790  0.00  0.00    +0.000 C 
ATOM     13  C   UNL     1      49.445   8.342  15.134  0.00  0.00    +0.000 C 
ATOM     14  O   UNL     1      50.676   8.253  14.395  0.00  0.00    +0.000 OA
ATOM     15  C   UNL     1      50.407   8.307  12.985  0.00  0.00    +0.000 C 
ATOM     16  C   UNL     1      49.522   7.134  12.531  0.00  0.00    +0.000 C 
ENDBRANCH   9  11
ENDBRANCH   1   4
BRANCH   1  17
ATOM     17  N   UNL     1      44.524   4.005  11.515  0.00  0.00    +0.000 N 
ATOM     18  H   UNL     1      45.154   3.629  12.219  0.00  0.00    +0.000 HD
BRANCH  17  23
ATOM     19  C   UNL     1      45.809   2.134   8.551  0.00  0.00    +0.000 A 
ATOM     20  C   UNL     1      45.891   3.189   7.659  0.00  0.00    +0.000 A 
ATOM     21  N   UNL     1      45.546   4.465   7.973  0.00  0.00    +0.000 NA
ATOM     22  C   UNL     1      45.095   4.664   9.241  0.00  0.00    +0.000 A 
ATOM     23  C   UNL     1      44.961   3.673  10.218  0.00  0.00    +0.000 A 
ATOM     24  C   UNL     1      45.396   2.404   9.859  0.00  0.00    +0.000 A 
BRANCH  19  26
ATOM     25  C   UNL     1      47.174   0.899   7.103  0.00  0.00    +0.000 C 
ATOM     26  O   UNL     1      46.159   0.887   8.105  0.00  0.00    +0.000 OA
ENDBRANCH  19  26
ENDBRANCH  17  23
ENDBRANCH   1  17
TORSDOF 5
ENDMDL
MODEL 5
REMARK VINA RESULT:    -6.092      3.039      7.667
REMARK INTER + INTRA:          -8.813
REMARK INTER:                  -7.674
REMARK INTRA:                  -1.139
REMARK UNBOUND:                -0.940
REMARK  Name = 
REMARK  6 active torsions:
REMARK  status: ('A' for Active; 'I' for Inactive)
REMARK    1  A    between atoms: C_1  and  O_2
REMARK    2  A    between atoms: O_2  and  C_3
REMARK    3  A    between atoms: C_7  and  N_8
REMARK    4  A    between atoms: N_8  and  C_9
REMARK    5  A    between atoms: C_9  and  C_10
REMARK    6  A    between atoms: C_15  and  N_16
REMARK                            x       y       z     vdW  Elec       q    Type
REMARK                         _______ _______ _______ _____ _____    ______ ____
ROOT
ATOM      1  C   UNL     1      49.328   7.984  12.623  0.00  0.00    +0.000 C 
ATOM      2  C   UNL     1      50.247   7.990  11.406  0.00  0.00    +0.000 C 
ATOM      3  C   UNL     1      49.909   9.277  12.077  0.00  0.00    +0.000 C 
ENDROOT
BRANCH   1   4
ATOM      4  C   UNL     1      47.827   7.782  12.407  0.00  0.00    +0.000 A 
ATOM      5  C   UNL     1      46.932   8.863  12.372  0.00  0.00    +0.000 A 
ATOM      6  C   UNL     1      45.582   8.672  12.079  0.00  0.00    +0.000 A 
ATOM      7  C   UNL     1      45.107   7.391  11.812  0.00  0.00    +0.000 A 
ATOM      8  F   UNL     1      43.797   7.259  11.538  0.00  0.00    +0.000 F 
ATOM      9  C   UNL     1      45.942   6.267  11.854  0.00  0.00    +0.000 A 
ATOM     10  C   UNL     1      47.295   6.501  12.171  0.00  0.00    +0.000 A 
BRANCH   9  11
ATOM     11  N   UNL     1      45.540   4.976  11.554  0.00  0.00    +0.000 N 
ATOM     12  C   UNL     1      45.141   4.571  10.198  0.00  0.00    +0.000 C 
ATOM     13  C   UNL     1      43.645   4.240  10.133  0.00  0.00    +0.000 C 
ATOM     14  O   UNL     1      43.271   3.285  11.141  0.00  0.00    +0.000 OA
ATOM     15  C   UNL     1      43.550   3.816  12.447  0.00  0.00    +0.000 C 
ATOM     16  C   UNL     1      45.049   4.104  12.633  0.00  0.00    +0.000 C 
ENDBRANCH   9  11
ENDBRANCH   1   4
BRANCH   1  17
ATOM     17  N   UNL     1      49.890   7.245  13.776  0.00  0.00    +0.000 N 
ATOM     18  H   UNL     1      50.120   6.276  13.571  0.00  0.00    +0.000 HD
BRANCH  17  23
ATOM     19  C   UNL     1      48.637   6.538  17.222  0.00  0.00    +0.000 A 
ATOM     20  C   UNL     1      48.557   7.839  17.685  0.00  0.00    +0.000 A 
ATOM     21  N   UNL     1      48.893   8.923  16.938  0.00  0.00    +0.000 NA
ATOM     22  C   UNL     1      49.333   8.662  15.677  0.00  0.00    +0.000 A 
ATOM     23  C   UNL     1      49.465   7.391  15.112  0.00  0.00    +0.000 A 
ATOM     24  C   UNL     1      49.038   6.329  15.899  0.00  0.00    +0.000 A 
BRANCH  19  26
ATOM     25  C   UNL     1      47.383   4.584  17.529  0.00  0.00    +0.000 C 
ATOM     26  O   UNL     1      48.297   5.528  18.083  0.00  0.00    +0.000 OA
ENDBRANCH  19  26
ENDBRANCH  17  23
ENDBRANCH   1  17
TORSDOF 5
ENDMDL
MODEL 6
REMARK VINA RESULT:    -6.063      3.422      5.475
REMARK INTER + INTRA:          -8.775
REMARK INTER:                  -8.184
REMARK INTRA:                  -0.591
REMARK UNBOUND:                -0.940
REMARK  Name = 
REMARK  6 active torsions:
REMARK  status: ('A' for Active; 'I' for Inactive)
REMARK    1  A    between atoms: C_1  and  O_2
REMARK    2  A    between atoms: O_2  and  C_3
REMARK    3  A    between atoms: C_7  and  N_8
REMARK    4  A    between atoms: N_8  and  C_9
REMARK    5  A    between atoms: C_9  and  C_10
REMARK    6  A    between atoms: C_15  and  N_16
REMARK                            x       y       z     vdW  Elec       q    Type
REMARK                         _______ _______ _______ _____ _____    ______ ____
ROOT
ATOM      1  C   UNL     1      47.737   7.428  13.077  0.00  0.00    +0.000 C 
ATOM      2  C   UNL     1      47.632   8.809  12.437  0.00  0.00    +0.000 C 
ATOM      3  C   UNL     1      48.233   7.685  11.665  0.00  0.00    +0.000 C 
ENDROOT
BRANCH   1   4
ATOM      4  C   UNL     1      48.818   7.191  14.134  0.00  0.00    +0.000 A 
ATOM      5  C   UNL     1      50.032   7.895  14.122  0.00  0.00    +0.000 A 
ATOM      6  C   UNL     1      50.966   7.738  15.145  0.00  0.00    +0.000 A 
ATOM      7  C   UNL     1      50.698   6.870  16.200  0.00  0.00    +0.000 A 
ATOM      8  F   UNL     1      51.632   6.750  17.159  0.00  0.00    +0.000 F 
ATOM      9  C   UNL     1      49.516   6.120  16.259  0.00  0.00    +0.000 A 
ATOM     10  C   UNL     1      48.606   6.295  15.198  0.00  0.00    +0.000 A 
BRANCH   9  11
ATOM     11  N   UNL     1      49.170   5.277  17.303  0.00  0.00    +0.000 N 
ATOM     12  C   UNL     1      49.994   4.122  17.689  0.00  0.00    +0.000 C 
ATOM     13  C   UNL     1      49.277   2.800  17.388  0.00  0.00    +0.000 C 
ATOM     14  O   UNL     1      47.959   2.772  17.964  0.00  0.00    +0.000 OA
ATOM     15  C   UNL     1      47.164   3.839  17.422  0.00  0.00    +0.000 C 
ATOM     16  C   UNL     1      47.768   5.216  17.746  0.00  0.00    +0.000 C 
ENDBRANCH   9  11
ENDBRANCH   1   4
BRANCH   1  17
ATOM     17  N   UNL     1      46.421   6.831  13.397  0.00  0.00    +0.000 N 
ATOM     18  H   UNL     1      46.186   6.856  14.386  0.00  0.00    +0.000 HD
BRANCH  17  23
ATOM     19  C   UNL     1      44.561   4.547  11.102  0.00  0.00    +0.000 A 
ATOM     20  C   UNL     1      44.826   3.349  11.742  0.00  0.00    +0.000 A 
ATOM     21  N   UNL     1      45.578   3.251  12.869  0.00  0.00    +0.000 NA
ATOM     22  C   UNL     1      46.081   4.420  13.351  0.00  0.00    +0.000 A 
ATOM     23  C   UNL     1      45.887   5.681  12.781  0.00  0.00    +0.000 A 
ATOM     24  C   UNL     1      45.051   5.725  11.673  0.00  0.00    +0.000 A 
BRANCH  19  26
ATOM     25  C   UNL     1      44.534   4.052   8.813  0.00  0.00    +0.000 C 
ATOM     26  O   UNL     1      43.813   4.510   9.955  0.00  0.00    +0.000 OA
ENDBRANCH  19  26
ENDBRANCH  17  23
ENDBRANCH   1  17
TORSDOF 5
ENDMDL
MODEL 7
REMARK VINA RESULT:    -5.950      3.660      5.716
REMARK INTER + INTRA:          -8.629
REMARK INTER:                  -7.956
REMARK INTRA:                  -0.673
REMARK UNBOUND:                -0.940
REMARK  Name = 
REMARK  6 active torsions:
REMARK  status: ('A' for Active; 'I' for Inactive)
REMARK    1  A    between atoms: C_1  and  O_2
REMARK    2  A    between atoms: O_2  and  C_3
REMARK    3  A    between atoms: C_7  and  N_8
REMARK    4  A    between atoms: N_8  and  C_9
REMARK    5  A    between atoms: C_9  and  C_10
REMARK    6  A    between atoms: C_15  and  N_16
REMARK                            x       y       z     vdW  Elec       q    Type
REMARK                         _______ _______ _______ _____ _____    ______ ____
ROOT
ATOM      1  C   UNL     1      47.958   7.311  13.522  0.00  0.00    +0.000 C 
ATOM      2  C   UNL     1      48.522   8.354  12.564  0.00  0.00    +0.000 C 
ATOM      3  C   UNL     1      49.038   6.958  12.515  0.00  0.00    +0.000 C 
ENDROOT
BRANCH   1   4
ATOM      4  C   UNL     1      48.398   7.349  14.987  0.00  0.00    +0.000 A 
ATOM      5  C   UNL     1      48.536   8.557  15.687  0.00  0.00    +0.000 A 
ATOM      6  C   UNL     1      48.844   8.571  17.048  0.00  0.00    +0.000 A 
ATOM      7  C   UNL     1      49.017   7.370  17.730  0.00  0.00    +0.000 A 
ATOM      8  F   UNL     1      49.316   7.437  19.040  0.00  0.00    +0.000 F 
ATOM      9  C   UNL     1      48.915   6.131  17.085  0.00  0.00    +0.000 A 
ATOM     10  C   UNL     1      48.620   6.160  15.708  0.00  0.00    +0.000 A 
BRANCH   9  11
ATOM     11  N   UNL     1      49.030   4.903  17.717  0.00  0.00    +0.000 N 
ATOM     12  C   UNL     1      50.319   4.379  18.193  0.00  0.00    +0.000 C 
ATOM     13  C   UNL     1      50.754   3.151  17.385  0.00  0.00    +0.000 C 
ATOM     14  O   UNL     1      49.719   2.153  17.343  0.00  0.00    +0.000 OA
ATOM     15  C   UNL     1      48.541   2.693  16.725  0.00  0.00    +0.000 C 
ATOM     16  C   UNL     1      47.983   3.888  17.516  0.00  0.00    +0.000 C 
ENDBRANCH   9  11
ENDBRANCH   1   4
BRANCH   1  17
ATOM     17  N   UNL     1      46.516   7.048  13.318  0.00  0.00    +0.000 N 
ATOM     18  H   UNL     1      45.922   7.403  14.064  0.00  0.00    +0.000 HD
BRANCH  17  23
ATOM     19  C   UNL     1      44.661   4.635  11.154  0.00  0.00    +0.000 A 
ATOM     20  C   UNL     1      44.920   3.477  11.866  0.00  0.00    +0.000 A 
ATOM     21  N   UNL     1      45.667   3.445  13.000  0.00  0.00    +0.000 NA
ATOM     22  C   UNL     1      46.170   4.639  13.414  0.00  0.00    +0.000 A 
ATOM     23  C   UNL     1      45.982   5.865  12.770  0.00  0.00    +0.000 A 
ATOM     24  C   UNL     1      45.152   5.844  11.656  0.00  0.00    +0.000 A 
BRANCH  19  26
ATOM     25  C   UNL     1      44.662   4.071   8.881  0.00  0.00    +0.000 C 
ATOM     26  O   UNL     1      43.919   4.532  10.008  0.00  0.00    +0.000 OA
ENDBRANCH  19  26
ENDBRANCH  17  23
ENDBRANCH   1  17
TORSDOF 5
ENDMDL
MODEL 8
REMARK VINA RESULT:    -5.862      3.475      8.098
REMARK INTER + INTRA:          -8.515
REMARK INTER:                  -7.513
REMARK INTRA:                  -1.003
REMARK UNBOUND:                -0.940
REMARK  Name = 
REMARK  6 active torsions:
REMARK  status: ('A' for Active; 'I' for Inactive)
REMARK    1  A    between atoms: C_1  and  O_2
REMARK    2  A    between atoms: O_2  and  C_3
REMARK    3  A    between atoms: C_7  and  N_8
REMARK    4  A    between atoms: N_8  and  C_9
REMARK    5  A    between atoms: C_9  and  C_10
REMARK    6  A    between atoms: C_15  and  N_16
REMARK                            x       y       z     vdW  Elec       q    Type
REMARK                         _______ _______ _______ _____ _____    ______ ____
ROOT
ATOM      1  C   UNL     1      48.875   7.660  14.124  0.00  0.00    +0.000 C 
ATOM      2  C   UNL     1      50.030   8.158  13.262  0.00  0.00    +0.000 C 
ATOM      3  C   UNL     1      49.413   9.073  14.262  0.00  0.00    +0.000 C 
ENDROOT
BRANCH   1   4
ATOM      4  C   UNL     1      47.489   7.532  13.488  0.00  0.00    +0.000 A 
ATOM      5  C   UNL     1      46.634   8.636  13.347  0.00  0.00    +0.000 A 
ATOM      6  C   UNL     1      45.415   8.523  12.680  0.00  0.00    +0.000 A 
ATOM      7  C   UNL     1      45.032   7.297  12.141  0.00  0.00    +0.000 A 
ATOM      8  F   UNL     1      43.846   7.239  11.510  0.00  0.00    +0.000 F 
ATOM      9  C   UNL     1      45.828   6.151  12.268  0.00  0.00    +0.000 A 
ATOM     10  C   UNL     1      47.044   6.304  12.963  0.00  0.00    +0.000 A 
BRANCH   9  11
ATOM     11  N   UNL     1      45.526   4.918  11.715  0.00  0.00    +0.000 N 
ATOM     12  C   UNL     1      45.269   4.741  10.277  0.00  0.00    +0.000 C 
ATOM     13  C   UNL     1      43.805   4.369  10.014  0.00  0.00    +0.000 C 
ATOM     14  O   UNL     1      43.397   3.238  10.804  0.00  0.00    +0.000 OA
ATOM     15  C   UNL     1      43.531   3.543  12.202  0.00  0.00    +0.000 C 
ATOM     16  C   UNL     1      44.990   3.852  12.577  0.00  0.00    +0.000 C 
ENDBRANCH   9  11
ENDBRANCH   1   4
BRANCH   1  17
ATOM     17  N   UNL     1      49.251   6.539  15.015  0.00  0.00    +0.000 N 
ATOM     18  H   UNL     1      49.496   5.684  14.520  0.00  0.00    +0.000 HD
BRANCH  17  23
ATOM     19  C   UNL     1      48.082   6.738  18.555  0.00  0.00    +0.000 A 
ATOM     20  C   UNL     1      47.467   5.501  18.640  0.00  0.00    +0.000 A 
ATOM     21  N   UNL     1      47.411   4.619  17.609  0.00  0.00    +0.000 NA
ATOM     22  C   UNL     1      47.999   5.021  16.450  0.00  0.00    +0.000 A 
ATOM     23  C   UNL     1      48.636   6.249  16.249  0.00  0.00    +0.000 A 
ATOM     24  C   UNL     1      48.722   7.078  17.360  0.00  0.00    +0.000 A 
BRANCH  19  26
ATOM     25  C   UNL     1      48.902   8.687  19.563  0.00  0.00    +0.000 C 
ATOM     26  O   UNL     1      48.044   7.551  19.657  0.00  0.00    +0.000 OA
ENDBRANCH  19  26
ENDBRANCH  17  23
ENDBRANCH   1  17
TORSDOF 5
ENDMDL
MODEL 9
REMARK VINA RESULT:    -5.731      4.315      8.793
REMARK INTER + INTRA:          -8.346
REMARK INTER:                  -7.355
REMARK INTRA:                  -0.991
REMARK UNBOUND:                -0.940
REMARK  Name = 
REMARK  6 active torsions:
REMARK  status: ('A' for Active; 'I' for Inactive)
REMARK    1  A    between atoms: C_1  and  O_2
REMARK    2  A    between atoms: O_2  and  C_3
REMARK    3  A    between atoms: C_7  and  N_8
REMARK    4  A    between atoms: N_8  and  C_9
REMARK    5  A    between atoms: C_9  and  C_10
REMARK    6  A    between atoms: C_15  and  N_16
REMARK                            x       y       z     vdW  Elec       q    Type
REMARK                         _______ _______ _______ _____ _____    ______ ____
ROOT
ATOM      1  C   UNL     1      47.912   4.567  16.981  0.00  0.00    +0.000 C 
ATOM      2  C   UNL     1      48.335   3.107  17.104  0.00  0.00    +0.000 C 
ATOM      3  C   UNL     1      49.366   4.179  17.189  0.00  0.00    +0.000 C 
ENDROOT
BRANCH   1   4
ATOM      4  C   UNL     1      47.557   5.113  15.596  0.00  0.00    +0.000 A 
ATOM      5  C   UNL     1      48.364   6.059  14.944  0.00  0.00    +0.000 A 
ATOM      6  C   UNL     1      48.079   6.474  13.643  0.00  0.00    +0.000 A 
ATOM      7  C   UNL     1      46.979   5.946  12.973  0.00  0.00    +0.000 A 
ATOM      8  F   UNL     1      46.745   6.381  11.723  0.00  0.00    +0.000 F 
ATOM      9  C   UNL     1      46.121   5.016  13.576  0.00  0.00    +0.000 A 
ATOM     10  C   UNL     1      46.433   4.635  14.896  0.00  0.00    +0.000 A 
BRANCH   9  11
ATOM     11  N   UNL     1      45.040   4.420  12.947  0.00  0.00    +0.000 N 
ATOM     12  C   UNL     1      45.200   3.337  11.965  0.00  0.00    +0.000 C 
ATOM     13  C   UNL     1      44.797   3.795  10.559  0.00  0.00    +0.000 C 
ATOM     14  O   UNL     1      43.481   4.376  10.550  0.00  0.00    +0.000 OA
ATOM     15  C   UNL     1      43.445   5.522  11.415  0.00  0.00    +0.000 C 
ATOM     16  C   UNL     1      43.761   5.142  12.872  0.00  0.00    +0.000 C 
ENDBRANCH   9  11
ENDBRANCH   1   4
BRANCH   1  17
ATOM     17  N   UNL     1      47.009   5.008  18.067  0.00  0.00    +0.000 N 
ATOM     18  H   UNL     1      46.023   4.985  17.818  0.00  0.00    +0.000 HD
BRANCH  17  23
ATOM     19  C   UNL     1      47.908   8.340  19.490  0.00  0.00    +0.000 A 
ATOM     20  C   UNL     1      47.877   8.008  20.833  0.00  0.00    +0.000 A 
ATOM     21  N   UNL     1      47.574   6.766  21.291  0.00  0.00    +0.000 NA
ATOM     22  C   UNL     1      47.287   5.835  20.341  0.00  0.00    +0.000 A 
ATOM     23  C   UNL     1      47.278   6.062  18.961  0.00  0.00    +0.000 A 
ATOM     24  C   UNL     1      47.664   7.333  18.553  0.00  0.00    +0.000 A 
BRANCH  19  26
ATOM     25  C   UNL     1      47.963   9.943  17.783  0.00  0.00    +0.000 C 
ATOM     26  O   UNL     1      48.198   9.637  19.156  0.00  0.00    +0.000 OA
ENDBRANCH  19  26
ENDBRANCH  17  23
ENDBRANCH   1  17
TORSDOF 5
ENDMDL
