MODEL 1
REMARK VINA RESULT:    -8.363      0.000      0.000
REMARK INTER + INTRA:         -11.990
REMARK INTER:                 -11.296
REMARK INTRA:                  -0.694
REMARK UNBOUND:                -0.694
REMARK  Name = 
REMARK  7 active torsions:
REMARK  status: ('A' for Active; 'I' for Inactive)
REMARK    1  A    between atoms: C_1  and  C_2
REMARK    2  A    between atoms: C_6  and  C_7
REMARK    3  A    between atoms: N_9  and  C_10
REMARK    4  A    between atoms: C_10  and  C_11
REMARK    5  A    between atoms: C_14  and  C_15
REMARK    6  A    between atoms: C_15  and  N_16
REMARK    7  A    between atoms: C_17  and  C_19
REMARK                            x       y       z     vdW  Elec       q    Type
REMARK                         _______ _______ _______ _____ _____    ______ ____
ROOT
ATOM      1  C   UNL     1      44.651   5.408  11.394  0.00  0.00    +0.000 A 
ATOM      2  C   UNL     1      45.770   4.914  12.077  0.00  0.00    +0.000 A 
ATOM      3  C   UNL     1      46.650   5.783  12.739  0.00  0.00    +0.000 A 
ATOM      4  C   UNL     1      46.415   7.164  12.750  0.00  0.00    +0.000 A 
ATOM      5  C   UNL     1      45.302   7.658  12.056  0.00  0.00    +0.000 A 
ATOM      6  C   UNL     1      44.422   6.790  11.397  0.00  0.00    +0.000 A 
ENDROOT
BRANCH   1   7
ATOM      7  C   UNL     1      43.738   4.472  10.642  0.00  0.00    +0.000 C 
BRANCH   7  10
ATOM      8  C   UNL     1      45.200   3.889   8.762  0.00  0.00    +0.000 C 
ATOM      9  O   UNL     1      45.331   5.061   8.419  0.00  0.00    +0.000 OA
ATOM     10  N   UNL     1      44.436   3.497   9.846  0.00  0.00    +0.000 N 
ATOM     11  H   UNL     1      44.375   2.504  10.044  0.00  0.00    +0.000 HD
BRANCH   8  17
ATOM     12  C   UNL     1      47.700   2.232   4.745  0.00  0.00    +0.000 C 
ATOM     13  C   UNL     1      47.080   1.993   6.089  0.00  0.00    +0.000 A 
ATOM     14  C   UNL     1      47.115   0.735   6.694  0.00  0.00    +0.000 A 
ATOM     15  C   UNL     1      46.523   0.575   7.940  0.00  0.00    +0.000 A 
ATOM     16  N   UNL     1      45.902   1.561   8.619  0.00  0.00    +0.000 NA
ATOM     17  C   UNL     1      45.880   2.781   8.014  0.00  0.00    +0.000 A 
ATOM     18  C   UNL     1      46.445   3.037   6.766  0.00  0.00    +0.000 A 
ENDBRANCH   8  17
ENDBRANCH   7  10
ENDBRANCH   1   7
BRANCH   4  19
ATOM     19  C   UNL     1      47.336   8.111  13.480  0.00  0.00    +0.000 C 
BRANCH  19  20
ATOM     20  N   UNL     1      47.665   7.637  14.801  0.00  0.00    +0.000 N 
ATOM     21  C   UNL     1      48.877   7.047  15.064  0.00  0.00    +0.000 C 
ATOM     22  O   UNL     1      49.746   6.929  14.205  0.00  0.00    +0.000 OA
ATOM     23  H   UNL     1      46.890   7.478  15.436  0.00  0.00    +0.000 HD
BRANCH  21  24
ATOM     24  C   UNL     1      49.106   6.615  16.451  0.00  0.00    +0.000 A 
ATOM     25  C   UNL     1      49.735   7.469  17.348  0.00  0.00    +0.000 A 
ATOM     26  S   UNL     1      49.870   6.823  18.922  0.00  0.00    +0.000 S 
ATOM     27  C   UNL     1      49.142   5.362  18.445  0.00  0.00    +0.000 A 
ATOM     28  N   UNL     1      48.970   4.339  19.329  0.00  0.00    +0.000 NA
ATOM     29  C   UNL     1      48.429   3.282  18.819  0.00  0.00    +0.000 A 
ATOM     30  N   UNL     1      48.031   3.159  17.514  0.00  0.00    +0.000 N 
ATOM     31  C   UNL     1      48.156   4.175  16.598  0.00  0.00    +0.000 A 
ATOM     32  O   UNL     1      47.739   4.044  15.446  0.00  0.00    +0.000 OA
ATOM     33  C   UNL     1      48.776   5.378  17.112  0.00  0.00    +0.000 A 
ATOM     34  H   UNL     1      47.598   2.309  17.182  0.00  0.00    +0.000 HD
ENDBRANCH  21  24
ENDBRANCH  19  20
ENDBRANCH   4  19
TORSDOF 6
ENDMDL
MODEL 2
REMARK VINA RESULT:    -8.270      3.581      6.386
REMARK INTER + INTRA:         -11.865
REMARK INTER:                 -10.871
REMARK INTRA:                  -0.994
REMARK UNBOUND:                -0.694
REMARK  Name = 
REMARK  7 active torsions:
REMARK  status: ('A' for Active; 'I' for Inactive)
REMARK    1  A    between atoms: C_1  and  C_2
REMARK    2  A    between atoms: C_6  and  C_7
REMARK    3  A    between atoms: N_9  and  C_10
REMARK    4  A    between atoms: C_10  and  C_11
REMARK    5  A    between atoms: C_14  and  C_15
REMARK    6  A    between atoms: C_15  and  N_16
REMARK    7  A    between atoms: C_17  and  C_19
REMARK                            x       y       z     vdW  Elec       q    Type
REMARK                         _______ _______ _______ _____ _____    ______ ____
ROOT
ATOM      1  C   UNL     1      46.854   2.161   6.601  0.00  0.00    +0.000 A 
ATOM      2  C   UNL     1      46.430   3.493   6.698  0.00  0.00    +0.000 A 
ATOM      3  C   UNL     1      45.657   3.926   7.784  0.00  0.00    +0.000 A 
ATOM      4  C   UNL     1      45.308   3.038   8.810  0.00  0.00    +0.000 A 
ATOM      5  C   UNL     1      45.722   1.703   8.707  0.00  0.00    +0.000 A 
ATOM      6  C   UNL     1      46.498   1.271   7.623  0.00  0.00    +0.000 A 
ENDROOT
BRANCH   1   7
ATOM      7  C   UNL     1      47.643   1.692   5.405  0.00  0.00    +0.000 C 
BRANCH   7  10
ATOM      8  C   UNL     1      46.732   0.076   3.803  0.00  0.00    +0.000 C 
ATOM      9  O   UNL     1      46.406   0.952   3.007  0.00  0.00    +0.000 OA
ATOM     10  N   UNL     1      47.348   0.339   5.012  0.00  0.00    +0.000 N 
ATOM     11  H   UNL     1      47.567  -0.451   5.611  0.00  0.00    +0.000 HD
BRANCH   8  17
ATOM     12  C   UNL     1      46.896  -4.747   5.165  0.00  0.00    +0.000 C 
ATOM     13  C   UNL     1      46.559  -3.682   4.165  0.00  0.00    +0.000 A 
ATOM     14  C   UNL     1      45.998  -3.997   2.926  0.00  0.00    +0.000 A 
ATOM     15  C   UNL     1      45.707  -2.967   2.040  0.00  0.00    +0.000 A 
ATOM     16  N   UNL     1      45.936  -1.662   2.292  0.00  0.00    +0.000 NA
ATOM     17  C   UNL     1      46.481  -1.374   3.506  0.00  0.00    +0.000 A 
ATOM     18  C   UNL     1      46.808  -2.338   4.457  0.00  0.00    +0.000 A 
ENDBRANCH   8  17
ENDBRANCH   7  10
ENDBRANCH   1   7
BRANCH   4  19
ATOM     19  C   UNL     1      44.499   3.492  10.001  0.00  0.00    +0.000 C 
BRANCH  19  20
ATOM     20  N   UNL     1      45.023   4.702  10.583  0.00  0.00    +0.000 N 
ATOM     21  C   UNL     1      44.194   5.632  11.159  0.00  0.00    +0.000 C 
ATOM     22  O   UNL     1      42.980   5.464  11.240  0.00  0.00    +0.000 OA
ATOM     23  H   UNL     1      45.955   4.982  10.293  0.00  0.00    +0.000 HD
BRANCH  21  24
ATOM     24  C   UNL     1      44.844   6.820  11.732  0.00  0.00    +0.000 A 
ATOM     25  C   UNL     1      44.440   8.090  11.336  0.00  0.00    +0.000 A 
ATOM     26  S   UNL     1      45.265   9.348  12.140  0.00  0.00    +0.000 S 
ATOM     27  C   UNL     1      46.226   8.242  13.003  0.00  0.00    +0.000 A 
ATOM     28  N   UNL     1      47.183   8.670  13.875  0.00  0.00    +0.000 NA
ATOM     29  C   UNL     1      47.852   7.719  14.437  0.00  0.00    +0.000 A 
ATOM     30  N   UNL     1      47.644   6.382  14.221  0.00  0.00    +0.000 N 
ATOM     31  C   UNL     1      46.671   5.907  13.377  0.00  0.00    +0.000 A 
ATOM     32  O   UNL     1      46.479   4.696  13.248  0.00  0.00    +0.000 OA
ATOM     33  C   UNL     1      45.901   6.932  12.703  0.00  0.00    +0.000 A 
ATOM     34  H   UNL     1      48.193   5.687  14.706  0.00  0.00    +0.000 HD
ENDBRANCH  21  24
ENDBRANCH  19  20
ENDBRANCH   4  19
TORSDOF 6
ENDMDL
MODEL 3
REMARK VINA RESULT:    -8.100      1.986      2.568
REMARK INTER + INTRA:         -11.635
REMARK INTER:                 -10.617
REMARK INTRA:                  -1.018
REMARK UNBOUND:                -0.694
REMARK  Name = 
REMARK  7 active torsions:
REMARK  status: ('A' for Active; 'I' for Inactive)
REMARK    1  A    between atoms: C_1  and  C_2
REMARK    2  A    between atoms: C_6  and  C_7
REMARK    3  A    between atoms: N_9  and  C_10
REMARK    4  A    between atoms: C_10  and  C_11
REMARK    5  A    between atoms: C_14  and  C_15
REMARK    6  A    between atoms: C_15  and  N_16
REMARK    7  A    between atoms: C_17  and  C_19
REMARK                            x       y       z     vdW  Elec       q    Type
REMARK                         _______ _______ _______ _____ _____    ______ ____
ROOT
ATOM      1  C   UNL     1      45.501   4.771  12.060  0.00  0.00    +0.000 A 
ATOM      2  C   UNL     1      45.947   4.234  13.275  0.00  0.00    +0.000 A 
ATOM      3  C   UNL     1      46.892   4.912  14.057  0.00  0.00    +0.000 A 
ATOM      4  C   UNL     1      47.396   6.155  13.652  0.00  0.00    +0.000 A 
ATOM      5  C   UNL     1      46.958   6.686  12.430  0.00  0.00    +0.000 A 
ATOM      6  C   UNL     1      46.012   6.010  11.650  0.00  0.00    +0.000 A 
ENDROOT
BRANCH   1   7
ATOM      7  C   UNL     1      44.523   4.013  11.199  0.00  0.00    +0.000 C 
BRANCH   7  10
ATOM      8  C   UNL     1      45.292   3.507   8.926  0.00  0.00    +0.000 C 
ATOM      9  O   UNL     1      44.905   4.586   8.487  0.00  0.00    +0.000 OA
ATOM     10  N   UNL     1      45.150   3.131  10.249  0.00  0.00    +0.000 N 
ATOM     11  H   UNL     1      45.487   2.212  10.516  0.00  0.00    +0.000 HD
BRANCH   8  17
ATOM     12  C   UNL     1      47.661   2.357   4.660  0.00  0.00    +0.000 C 
ATOM     13  C   UNL     1      47.100   1.958   5.992  0.00  0.00    +0.000 A 
ATOM     14  C   UNL     1      47.184   0.644   6.455  0.00  0.00    +0.000 A 
ATOM     15  C   UNL     1      46.647   0.334   7.697  0.00  0.00    +0.000 A 
ATOM     16  N   UNL     1      46.034   1.225   8.502  0.00  0.00    +0.000 NA
ATOM     17  C   UNL     1      45.963   2.503   8.036  0.00  0.00    +0.000 A 
ATOM     18  C   UNL     1      46.472   2.907   6.803  0.00  0.00    +0.000 A 
ENDBRANCH   8  17
ENDBRANCH   7  10
ENDBRANCH   1   7
BRANCH   4  19
ATOM     19  C   UNL     1      48.393   6.912  14.495  0.00  0.00    +0.000 C 
BRANCH  19  20
ATOM     20  N   UNL     1      48.183   6.699  15.905  0.00  0.00    +0.000 N 
ATOM     21  C   UNL     1      49.167   6.166  16.699  0.00  0.00    +0.000 C 
ATOM     22  O   UNL     1      50.278   5.880  16.260  0.00  0.00    +0.000 OA
ATOM     23  H   UNL     1      47.219   6.669  16.224  0.00  0.00    +0.000 HD
BRANCH  21  24
ATOM     24  C   UNL     1      48.842   6.008  18.124  0.00  0.00    +0.000 A 
ATOM     25  C   UNL     1      49.064   4.789  18.755  0.00  0.00    +0.000 A 
ATOM     26  S   UNL     1      48.679   4.803  20.417  0.00  0.00    +0.000 S 
ATOM     27  C   UNL     1      48.154   6.419  20.339  0.00  0.00    +0.000 A 
ATOM     28  N   UNL     1      47.663   7.054  21.441  0.00  0.00    +0.000 NA
ATOM     29  C   UNL     1      47.277   8.268  21.225  0.00  0.00    +0.000 A 
ATOM     30  N   UNL     1      47.350   8.909  20.017  0.00  0.00    +0.000 N 
ATOM     31  C   UNL     1      47.866   8.318  18.890  0.00  0.00    +0.000 A 
ATOM     32  O   UNL     1      47.963   8.945  17.834  0.00  0.00    +0.000 OA
ATOM     33  C   UNL     1      48.297   6.948  19.070  0.00  0.00    +0.000 A 
ATOM     34  H   UNL     1      47.045   9.868  19.919  0.00  0.00    +0.000 HD
ENDBRANCH  21  24
ENDBRANCH  19  20
ENDBRANCH   4  19
TORSDOF 6
ENDMDL
MODEL 4
REMARK VINA RESULT:    -7.702      4.174      7.308
REMARK INTER + INTRA:         -11.098
REMARK INTER:                 -10.096
REMARK INTRA:                  -1.002
REMARK UNBOUND:                -0.694
REMARK  Name = 
REMARK  7 active torsions:
REMARK  status: ('A' for Active; 'I' for Inactive)
REMARK    1  A    between atoms: C_1  and  C_2
REMARK    2  A    between atoms: C_6  and  C_7
REMARK    3  A    between atoms: N_9  and  C_10
REMARK    4  A    between atoms: C_10  and  C_11
REMARK    5  A    between atoms: C_14  and  C_15
REMARK    6  A    between atoms: C_15  and  N_16
REMARK    7  A    between atoms: C_17  and  C_19
REMARK                            x       y       z     vdW  Elec       q    Type
REMARK                         _______ _______ _______ _____ _____    ______ ____
ROOT
ATOM      1  C   UNL     1      44.959   8.962  11.830  0.00  0.00    +0.000 A 
ATOM      2  C   UNL     1      46.005   8.858  12.758  0.00  0.00    +0.000 A 
ATOM      3  C   UNL     1      46.433   7.607  13.223  0.00  0.00    +0.000 A 
ATOM      4  C   UNL     1      45.837   6.429  12.752  0.00  0.00    +0.000 A 
ATOM      5  C   UNL     1      44.784   6.534  11.835  0.00  0.00    +0.000 A 
ATOM      6  C   UNL     1      44.358   7.784  11.368  0.00  0.00    +0.000 A 
ENDROOT
BRANCH   1   7
ATOM      7  C   UNL     1      44.471  10.313  11.374  0.00  0.00    +0.000 C 
BRANCH   7  10
ATOM      8  C   UNL     1      42.055  10.700  11.219  0.00  0.00    +0.000 C 
ATOM      9  O   UNL     1      42.013  10.366  10.039  0.00  0.00    +0.000 OA
ATOM     10  N   UNL     1      43.219  10.707  11.965  0.00  0.00    +0.000 N 
ATOM     11  H   UNL     1      43.157  11.014  12.931  0.00  0.00    +0.000 HD
BRANCH   8  17
ATOM     12  C   UNL     1      37.098  10.435  11.925  0.00  0.00    +0.000 C 
ATOM     13  C   UNL     1      38.441  10.995  12.285  0.00  0.00    +0.000 A 
ATOM     14  C   UNL     1      38.590  11.930  13.311  0.00  0.00    +0.000 A 
ATOM     15  C   UNL     1      39.860  12.413  13.599  0.00  0.00    +0.000 A 
ATOM     16  N   UNL     1      40.979  12.043  12.945  0.00  0.00    +0.000 NA
ATOM     17  C   UNL     1      40.816  11.128  11.949  0.00  0.00    +0.000 A 
ATOM     18  C   UNL     1      39.582  10.589  11.587  0.00  0.00    +0.000 A 
ENDBRANCH   8  17
ENDBRANCH   7  10
ENDBRANCH   1   7
BRANCH   4  19
ATOM     19  C   UNL     1      46.303   5.072  13.221  0.00  0.00    +0.000 C 
BRANCH  19  20
ATOM     20  N   UNL     1      46.864   5.119  14.548  0.00  0.00    +0.000 N 
ATOM     21  C   UNL     1      47.407   4.002  15.132  0.00  0.00    +0.000 C 
ATOM     22  O   UNL     1      47.474   2.925  14.546  0.00  0.00    +0.000 OA
ATOM     23  H   UNL     1      46.581   5.897  15.136  0.00  0.00    +0.000 HD
BRANCH  21  24
ATOM     24  C   UNL     1      47.961   4.175  16.483  0.00  0.00    +0.000 A 
ATOM     25  C   UNL     1      47.581   3.312  17.504  0.00  0.00    +0.000 A 
ATOM     26  S   UNL     1      48.361   3.628  18.988  0.00  0.00    +0.000 S 
ATOM     27  C   UNL     1      49.190   4.961  18.332  0.00  0.00    +0.000 A 
ATOM     28  N   UNL     1      50.030   5.714  19.098  0.00  0.00    +0.000 NA
ATOM     29  C   UNL     1      50.568   6.708  18.473  0.00  0.00    +0.000 A 
ATOM     30  N   UNL     1      50.356   7.011  17.154  0.00  0.00    +0.000 N 
ATOM     31  C   UNL     1      49.543   6.262  16.339  0.00  0.00    +0.000 A 
ATOM     32  O   UNL     1      49.418   6.535  15.144  0.00  0.00    +0.000 OA
ATOM     33  C   UNL     1      48.897   5.143  16.994  0.00  0.00    +0.000 A 
ATOM     34  H   UNL     1      50.821   7.796  16.720  0.00  0.00    +0.000 HD
ENDBRANCH  21  24
ENDBRANCH  19  20
ENDBRANCH   4  19
TORSDOF 6
ENDMDL
MODEL 5
REMARK VINA RESULT:    -7.654      1.668      2.348
REMARK INTER + INTRA:         -11.032
REMARK INTER:                 -10.136
REMARK INTRA:                  -0.897
REMARK UNBOUND:                -0.694
REMARK  Name = 
REMARK  7 active torsions:
REMARK  status: ('A' for Active; 'I' for Inactive)
REMARK    1  A    between atoms: C_1  and  C_2
REMARK    2  A    between atoms: C_6  and  C_7
REMARK    3  A    between atoms: N_9  and  C_10
REMARK    4  A    between atoms: C_10  and  C_11
REMARK    5  A    between atoms: C_14  and  C_15
REMARK    6  A    between atoms: C_15  and  N_16
REMARK    7  A    between atoms: C_17  and  C_19
REMARK                            x       y       z     vdW  Elec       q    Type
REMARK                         _______ _______ _______ _____ _____    ______ ____
ROOT
ATOM      1  C   UNL     1      45.185   6.666  11.594  0.00  0.00    +0.000 A 
ATOM      2  C   UNL     1      44.978   8.043  11.743  0.00  0.00    +0.000 A 
ATOM      3  C   UNL     1      45.767   8.800  12.621  0.00  0.00    +0.000 A 
ATOM      4  C   UNL     1      46.798   8.196  13.353  0.00  0.00    +0.000 A 
ATOM      5  C   UNL     1      46.997   6.816  13.214  0.00  0.00    +0.000 A 
ATOM      6  C   UNL     1      46.210   6.061  12.334  0.00  0.00    +0.000 A 
ENDROOT
BRANCH   1   7
ATOM      7  C   UNL     1      44.300   5.851  10.687  0.00  0.00    +0.000 C 
BRANCH   7  10
ATOM      8  C   UNL     1      44.714   3.774   9.450  0.00  0.00    +0.000 C 
ATOM      9  O   UNL     1      43.827   3.168  10.045  0.00  0.00    +0.000 OA
ATOM     10  N   UNL     1      45.023   5.099   9.694  0.00  0.00    +0.000 N 
ATOM     11  H   UNL     1      45.783   5.511   9.162  0.00  0.00    +0.000 HD
BRANCH   8  17
ATOM     12  C   UNL     1      46.901  -0.331   7.578  0.00  0.00    +0.000 C 
ATOM     13  C   UNL     1      46.580   1.131   7.497  0.00  0.00    +0.000 A 
ATOM     14  C   UNL     1      47.029   1.918   6.436  0.00  0.00    +0.000 A 
ATOM     15  C   UNL     1      46.700   3.267   6.415  0.00  0.00    +0.000 A 
ATOM     16  N   UNL     1      45.969   3.885   7.365  0.00  0.00    +0.000 NA
ATOM     17  C   UNL     1      45.537   3.101   8.391  0.00  0.00    +0.000 A 
ATOM     18  C   UNL     1      45.818   1.740   8.499  0.00  0.00    +0.000 A 
ENDBRANCH   8  17
ENDBRANCH   7  10
ENDBRANCH   1   7
BRANCH   4  19
ATOM     19  C   UNL     1      47.676   8.999  14.282  0.00  0.00    +0.000 C 
BRANCH  19  20
ATOM     20  N   UNL     1      47.910   8.317  15.531  0.00  0.00    +0.000 N 
ATOM     21  C   UNL     1      48.418   8.981  16.620  0.00  0.00    +0.000 C 
ATOM     22  O   UNL     1      48.664  10.184  16.596  0.00  0.00    +0.000 OA
ATOM     23  H   UNL     1      47.975   7.305  15.494  0.00  0.00    +0.000 HD
BRANCH  21  24
ATOM     24  C   UNL     1      48.601   8.185  17.843  0.00  0.00    +0.000 A 
ATOM     25  C   UNL     1      48.119   8.658  19.057  0.00  0.00    +0.000 A 
ATOM     26  S   UNL     1      48.374   7.583  20.357  0.00  0.00    +0.000 S 
ATOM     27  C   UNL     1      49.184   6.474  19.353  0.00  0.00    +0.000 A 
ATOM     28  N   UNL     1      49.696   5.314  19.854  0.00  0.00    +0.000 NA
ATOM     29  C   UNL     1      50.308   4.584  18.982  0.00  0.00    +0.000 A 
ATOM     30  N   UNL     1      50.441   4.897  17.655  0.00  0.00    +0.000 N 
ATOM     31  C   UNL     1      49.915   6.039  17.102  0.00  0.00    +0.000 A 
ATOM     32  O   UNL     1      50.011   6.260  15.894  0.00  0.00    +0.000 OA
ATOM     33  C   UNL     1      49.233   6.905  18.041  0.00  0.00    +0.000 A 
ATOM     34  H   UNL     1      50.919   4.273  17.020  0.00  0.00    +0.000 HD
ENDBRANCH  21  24
ENDBRANCH  19  20
ENDBRANCH   4  19
TORSDOF 6
ENDMDL
MODEL 6
REMARK VINA RESULT:    -7.521      1.702      2.301
REMARK INTER + INTRA:         -10.853
REMARK INTER:                 -10.361
REMARK INTRA:                  -0.492
REMARK UNBOUND:                -0.694
REMARK  Name = 
REMARK  7 active torsions:
REMARK  status: ('A' for Active; 'I' for Inactive)
REMARK    1  A    between atoms: C_1  and  C_2
REMARK    2  A    between atoms: C_6  and  C_7
REMARK    3  A    between atoms: N_9  and  C_10
REMARK    4  A    between atoms: C_10  and  C_11
REMARK    5  A    between atoms: C_14  and  C_15
REMARK    6  A    between atoms: C_15  and  N_16
REMARK    7  A    between atoms: C_17  and  C_19
REMARK                            x       y       z     vdW  Elec       q    Type
REMARK                         _______ _______ _______ _____ _____    ______ ____
ROOT
ATOM      1  C   UNL     1      44.746   5.125  11.208  0.00  0.00    +0.000 A 
ATOM      2  C   UNL     1      44.878   6.516  11.104  0.00  0.00    +0.000 A 
ATOM      3  C   UNL     1      45.713   7.227  11.978  0.00  0.00    +0.000 A 
ATOM      4  C   UNL     1      46.452   6.557  12.962  0.00  0.00    +0.000 A 
ATOM      5  C   UNL     1      46.310   5.167  13.074  0.00  0.00    +0.000 A 
ATOM      6  C   UNL     1      45.478   4.457  12.199  0.00  0.00    +0.000 A 
ENDROOT
BRANCH   1   7
ATOM      7  C   UNL     1      43.808   4.374  10.298  0.00  0.00    +0.000 C 
BRANCH   7  10
ATOM      8  C   UNL     1      45.411   3.743   8.552  0.00  0.00    +0.000 C 
ATOM      9  O   UNL     1      45.752   4.906   8.357  0.00  0.00    +0.000 OA
ATOM     10  N   UNL     1      44.461   3.378   9.488  0.00  0.00    +0.000 N 
ATOM     11  H   UNL     1      44.233   2.392   9.567  0.00  0.00    +0.000 HD
BRANCH   8  17
ATOM     12  C   UNL     1      47.382   1.936   4.311  0.00  0.00    +0.000 C 
ATOM     13  C   UNL     1      46.966   1.755   5.740  0.00  0.00    +0.000 A 
ATOM     14  C   UNL     1      47.132   0.536   6.398  0.00  0.00    +0.000 A 
ATOM     15  C   UNL     1      46.728   0.428   7.723  0.00  0.00    +0.000 A 
ATOM     16  N   UNL     1      46.172   1.432   8.430  0.00  0.00    +0.000 NA
ATOM     17  C   UNL     1      46.020   2.615   7.773  0.00  0.00    +0.000 A 
ATOM     18  C   UNL     1      46.394   2.817   6.446  0.00  0.00    +0.000 A 
ENDBRANCH   8  17
ENDBRANCH   7  10
ENDBRANCH   1   7
BRANCH   4  19
ATOM     19  C   UNL     1      47.377   7.302  13.894  0.00  0.00    +0.000 C 
BRANCH  19  20
ATOM     20  N   UNL     1      47.985   6.429  14.866  0.00  0.00    +0.000 N 
ATOM     21  C   UNL     1      48.674   6.932  15.942  0.00  0.00    +0.000 C 
ATOM     22  O   UNL     1      48.776   8.138  16.147  0.00  0.00    +0.000 OA
ATOM     23  H   UNL     1      48.147   5.469  14.580  0.00  0.00    +0.000 HD
BRANCH  21  24
ATOM     24  C   UNL     1      49.240   5.945  16.874  0.00  0.00    +0.000 A 
ATOM     25  C   UNL     1      48.395   5.170  17.659  0.00  0.00    +0.000 A 
ATOM     26  S   UNL     1      49.220   4.045  18.642  0.00  0.00    +0.000 S 
ATOM     27  C   UNL     1      50.734   4.593  18.092  0.00  0.00    +0.000 A 
ATOM     28  N   UNL     1      51.893   4.053  18.567  0.00  0.00    +0.000 NA
ATOM     29  C   UNL     1      52.964   4.586  18.080  0.00  0.00    +0.000 A 
ATOM     30  N   UNL     1      52.985   5.595  17.154  0.00  0.00    +0.000 N 
ATOM     31  C   UNL     1      51.843   6.146  16.627  0.00  0.00    +0.000 A 
ATOM     32  O   UNL     1      51.902   7.017  15.757  0.00  0.00    +0.000 OA
ATOM     33  C   UNL     1      50.610   5.598  17.152  0.00  0.00    +0.000 A 
ATOM     34  H   UNL     1      53.860   5.958  16.801  0.00  0.00    +0.000 HD
ENDBRANCH  21  24
ENDBRANCH  19  20
ENDBRANCH   4  19
TORSDOF 6
ENDMDL
MODEL 7
REMARK VINA RESULT:    -7.483      4.449      7.006
REMARK INTER + INTRA:         -10.802
REMARK INTER:                 -10.002
REMARK INTRA:                  -0.800
REMARK UNBOUND:                -0.694
REMARK  Name = 
REMARK  7 active torsions:
REMARK  status: ('A' for Active; 'I' for Inactive)
REMARK    1  A    between atoms: C_1  and  C_2
REMARK    2  A    between atoms: C_6  and  C_7
REMARK    3  A    between atoms: N_9  and  C_10
REMARK    4  A    between atoms: C_10  and  C_11
REMARK    5  A    between atoms: C_14  and  C_15
REMARK    6  A    between atoms: C_15  and  N_16
REMARK    7  A    between atoms: C_17  and  C_19
REMARK                            x       y       z     vdW  Elec       q    Type
REMARK                         _______ _______ _______ _____ _____    ______ ____
ROOT
ATOM      1  C   UNL     1      45.321   8.479  12.231  0.00  0.00    +0.000 A 
ATOM      2  C   UNL     1      46.542   8.362  12.907  0.00  0.00    +0.000 A 
ATOM      3  C   UNL     1      46.908   7.162  13.531  0.00  0.00    +0.000 A 
ATOM      4  C   UNL     1      46.067   6.042  13.473  0.00  0.00    +0.000 A 
ATOM      5  C   UNL     1      44.839   6.164  12.807  0.00  0.00    +0.000 A 
ATOM      6  C   UNL     1      44.476   7.363  12.181  0.00  0.00    +0.000 A 
ENDROOT
BRANCH   1   7
ATOM      7  C   UNL     1      44.913   9.789  11.606  0.00  0.00    +0.000 C 
BRANCH   7  10
ATOM      8  C   UNL     1      42.577  10.394  11.167  0.00  0.00    +0.000 C 
ATOM      9  O   UNL     1      42.662  10.111   9.975  0.00  0.00    +0.000 OA
ATOM     10  N   UNL     1      43.631  10.270  12.053  0.00  0.00    +0.000 N 
ATOM     11  H   UNL     1      43.470  10.544  13.017  0.00  0.00    +0.000 HD
BRANCH   8  17
ATOM     12  C   UNL     1      37.601  10.088  11.699  0.00  0.00    +0.000 C 
ATOM     13  C   UNL     1      38.910  10.749  12.008  0.00  0.00    +0.000 A 
ATOM     14  C   UNL     1      38.985  11.858  12.853  0.00  0.00    +0.000 A 
ATOM     15  C   UNL     1      40.227  12.429  13.103  0.00  0.00    +0.000 A 
ATOM     16  N   UNL     1      41.385  11.986  12.574  0.00  0.00    +0.000 NA
ATOM     17  C   UNL     1      41.294  10.903  11.754  0.00  0.00    +0.000 A 
ATOM     18  C   UNL     1      40.094  10.265  11.444  0.00  0.00    +0.000 A 
ENDBRANCH   8  17
ENDBRANCH   7  10
ENDBRANCH   1   7
BRANCH   4  19
ATOM     19  C   UNL     1      46.455   4.733  14.115  0.00  0.00    +0.000 C 
BRANCH  19  20
ATOM     20  N   UNL     1      47.554   4.886  15.036  0.00  0.00    +0.000 N 
ATOM     21  C   UNL     1      47.552   4.258  16.256  0.00  0.00    +0.000 C 
ATOM     22  O   UNL     1      46.641   3.512  16.607  0.00  0.00    +0.000 OA
ATOM     23  H   UNL     1      48.163   5.685  14.891  0.00  0.00    +0.000 HD
BRANCH  21  24
ATOM     24  C   UNL     1      48.733   4.477  17.105  0.00  0.00    +0.000 A 
ATOM     25  C   UNL     1      48.874   5.672  17.801  0.00  0.00    +0.000 A 
ATOM     26  S   UNL     1      50.275   5.732  18.774  0.00  0.00    +0.000 S 
ATOM     27  C   UNL     1      50.766   4.188  18.258  0.00  0.00    +0.000 A 
ATOM     28  N   UNL     1      51.929   3.633  18.704  0.00  0.00    +0.000 NA
ATOM     29  C   UNL     1      52.186   2.469  18.207  0.00  0.00    +0.000 A 
ATOM     30  N   UNL     1      51.384   1.803  17.319  0.00  0.00    +0.000 N 
ATOM     31  C   UNL     1      50.190   2.310  16.868  0.00  0.00    +0.000 A 
ATOM     32  O   UNL     1      49.471   1.658  16.109  0.00  0.00    +0.000 OA
ATOM     33  C   UNL     1      49.861   3.624  17.379  0.00  0.00    +0.000 A 
ATOM     34  H   UNL     1      51.636   0.885  16.979  0.00  0.00    +0.000 HD
ENDBRANCH  21  24
ENDBRANCH  19  20
ENDBRANCH   4  19
TORSDOF 6
ENDMDL
MODEL 8
REMARK VINA RESULT:    -6.955      2.782      4.351
REMARK INTER + INTRA:         -10.089
REMARK INTER:                  -9.077
REMARK INTRA:                  -1.012
REMARK UNBOUND:                -0.694
REMARK  Name = 
REMARK  7 active torsions:
REMARK  status: ('A' for Active; 'I' for Inactive)
REMARK    1  A    between atoms: C_1  and  C_2
REMARK    2  A    between atoms: C_6  and  C_7
REMARK    3  A    between atoms: N_9  and  C_10
REMARK    4  A    between atoms: C_10  and  C_11
REMARK    5  A    between atoms: C_14  and  C_15
REMARK    6  A    between atoms: C_15  and  N_16
REMARK    7  A    between atoms: C_17  and  C_19
REMARK                            x       y       z     vdW  Elec       q    Type
REMARK                         _______ _______ _______ _____ _____    ______ ____
ROOT
ATOM      1  C   UNL     1      47.908   7.940  13.529  0.00  0.00    +0.000 A 
ATOM      2  C   UNL     1      47.848   9.018  14.423  0.00  0.00    +0.000 A 
ATOM      3  C   UNL     1      48.307   8.887  15.741  0.00  0.00    +0.000 A 
ATOM      4  C   UNL     1      48.857   7.679  16.188  0.00  0.00    +0.000 A 
ATOM      5  C   UNL     1      48.905   6.597  15.298  0.00  0.00    +0.000 A 
ATOM      6  C   UNL     1      48.449   6.729  13.980  0.00  0.00    +0.000 A 
ENDROOT
BRANCH   1   7
ATOM      7  C   UNL     1      47.367   8.073  12.129  0.00  0.00    +0.000 C 
BRANCH   7  10
ATOM      8  C   UNL     1      45.538   6.665  11.300  0.00  0.00    +0.000 C 
ATOM      9  O   UNL     1      44.694   7.533  11.502  0.00  0.00    +0.000 OA
ATOM     10  N   UNL     1      46.882   6.836  11.575  0.00  0.00    +0.000 N 
ATOM     11  H   UNL     1      47.503   6.055  11.388  0.00  0.00    +0.000 HD
BRANCH   8  17
ATOM     12  C   UNL     1      45.585   3.380   7.513  0.00  0.00    +0.000 C 
ATOM     13  C   UNL     1      45.187   3.762   8.907  0.00  0.00    +0.000 A 
ATOM     14  C   UNL     1      44.453   2.895   9.719  0.00  0.00    +0.000 A 
ATOM     15  C   UNL     1      44.114   3.305  11.002  0.00  0.00    +0.000 A 
ATOM     16  N   UNL     1      44.441   4.502  11.528  0.00  0.00    +0.000 NA
ATOM     17  C   UNL     1      45.158   5.333  10.723  0.00  0.00    +0.000 A 
ATOM     18  C   UNL     1      45.543   5.011   9.423  0.00  0.00    +0.000 A 
ENDBRANCH   8  17
ENDBRANCH   7  10
ENDBRANCH   1   7
BRANCH   4  19
ATOM     19  C   UNL     1      49.381   7.527  17.596  0.00  0.00    +0.000 C 
BRANCH  19  20
ATOM     20  N   UNL     1      50.308   6.429  17.714  0.00  0.00    +0.000 N 
ATOM     21  C   UNL     1      50.741   5.992  18.941  0.00  0.00    +0.000 C 
ATOM     22  O   UNL     1      50.337   6.485  19.990  0.00  0.00    +0.000 OA
ATOM     23  H   UNL     1      50.848   6.197  16.886  0.00  0.00    +0.000 HD
BRANCH  21  24
ATOM     24  C   UNL     1      51.674   4.856  18.937  0.00  0.00    +0.000 A 
ATOM     25  C   UNL     1      52.889   4.955  19.605  0.00  0.00    +0.000 A 
ATOM     26  S   UNL     1      53.821   3.527  19.538  0.00  0.00    +0.000 S 
ATOM     27  C   UNL     1      52.659   2.748  18.571  0.00  0.00    +0.000 A 
ATOM     28  N   UNL     1      52.851   1.473  18.128  0.00  0.00    +0.000 NA
ATOM     29  C   UNL     1      51.899   1.021  17.382  0.00  0.00    +0.000 A 
ATOM     30  N   UNL     1      50.767   1.718  17.051  0.00  0.00    +0.000 N 
ATOM     31  C   UNL     1      50.518   2.991  17.501  0.00  0.00    +0.000 A 
ATOM     32  O   UNL     1      49.463   3.566  17.224  0.00  0.00    +0.000 OA
ATOM     33  C   UNL     1      51.564   3.555  18.327  0.00  0.00    +0.000 A 
ATOM     34  H   UNL     1      50.050   1.300  16.474  0.00  0.00    +0.000 HD
ENDBRANCH  21  24
ENDBRANCH  19  20
ENDBRANCH   4  19
TORSDOF 6
ENDMDL
