MODEL 1
REMARK VINA RESULT:    -8.344      0.000      0.000
REMARK INTER + INTRA:         -15.653
REMARK INTER:                 -13.709
REMARK INTRA:                  -1.944
REMARK UNBOUND:                -1.944
REMARK  Name = 
REMARK  13 active torsions:
REMARK  status: ('A' for Active; 'I' for Inactive)
REMARK    1  A    between atoms: C_1  and  C_2
REMARK    2  A    between atoms: C_2  and  N_3
REMARK    3  A    between atoms: C_2  and  C_21
REMARK    4  A    between atoms: N_3  and  C_4
REMARK    5  A    between atoms: C_4  and  C_5
REMARK    6  A    between atoms: C_8  and  C_9
REMARK    7  A    between atoms: C_9  and  N_10
REMARK    8  A    between atoms: N_10  and  C_11
REMARK    9  A    between atoms: N_10  and  C_12
REMARK   10  A    between atoms: C_12  and  C_13
REMARK   11  A    between atoms: C_24  and  C_25
REMARK   12  A    between atoms: N_27  and  C_28
REMARK   13  A    between atoms: C_28  and  C_29
REMARK                            x       y       z     vdW  Elec       q    Type
REMARK                         _______ _______ _______ _____ _____    ______ ____
ROOT
ATOM      1  C   UNL     1      43.264   3.399  11.879  0.00  0.00    +0.000 C 
ATOM      2  C   UNL     1      43.323   4.266  10.616  0.00  0.00    +0.000 C 
ENDROOT
BRANCH   2   3
ATOM      3  C   UNL     1      44.333   3.701   9.630  0.00  0.00    +0.000 A 
ATOM      4  C   UNL     1      45.141   4.570   8.877  0.00  0.00    +0.000 A 
ATOM      5  C   UNL     1      46.094   4.066   7.988  0.00  0.00    +0.000 A 
ATOM      6  C   UNL     1      46.243   2.683   7.838  0.00  0.00    +0.000 A 
ATOM      7  C   UNL     1      45.476   1.812   8.618  0.00  0.00    +0.000 A 
ATOM      8  C   UNL     1      44.525   2.316   9.502  0.00  0.00    +0.000 A 
BRANCH   6   9
ATOM      9  C   UNL     1      47.173   2.076   6.852  0.00  0.00    +0.000 C 
ATOM     10  O   UNL     1      48.058   1.314   7.224  0.00  0.00    +0.000 OA
ATOM     11  N   UNL     1      46.927   2.361   5.531  0.00  0.00    +0.000 N 
ATOM     12  H   UNL     1      46.207   3.012   5.255  0.00  0.00    +0.000 HD
BRANCH  11  13
ATOM     13  C   UNL     1      47.685   1.734   4.471  0.00  0.00    +0.000 C 
BRANCH  13  14
ATOM     14  C   UNL     1      46.866   0.725   3.706  0.00  0.00    +0.000 A 
ATOM     15  C   UNL     1      45.807   1.146   2.904  0.00  0.00    +0.000 A 
ATOM     16  C   UNL     1      45.071   0.194   2.207  0.00  0.00    +0.000 A 
ATOM     17  C   UNL     1      45.403  -1.149   2.337  0.00  0.00    +0.000 A 
ATOM     18  C   UNL     1      46.456  -1.486   3.171  0.00  0.00    +0.000 A 
ATOM     19  N   UNL     1      47.191  -0.586   3.860  0.00  0.00    +0.000 NA
ENDBRANCH  13  14
ENDBRANCH  11  13
ENDBRANCH   6   9
ENDBRANCH   2   3
BRANCH   2  20
ATOM     20  N   UNL     1      43.613   5.657  10.989  0.00  0.00    +0.000 NA
ATOM     21  H   UNL     1      42.809   6.247  10.785  0.00  0.00    +0.000 HD
BRANCH  20  22
ATOM     22  C   UNL     1      43.931   5.780  12.413  0.00  0.00    +0.000 C 
BRANCH  22  23
ATOM     23  C   UNL     1      45.339   6.262  12.638  0.00  0.00    +0.000 A 
ATOM     24  C   UNL     1      45.592   7.618  12.893  0.00  0.00    +0.000 A 
ATOM     25  C   UNL     1      46.875   8.047  13.224  0.00  0.00    +0.000 A 
ATOM     26  C   UNL     1      47.927   7.126  13.310  0.00  0.00    +0.000 A 
ATOM     27  C   UNL     1      47.690   5.782  12.992  0.00  0.00    +0.000 A 
ATOM     28  C   UNL     1      46.406   5.355  12.658  0.00  0.00    +0.000 A 
BRANCH  26  29
ATOM     29  C   UNL     1      49.288   7.572  13.802  0.00  0.00    +0.000 C 
BRANCH  29  30
ATOM     30  N   UNL     1      49.749   6.806  14.980  0.00  0.00    +0.000 NA
ATOM     31  C   UNL     1      51.048   7.295  15.460  0.00  0.00    +0.000 C 
BRANCH  30  32
ATOM     32  C   UNL     1      48.773   6.892  16.079  0.00  0.00    +0.000 C 
BRANCH  32  33
ATOM     33  C   UNL     1      48.518   5.583  16.794  0.00  0.00    +0.000 A 
ATOM     34  C   UNL     1      47.617   4.643  16.273  0.00  0.00    +0.000 A 
ATOM     35  C   UNL     1      47.448   3.405  16.895  0.00  0.00    +0.000 A 
ATOM     36  C   UNL     1      48.173   3.097  18.045  0.00  0.00    +0.000 A 
ATOM     37  C   UNL     1      49.051   4.034  18.587  0.00  0.00    +0.000 A 
ATOM     38  C   UNL     1      49.223   5.272  17.967  0.00  0.00    +0.000 A 
ENDBRANCH  32  33
ENDBRANCH  30  32
ENDBRANCH  29  30
ENDBRANCH  26  29
ENDBRANCH  22  23
ENDBRANCH  20  22
ENDBRANCH   2  20
TORSDOF 11
ENDMDL
MODEL 2
REMARK VINA RESULT:    -7.974      2.050      4.190
REMARK INTER + INTRA:         -15.046
REMARK INTER:                 -13.069
REMARK INTRA:                  -1.976
REMARK UNBOUND:                -1.944
REMARK  Name = 
REMARK  13 active torsions:
REMARK  status: ('A' for Active; 'I' for Inactive)
REMARK    1  A    between atoms: C_1  and  C_2
REMARK    2  A    between atoms: C_2  and  N_3
REMARK    3  A    between atoms: C_2  and  C_21
REMARK    4  A    between atoms: N_3  and  C_4
REMARK    5  A    between atoms: C_4  and  C_5
REMARK    6  A    between atoms: C_8  and  C_9
REMARK    7  A    between atoms: C_9  and  N_10
REMARK    8  A    between atoms: N_10  and  C_11
REMARK    9  A    between atoms: N_10  and  C_12
REMARK   10  A    between atoms: C_12  and  C_13
REMARK   11  A    between atoms: C_24  and  C_25
REMARK   12  A    between atoms: N_27  and  C_28
REMARK   13  A    between atoms: C_28  and  C_29
REMARK                            x       y       z     vdW  Elec       q    Type
REMARK                         _______ _______ _______ _____ _____    ______ ____
ROOT
ATOM      1  C   UNL     1      43.642   2.872  11.899  0.00  0.00    +0.000 C 
ATOM      2  C   UNL     1      43.488   3.756  10.655  0.00  0.00    +0.000 C 
ENDROOT
BRANCH   2   3
ATOM      3  C   UNL     1      44.487   3.346   9.585  0.00  0.00    +0.000 A 
ATOM      4  C   UNL     1      45.116   4.327   8.799  0.00  0.00    +0.000 A 
ATOM      5  C   UNL     1      46.057   3.969   7.831  0.00  0.00    +0.000 A 
ATOM      6  C   UNL     1      46.376   2.621   7.635  0.00  0.00    +0.000 A 
ATOM      7  C   UNL     1      45.789   1.643   8.444  0.00  0.00    +0.000 A 
ATOM      8  C   UNL     1      44.849   2.001   9.408  0.00  0.00    +0.000 A 
BRANCH   6   9
ATOM      9  C   UNL     1      47.301   2.159   6.568  0.00  0.00    +0.000 C 
ATOM     10  O   UNL     1      48.419   1.747   6.856  0.00  0.00    +0.000 OA
ATOM     11  N   UNL     1      46.800   2.157   5.290  0.00  0.00    +0.000 N 
ATOM     12  H   UNL     1      45.884   2.525   5.079  0.00  0.00    +0.000 HD
BRANCH  11  13
ATOM     13  C   UNL     1      47.560   1.616   4.184  0.00  0.00    +0.000 C 
BRANCH  13  14
ATOM     14  C   UNL     1      46.784   0.576   3.416  0.00  0.00    +0.000 A 
ATOM     15  C   UNL     1      45.608   0.925   2.755  0.00  0.00    +0.000 A 
ATOM     16  C   UNL     1      44.914  -0.055   2.052  0.00  0.00    +0.000 A 
ATOM     17  C   UNL     1      45.406  -1.353   2.035  0.00  0.00    +0.000 A 
ATOM     18  C   UNL     1      46.571  -1.623   2.735  0.00  0.00    +0.000 A 
ATOM     19  N   UNL     1      47.268  -0.695   3.426  0.00  0.00    +0.000 NA
ENDBRANCH  13  14
ENDBRANCH  11  13
ENDBRANCH   6   9
ENDBRANCH   2   3
BRANCH   2  20
ATOM     20  N   UNL     1      43.615   5.169  11.038  0.00  0.00    +0.000 NA
ATOM     21  H   UNL     1      42.711   5.631  10.967  0.00  0.00    +0.000 HD
BRANCH  20  22
ATOM     22  C   UNL     1      44.107   5.315  12.409  0.00  0.00    +0.000 C 
BRANCH  22  23
ATOM     23  C   UNL     1      45.551   5.736  12.450  0.00  0.00    +0.000 A 
ATOM     24  C   UNL     1      46.120   6.424  11.367  0.00  0.00    +0.000 A 
ATOM     25  C   UNL     1      47.417   6.923  11.451  0.00  0.00    +0.000 A 
ATOM     26  C   UNL     1      48.167   6.748  12.622  0.00  0.00    +0.000 A 
ATOM     27  C   UNL     1      47.625   6.006  13.679  0.00  0.00    +0.000 A 
ATOM     28  C   UNL     1      46.327   5.503  13.592  0.00  0.00    +0.000 A 
BRANCH  26  29
ATOM     29  C   UNL     1      49.523   7.408  12.760  0.00  0.00    +0.000 C 
BRANCH  29  30
ATOM     30  N   UNL     1      49.426   8.846  13.090  0.00  0.00    +0.000 NA
ATOM     31  C   UNL     1      50.328   9.204  14.193  0.00  0.00    +0.000 C 
BRANCH  30  32
ATOM     32  C   UNL     1      49.752   9.678  11.921  0.00  0.00    +0.000 C 
BRANCH  32  33
ATOM     33  C   UNL     1      48.591  10.485  11.382  0.00  0.00    +0.000 A 
ATOM     34  C   UNL     1      47.302  10.332  11.913  0.00  0.00    +0.000 A 
ATOM     35  C   UNL     1      46.253  11.137  11.467  0.00  0.00    +0.000 A 
ATOM     36  C   UNL     1      46.480  12.097  10.483  0.00  0.00    +0.000 A 
ATOM     37  C   UNL     1      47.750  12.239   9.928  0.00  0.00    +0.000 A 
ATOM     38  C   UNL     1      48.801  11.437  10.373  0.00  0.00    +0.000 A 
ENDBRANCH  32  33
ENDBRANCH  30  32
ENDBRANCH  29  30
ENDBRANCH  26  29
ENDBRANCH  22  23
ENDBRANCH  20  22
ENDBRANCH   2  20
TORSDOF 11
ENDMDL
MODEL 3
REMARK VINA RESULT:    -7.870      1.359      2.029
REMARK INTER + INTRA:         -14.875
REMARK INTER:                 -12.923
REMARK INTRA:                  -1.951
REMARK UNBOUND:                -1.944
REMARK  Name = 
REMARK  13 active torsions:
REMARK  status: ('A' for Active; 'I' for Inactive)
REMARK    1  A    between atoms: C_1  and  C_2
REMARK    2  A    between atoms: C_2  and  N_3
REMARK    3  A    between atoms: C_2  and  C_21
REMARK    4  A    between atoms: N_3  and  C_4
REMARK    5  A    between atoms: C_4  and  C_5
REMARK    6  A    between atoms: C_8  and  C_9
REMARK    7  A    between atoms: C_9  and  N_10
REMARK    8  A    between atoms: N_10  and  C_11
REMARK    9  A    between atoms: N_10  and  C_12
REMARK   10  A    between atoms: C_12  and  C_13
REMARK   11  A    between atoms: C_24  and  C_25
REMARK   12  A    between atoms: N_27  and  C_28
REMARK   13  A    between atoms: C_28  and  C_29
REMARK                            x       y       z     vdW  Elec       q    Type
REMARK                         _______ _______ _______ _____ _____    ______ ____
ROOT
ATOM      1  C   UNL     1      43.556   2.883  12.207  0.00  0.00    +0.000 C 
ATOM      2  C   UNL     1      43.442   3.853  11.025  0.00  0.00    +0.000 C 
ENDROOT
BRANCH   2   3
ATOM      3  C   UNL     1      44.384   3.440   9.905  0.00  0.00    +0.000 A 
ATOM      4  C   UNL     1      44.604   2.077   9.640  0.00  0.00    +0.000 A 
ATOM      5  C   UNL     1      45.444   1.681   8.597  0.00  0.00    +0.000 A 
ATOM      6  C   UNL     1      46.080   2.647   7.809  0.00  0.00    +0.000 A 
ATOM      7  C   UNL     1      45.830   4.004   8.037  0.00  0.00    +0.000 A 
ATOM      8  C   UNL     1      44.993   4.398   9.080  0.00  0.00    +0.000 A 
BRANCH   6   9
ATOM      9  C   UNL     1      47.051   2.303   6.741  0.00  0.00    +0.000 C 
ATOM     10  O   UNL     1      48.196   1.972   7.030  0.00  0.00    +0.000 OA
ATOM     11  N   UNL     1      46.568   2.308   5.456  0.00  0.00    +0.000 N 
ATOM     12  H   UNL     1      45.628   2.608   5.245  0.00  0.00    +0.000 HD
BRANCH  11  13
ATOM     13  C   UNL     1      47.382   1.873   4.342  0.00  0.00    +0.000 C 
BRANCH  13  14
ATOM     14  C   UNL     1      46.780   0.691   3.625  0.00  0.00    +0.000 A 
ATOM     15  C   UNL     1      45.751   0.880   2.704  0.00  0.00    +0.000 A 
ATOM     16  C   UNL     1      45.216  -0.228   2.055  0.00  0.00    +0.000 A 
ATOM     17  C   UNL     1      45.714  -1.491   2.349  0.00  0.00    +0.000 A 
ATOM     18  C   UNL     1      46.724  -1.596   3.292  0.00  0.00    +0.000 A 
ATOM     19  N   UNL     1      47.264  -0.540   3.938  0.00  0.00    +0.000 NA
ENDBRANCH  13  14
ENDBRANCH  11  13
ENDBRANCH   6   9
ENDBRANCH   2   3
BRANCH   2  20
ATOM     20  N   UNL     1      43.684   5.226  11.491  0.00  0.00    +0.000 NA
ATOM     21  H   UNL     1      42.809   5.744  11.517  0.00  0.00    +0.000 HD
BRANCH  20  22
ATOM     22  C   UNL     1      44.276   5.245  12.830  0.00  0.00    +0.000 C 
BRANCH  22  23
ATOM     23  C   UNL     1      45.682   5.783  12.818  0.00  0.00    +0.000 A 
ATOM     24  C   UNL     1      46.038   6.817  11.940  0.00  0.00    +0.000 A 
ATOM     25  C   UNL     1      47.301   7.401  12.012  0.00  0.00    +0.000 A 
ATOM     26  C   UNL     1      48.228   6.963  12.968  0.00  0.00    +0.000 A 
ATOM     27  C   UNL     1      47.896   5.887  13.802  0.00  0.00    +0.000 A 
ATOM     28  C   UNL     1      46.633   5.302  13.726  0.00  0.00    +0.000 A 
BRANCH  26  29
ATOM     29  C   UNL     1      49.546   7.689  13.133  0.00  0.00    +0.000 C 
BRANCH  29  30
ATOM     30  N   UNL     1      49.966   7.792  14.547  0.00  0.00    +0.000 NA
ATOM     31  C   UNL     1      51.416   8.000  14.660  0.00  0.00    +0.000 C 
BRANCH  30  32
ATOM     32  C   UNL     1      49.274   8.902  15.223  0.00  0.00    +0.000 C 
BRANCH  32  33
ATOM     33  C   UNL     1      48.661   8.538  16.558  0.00  0.00    +0.000 A 
ATOM     34  C   UNL     1      48.805   7.247  17.086  0.00  0.00    +0.000 A 
ATOM     35  C   UNL     1      48.306   6.941  18.353  0.00  0.00    +0.000 A 
ATOM     36  C   UNL     1      47.655   7.920  19.101  0.00  0.00    +0.000 A 
ATOM     37  C   UNL     1      47.481   9.199  18.575  0.00  0.00    +0.000 A 
ATOM     38  C   UNL     1      47.980   9.507  17.309  0.00  0.00    +0.000 A 
ENDBRANCH  32  33
ENDBRANCH  30  32
ENDBRANCH  29  30
ENDBRANCH  26  29
ENDBRANCH  22  23
ENDBRANCH  20  22
ENDBRANCH   2  20
TORSDOF 11
ENDMDL
MODEL 4
REMARK VINA RESULT:    -7.115      3.301      6.742
REMARK INTER + INTRA:         -13.634
REMARK INTER:                 -10.406
REMARK INTRA:                  -3.228
REMARK UNBOUND:                -1.944
REMARK  Name = 
REMARK  13 active torsions:
REMARK  status: ('A' for Active; 'I' for Inactive)
REMARK    1  A    between atoms: C_1  and  C_2
REMARK    2  A    between atoms: C_2  and  N_3
REMARK    3  A    between atoms: C_2  and  C_21
REMARK    4  A    between atoms: N_3  and  C_4
REMARK    5  A    between atoms: C_4  and  C_5
REMARK    6  A    between atoms: C_8  and  C_9
REMARK    7  A    between atoms: C_9  and  N_10
REMARK    8  A    between atoms: N_10  and  C_11
REMARK    9  A    between atoms: N_10  and  C_12
REMARK   10  A    between atoms: C_12  and  C_13
REMARK   11  A    between atoms: C_24  and  C_25
REMARK   12  A    between atoms: N_27  and  C_28
REMARK   13  A    between atoms: C_28  and  C_29
REMARK                            x       y       z     vdW  Elec       q    Type
REMARK                         _______ _______ _______ _____ _____    ______ ____
ROOT
ATOM      1  C   UNL     1      51.963   8.739  13.167  0.00  0.00    +0.000 C 
ATOM      2  C   UNL     1      50.888   8.756  14.261  0.00  0.00    +0.000 C 
ENDROOT
BRANCH   2   3
ATOM      3  C   UNL     1      49.717   7.868  13.870  0.00  0.00    +0.000 A 
ATOM      4  C   UNL     1      49.147   7.001  14.816  0.00  0.00    +0.000 A 
ATOM      5  C   UNL     1      48.052   6.200  14.481  0.00  0.00    +0.000 A 
ATOM      6  C   UNL     1      47.520   6.255  13.188  0.00  0.00    +0.000 A 
ATOM      7  C   UNL     1      48.053   7.149  12.254  0.00  0.00    +0.000 A 
ATOM      8  C   UNL     1      49.145   7.946  12.589  0.00  0.00    +0.000 A 
BRANCH   6   9
ATOM      9  C   UNL     1      46.416   5.372  12.734  0.00  0.00    +0.000 C 
ATOM     10  O   UNL     1      46.151   4.346  13.351  0.00  0.00    +0.000 OA
ATOM     11  N   UNL     1      45.689   5.815  11.656  0.00  0.00    +0.000 N 
ATOM     12  H   UNL     1      45.944   6.651  11.152  0.00  0.00    +0.000 HD
BRANCH  11  13
ATOM     13  C   UNL     1      44.515   5.106  11.197  0.00  0.00    +0.000 C 
BRANCH  13  14
ATOM     14  C   UNL     1      44.828   4.162  10.063  0.00  0.00    +0.000 A 
ATOM     15  C   UNL     1      45.490   4.625   8.928  0.00  0.00    +0.000 A 
ATOM     16  C   UNL     1      45.769   3.732   7.899  0.00  0.00    +0.000 A 
ATOM     17  C   UNL     1      45.372   2.407   8.026  0.00  0.00    +0.000 A 
ATOM     18  C   UNL     1      44.700   2.031   9.177  0.00  0.00    +0.000 A 
ATOM     19  N   UNL     1      44.415   2.873  10.194  0.00  0.00    +0.000 NA
ENDBRANCH  13  14
ENDBRANCH  11  13
ENDBRANCH   6   9
ENDBRANCH   2   3
BRANCH   2  20
ATOM     20  N   UNL     1      50.483  10.142  14.530  0.00  0.00    +0.000 NA
ATOM     21  H   UNL     1      49.481  10.246  14.383  0.00  0.00    +0.000 HD
BRANCH  20  22
ATOM     22  C   UNL     1      50.797  10.541  15.903  0.00  0.00    +0.000 C 
BRANCH  22  23
ATOM     23  C   UNL     1      49.996   9.764  16.913  0.00  0.00    +0.000 A 
ATOM     24  C   UNL     1      50.641   8.932  17.841  0.00  0.00    +0.000 A 
ATOM     25  C   UNL     1      49.916   8.310  18.854  0.00  0.00    +0.000 A 
ATOM     26  C   UNL     1      48.534   8.514  18.961  0.00  0.00    +0.000 A 
ATOM     27  C   UNL     1      47.879   9.293  17.998  0.00  0.00    +0.000 A 
ATOM     28  C   UNL     1      48.605   9.912  16.982  0.00  0.00    +0.000 A 
BRANCH  26  29
ATOM     29  C   UNL     1      47.773   7.948  20.142  0.00  0.00    +0.000 C 
BRANCH  29  30
ATOM     30  N   UNL     1      47.808   6.470  20.188  0.00  0.00    +0.000 NA
ATOM     31  C   UNL     1      47.236   5.961  21.441  0.00  0.00    +0.000 C 
BRANCH  30  32
ATOM     32  C   UNL     1      47.066   5.890  19.056  0.00  0.00    +0.000 C 
BRANCH  32  33
ATOM     33  C   UNL     1      47.832   4.845  18.274  0.00  0.00    +0.000 A 
ATOM     34  C   UNL     1      49.219   4.706  18.429  0.00  0.00    +0.000 A 
ATOM     35  C   UNL     1      49.907   3.689  17.766  0.00  0.00    +0.000 A 
ATOM     36  C   UNL     1      49.216   2.804  16.939  0.00  0.00    +0.000 A 
ATOM     37  C   UNL     1      47.842   2.950  16.756  0.00  0.00    +0.000 A 
ATOM     38  C   UNL     1      47.153   3.966  17.419  0.00  0.00    +0.000 A 
ENDBRANCH  32  33
ENDBRANCH  30  32
ENDBRANCH  29  30
ENDBRANCH  26  29
ENDBRANCH  22  23
ENDBRANCH  20  22
ENDBRANCH   2  20
TORSDOF 11
ENDMDL
MODEL 5
REMARK VINA RESULT:    -7.074      2.907      6.897
REMARK INTER + INTRA:         -13.566
REMARK INTER:                 -10.336
REMARK INTRA:                  -3.230
REMARK UNBOUND:                -1.944
REMARK  Name = 
REMARK  13 active torsions:
REMARK  status: ('A' for Active; 'I' for Inactive)
REMARK    1  A    between atoms: C_1  and  C_2
REMARK    2  A    between atoms: C_2  and  N_3
REMARK    3  A    between atoms: C_2  and  C_21
REMARK    4  A    between atoms: N_3  and  C_4
REMARK    5  A    between atoms: C_4  and  C_5
REMARK    6  A    between atoms: C_8  and  C_9
REMARK    7  A    between atoms: C_9  and  N_10
REMARK    8  A    between atoms: N_10  and  C_11
REMARK    9  A    between atoms: N_10  and  C_12
REMARK   10  A    between atoms: C_12  and  C_13
REMARK   11  A    between atoms: C_24  and  C_25
REMARK   12  A    between atoms: N_27  and  C_28
REMARK   13  A    between atoms: C_28  and  C_29
REMARK                            x       y       z     vdW  Elec       q    Type
REMARK                         _______ _______ _______ _____ _____    ______ ____
ROOT
ATOM      1  C   UNL     1      48.102   4.071  17.654  0.00  0.00    +0.000 C 
ATOM      2  C   UNL     1      48.656   5.231  16.818  0.00  0.00    +0.000 C 
ENDROOT
BRANCH   2   3
ATOM      3  C   UNL     1      47.912   5.335  15.495  0.00  0.00    +0.000 A 
ATOM      4  C   UNL     1      46.978   4.349  15.136  0.00  0.00    +0.000 A 
ATOM      5  C   UNL     1      46.266   4.445  13.938  0.00  0.00    +0.000 A 
ATOM      6  C   UNL     1      46.487   5.529  13.082  0.00  0.00    +0.000 A 
ATOM      7  C   UNL     1      47.381   6.538  13.454  0.00  0.00    +0.000 A 
ATOM      8  C   UNL     1      48.092   6.440  14.648  0.00  0.00    +0.000 A 
BRANCH   6   9
ATOM      9  C   UNL     1      45.832   5.654  11.755  0.00  0.00    +0.000 C 
ATOM     10  O   UNL     1      46.124   6.579  11.006  0.00  0.00    +0.000 OA
ATOM     11  N   UNL     1      44.962   4.649  11.411  0.00  0.00    +0.000 N 
ATOM     12  H   UNL     1      44.721   3.912  12.057  0.00  0.00    +0.000 HD
BRANCH  11  13
ATOM     13  C   UNL     1      44.356   4.593  10.099  0.00  0.00    +0.000 C 
BRANCH  13  14
ATOM     14  C   UNL     1      45.167   3.768   9.132  0.00  0.00    +0.000 A 
ATOM     15  C   UNL     1      45.220   2.382   9.267  0.00  0.00    +0.000 A 
ATOM     16  C   UNL     1      45.973   1.645   8.359  0.00  0.00    +0.000 A 
ATOM     17  C   UNL     1      46.660   2.310   7.351  0.00  0.00    +0.000 A 
ATOM     18  C   UNL     1      46.572   3.691   7.298  0.00  0.00    +0.000 A 
ATOM     19  N   UNL     1      45.849   4.435   8.163  0.00  0.00    +0.000 NA
ENDBRANCH  13  14
ENDBRANCH  11  13
ENDBRANCH   6   9
ENDBRANCH   2   3
BRANCH   2  20
ATOM     20  N   UNL     1      50.105   5.060  16.641  0.00  0.00    +0.000 NA
ATOM     21  H   UNL     1      50.350   5.166  15.658  0.00  0.00    +0.000 HD
BRANCH  20  22
ATOM     22  C   UNL     1      50.864   6.040  17.419  0.00  0.00    +0.000 C 
BRANCH  22  23
ATOM     23  C   UNL     1      50.994   7.355  16.698  0.00  0.00    +0.000 A 
ATOM     24  C   UNL     1      51.687   7.431  15.481  0.00  0.00    +0.000 A 
ATOM     25  C   UNL     1      51.703   8.617  14.751  0.00  0.00    +0.000 A 
ATOM     26  C   UNL     1      51.022   9.747  15.224  0.00  0.00    +0.000 A 
ATOM     27  C   UNL     1      50.383   9.691  16.470  0.00  0.00    +0.000 A 
ATOM     28  C   UNL     1      50.371   8.504  17.201  0.00  0.00    +0.000 A 
BRANCH  26  29
ATOM     29  C   UNL     1      50.928  10.990  14.365  0.00  0.00    +0.000 C 
BRANCH  29  30
ATOM     30  N   UNL     1      49.625  11.109  13.675  0.00  0.00    +0.000 NA
ATOM     31  C   UNL     1      48.898  12.309  14.109  0.00  0.00    +0.000 C 
BRANCH  30  32
ATOM     32  C   UNL     1      49.806  11.166  12.215  0.00  0.00    +0.000 C 
BRANCH  32  33
ATOM     33  C   UNL     1      50.374   9.903  11.604  0.00  0.00    +0.000 A 
ATOM     34  C   UNL     1      51.630   9.909  10.980  0.00  0.00    +0.000 A 
ATOM     35  C   UNL     1      52.182   8.724  10.492  0.00  0.00    +0.000 A 
ATOM     36  C   UNL     1      51.484   7.524  10.617  0.00  0.00    +0.000 A 
ATOM     37  C   UNL     1      50.223   7.511  11.211  0.00  0.00    +0.000 A 
ATOM     38  C   UNL     1      49.669   8.694  11.701  0.00  0.00    +0.000 A 
ENDBRANCH  32  33
ENDBRANCH  30  32
ENDBRANCH  29  30
ENDBRANCH  26  29
ENDBRANCH  22  23
ENDBRANCH  20  22
ENDBRANCH   2  20
TORSDOF 11
ENDMDL
MODEL 6
REMARK VINA RESULT:    -7.062      2.788      6.220
REMARK INTER + INTRA:         -13.547
REMARK INTER:                 -10.732
REMARK INTRA:                  -2.815
REMARK UNBOUND:                -1.944
REMARK  Name = 
REMARK  13 active torsions:
REMARK  status: ('A' for Active; 'I' for Inactive)
REMARK    1  A    between atoms: C_1  and  C_2
REMARK    2  A    between atoms: C_2  and  N_3
REMARK    3  A    between atoms: C_2  and  C_21
REMARK    4  A    between atoms: N_3  and  C_4
REMARK    5  A    between atoms: C_4  and  C_5
REMARK    6  A    between atoms: C_8  and  C_9
REMARK    7  A    between atoms: C_9  and  N_10
REMARK    8  A    between atoms: N_10  and  C_11
REMARK    9  A    between atoms: N_10  and  C_12
REMARK   10  A    between atoms: C_12  and  C_13
REMARK   11  A    between atoms: C_24  and  C_25
REMARK   12  A    between atoms: N_27  and  C_28
REMARK   13  A    between atoms: C_28  and  C_29
REMARK                            x       y       z     vdW  Elec       q    Type
REMARK                         _______ _______ _______ _____ _____    ______ ____
ROOT
ATOM      1  C   UNL     1      48.383   9.433  16.022  0.00  0.00    +0.000 C 
ATOM      2  C   UNL     1      48.667   9.471  14.516  0.00  0.00    +0.000 C 
ENDROOT
BRANCH   2   3
ATOM      3  C   UNL     1      47.902   8.368  13.802  0.00  0.00    +0.000 A 
ATOM      4  C   UNL     1      48.489   7.103  13.631  0.00  0.00    +0.000 A 
ATOM      5  C   UNL     1      47.789   6.070  13.003  0.00  0.00    +0.000 A 
ATOM      6  C   UNL     1      46.490   6.296  12.533  0.00  0.00    +0.000 A 
ATOM      7  C   UNL     1      45.882   7.537  12.741  0.00  0.00    +0.000 A 
ATOM      8  C   UNL     1      46.582   8.567  13.365  0.00  0.00    +0.000 A 
BRANCH   6   9
ATOM      9  C   UNL     1      45.718   5.274  11.781  0.00  0.00    +0.000 C 
ATOM     10  O   UNL     1      45.412   4.214  12.315  0.00  0.00    +0.000 OA
ATOM     11  N   UNL     1      45.321   5.625  10.514  0.00  0.00    +0.000 N 
ATOM     12  H   UNL     1      45.608   6.495  10.091  0.00  0.00    +0.000 HD
BRANCH  11  13
ATOM     13  C   UNL     1      44.462   4.766   9.729  0.00  0.00    +0.000 C 
BRANCH  13  14
ATOM     14  C   UNL     1      45.248   3.822   8.855  0.00  0.00    +0.000 A 
ATOM     15  C   UNL     1      45.235   2.453   9.114  0.00  0.00    +0.000 A 
ATOM     16  C   UNL     1      45.967   1.604   8.290  0.00  0.00    +0.000 A 
ATOM     17  C   UNL     1      46.698   2.145   7.239  0.00  0.00    +0.000 A 
ATOM     18  C   UNL     1      46.676   3.518   7.063  0.00  0.00    +0.000 A 
ATOM     19  N   UNL     1      45.974   4.368   7.844  0.00  0.00    +0.000 NA
ENDBRANCH  13  14
ENDBRANCH  11  13
ENDBRANCH   6   9
ENDBRANCH   2   3
BRANCH   2  20
ATOM     20  N   UNL     1      50.116   9.394  14.287  0.00  0.00    +0.000 NA
ATOM     21  H   UNL     1      50.371   9.954  13.476  0.00  0.00    +0.000 HD
BRANCH  20  22
ATOM     22  C   UNL     1      50.872   9.878  15.443  0.00  0.00    +0.000 C 
BRANCH  22  23
ATOM     23  C   UNL     1      51.581   8.762  16.162  0.00  0.00    +0.000 A 
ATOM     24  C   UNL     1      51.798   8.836  17.547  0.00  0.00    +0.000 A 
ATOM     25  C   UNL     1      52.341   7.754  18.235  0.00  0.00    +0.000 A 
ATOM     26  C   UNL     1      52.672   6.576  17.551  0.00  0.00    +0.000 A 
ATOM     27  C   UNL     1      52.517   6.525  16.160  0.00  0.00    +0.000 A 
ATOM     28  C   UNL     1      51.976   7.610  15.471  0.00  0.00    +0.000 A 
BRANCH  26  29
ATOM     29  C   UNL     1      53.134   5.357  18.320  0.00  0.00    +0.000 C 
BRANCH  29  30
ATOM     30  N   UNL     1      52.392   4.133  17.948  0.00  0.00    +0.000 NA
ATOM     31  C   UNL     1      53.168   2.924  18.255  0.00  0.00    +0.000 C 
BRANCH  30  32
ATOM     32  C   UNL     1      51.103   4.062  18.655  0.00  0.00    +0.000 C 
BRANCH  32  33
ATOM     33  C   UNL     1      49.892   4.030  17.748  0.00  0.00    +0.000 A 
ATOM     34  C   UNL     1      49.361   2.811  17.303  0.00  0.00    +0.000 A 
ATOM     35  C   UNL     1      48.197   2.785  16.533  0.00  0.00    +0.000 A 
ATOM     36  C   UNL     1      47.556   3.977  16.198  0.00  0.00    +0.000 A 
ATOM     37  C   UNL     1      48.090   5.196  16.612  0.00  0.00    +0.000 A 
ATOM     38  C   UNL     1      49.253   5.224  17.383  0.00  0.00    +0.000 A 
ENDBRANCH  32  33
ENDBRANCH  30  32
ENDBRANCH  29  30
ENDBRANCH  26  29
ENDBRANCH  22  23
ENDBRANCH  20  22
ENDBRANCH   2  20
TORSDOF 11
ENDMDL
MODEL 7
REMARK VINA RESULT:    -6.995      2.669      6.347
REMARK INTER + INTRA:         -13.436
REMARK INTER:                 -10.816
REMARK INTRA:                  -2.620
REMARK UNBOUND:                -1.944
REMARK  Name = 
REMARK  13 active torsions:
REMARK  status: ('A' for Active; 'I' for Inactive)
REMARK    1  A    between atoms: C_1  and  C_2
REMARK    2  A    between atoms: C_2  and  N_3
REMARK    3  A    between atoms: C_2  and  C_21
REMARK    4  A    between atoms: N_3  and  C_4
REMARK    5  A    between atoms: C_4  and  C_5
REMARK    6  A    between atoms: C_8  and  C_9
REMARK    7  A    between atoms: C_9  and  N_10
REMARK    8  A    between atoms: N_10  and  C_11
REMARK    9  A    between atoms: N_10  and  C_12
REMARK   10  A    between atoms: C_12  and  C_13
REMARK   11  A    between atoms: C_24  and  C_25
REMARK   12  A    between atoms: N_27  and  C_28
REMARK   13  A    between atoms: C_28  and  C_29
REMARK                            x       y       z     vdW  Elec       q    Type
REMARK                         _______ _______ _______ _____ _____    ______ ____
ROOT
ATOM      1  C   UNL     1      47.600   3.387  17.280  0.00  0.00    +0.000 C 
ATOM      2  C   UNL     1      47.925   4.681  16.526  0.00  0.00    +0.000 C 
ENDROOT
BRANCH   2   3
ATOM      3  C   UNL     1      47.279   4.671  15.149  0.00  0.00    +0.000 A 
ATOM      4  C   UNL     1      47.052   5.881  14.471  0.00  0.00    +0.000 A 
ATOM      5  C   UNL     1      46.485   5.887  13.194  0.00  0.00    +0.000 A 
ATOM      6  C   UNL     1      46.132   4.678  12.584  0.00  0.00    +0.000 A 
ATOM      7  C   UNL     1      46.396   3.469  13.233  0.00  0.00    +0.000 A 
ATOM      8  C   UNL     1      46.960   3.464  14.507  0.00  0.00    +0.000 A 
BRANCH   6   9
ATOM      9  C   UNL     1      45.447   4.611  11.268  0.00  0.00    +0.000 C 
ATOM     10  O   UNL     1      45.389   5.604  10.550  0.00  0.00    +0.000 OA
ATOM     11  N   UNL     1      44.969   3.380  10.895  0.00  0.00    +0.000 N 
ATOM     12  H   UNL     1      45.008   2.586  11.516  0.00  0.00    +0.000 HD
BRANCH  11  13
ATOM     13  C   UNL     1      44.392   3.160   9.586  0.00  0.00    +0.000 C 
BRANCH  13  14
ATOM     14  C   UNL     1      45.420   2.708   8.580  0.00  0.00    +0.000 A 
ATOM     15  C   UNL     1      45.922   3.604   7.639  0.00  0.00    +0.000 A 
ATOM     16  C   UNL     1      46.872   3.160   6.725  0.00  0.00    +0.000 A 
ATOM     17  C   UNL     1      47.287   1.835   6.769  0.00  0.00    +0.000 A 
ATOM     18  C   UNL     1      46.724   1.002   7.723  0.00  0.00    +0.000 A 
ATOM     19  N   UNL     1      45.801   1.403   8.624  0.00  0.00    +0.000 NA
ENDBRANCH  13  14
ENDBRANCH  11  13
ENDBRANCH   6   9
ENDBRANCH   2   3
BRANCH   2  20
ATOM     20  N   UNL     1      49.383   4.860  16.465  0.00  0.00    +0.000 NA
ATOM     21  H   UNL     1      49.686   4.913  15.495  0.00  0.00    +0.000 HD
BRANCH  20  22
ATOM     22  C   UNL     1      49.806   6.081  17.153  0.00  0.00    +0.000 C 
BRANCH  22  23
ATOM     23  C   UNL     1      49.727   7.289  16.258  0.00  0.00    +0.000 A 
ATOM     24  C   UNL     1      48.933   8.388  16.619  0.00  0.00    +0.000 A 
ATOM     25  C   UNL     1      48.955   9.555  15.859  0.00  0.00    +0.000 A 
ATOM     26  C   UNL     1      49.775   9.645  14.726  0.00  0.00    +0.000 A 
ATOM     27  C   UNL     1      50.520   8.527  14.329  0.00  0.00    +0.000 A 
ATOM     28  C   UNL     1      50.495   7.358  15.089  0.00  0.00    +0.000 A 
BRANCH  26  29
ATOM     29  C   UNL     1      49.900  10.957  13.983  0.00  0.00    +0.000 C 
BRANCH  29  30
ATOM     30  N   UNL     1      48.608  11.430  13.439  0.00  0.00    +0.000 NA
ATOM     31  C   UNL     1      48.580  12.894  13.327  0.00  0.00    +0.000 C 
BRANCH  30  32
ATOM     32  C   UNL     1      48.350  10.847  12.112  0.00  0.00    +0.000 C 
BRANCH  32  33
ATOM     33  C   UNL     1      46.895  10.530  11.840  0.00  0.00    +0.000 A 
ATOM     34  C   UNL     1      46.105  11.392  11.067  0.00  0.00    +0.000 A 
ATOM     35  C   UNL     1      44.788  11.053  10.753  0.00  0.00    +0.000 A 
ATOM     36  C   UNL     1      44.247   9.853  11.212  0.00  0.00    +0.000 A 
ATOM     37  C   UNL     1      45.015   9.002  12.005  0.00  0.00    +0.000 A 
ATOM     38  C   UNL     1      46.332   9.337  12.319  0.00  0.00    +0.000 A 
ENDBRANCH  32  33
ENDBRANCH  30  32
ENDBRANCH  29  30
ENDBRANCH  26  29
ENDBRANCH  22  23
ENDBRANCH  20  22
ENDBRANCH   2  20
TORSDOF 11
ENDMDL
MODEL 8
REMARK VINA RESULT:    -6.939      2.700      4.135
REMARK INTER + INTRA:         -13.344
REMARK INTER:                 -12.155
REMARK INTRA:                  -1.189
REMARK UNBOUND:                -1.944
REMARK  Name = 
REMARK  13 active torsions:
REMARK  status: ('A' for Active; 'I' for Inactive)
REMARK    1  A    between atoms: C_1  and  C_2
REMARK    2  A    between atoms: C_2  and  N_3
REMARK    3  A    between atoms: C_2  and  C_21
REMARK    4  A    between atoms: N_3  and  C_4
REMARK    5  A    between atoms: C_4  and  C_5
REMARK    6  A    between atoms: C_8  and  C_9
REMARK    7  A    between atoms: C_9  and  N_10
REMARK    8  A    between atoms: N_10  and  C_11
REMARK    9  A    between atoms: N_10  and  C_12
REMARK   10  A    between atoms: C_12  and  C_13
REMARK   11  A    between atoms: C_24  and  C_25
REMARK   12  A    between atoms: N_27  and  C_28
REMARK   13  A    between atoms: C_28  and  C_29
REMARK                            x       y       z     vdW  Elec       q    Type
REMARK                         _______ _______ _______ _____ _____    ______ ____
ROOT
ATOM      1  C   UNL     1      43.214   2.753  11.807  0.00  0.00    +0.000 C 
ATOM      2  C   UNL     1      43.724   3.955  11.003  0.00  0.00    +0.000 C 
ENDROOT
BRANCH   2   3
ATOM      3  C   UNL     1      44.615   3.492   9.861  0.00  0.00    +0.000 A 
ATOM      4  C   UNL     1      44.784   2.119   9.615  0.00  0.00    +0.000 A 
ATOM      5  C   UNL     1      45.576   1.678   8.552  0.00  0.00    +0.000 A 
ATOM      6  C   UNL     1      46.213   2.609   7.725  0.00  0.00    +0.000 A 
ATOM      7  C   UNL     1      46.013   3.977   7.935  0.00  0.00    +0.000 A 
ATOM      8  C   UNL     1      45.224   4.416   8.997  0.00  0.00    +0.000 A 
BRANCH   6   9
ATOM      9  C   UNL     1      47.138   2.215   6.632  0.00  0.00    +0.000 C 
ATOM     10  O   UNL     1      48.252   1.777   6.893  0.00  0.00    +0.000 OA
ATOM     11  N   UNL     1      46.640   2.303   5.355  0.00  0.00    +0.000 N 
ATOM     12  H   UNL     1      45.727   2.691   5.168  0.00  0.00    +0.000 HD
BRANCH  11  13
ATOM     13  C   UNL     1      47.399   1.834   4.217  0.00  0.00    +0.000 C 
BRANCH  13  14
ATOM     14  C   UNL     1      46.768   0.625   3.572  0.00  0.00    +0.000 A 
ATOM     15  C   UNL     1      45.746   0.782   2.638  0.00  0.00    +0.000 A 
ATOM     16  C   UNL     1      45.185  -0.350   2.057  0.00  0.00    +0.000 A 
ATOM     17  C   UNL     1      45.651  -1.605   2.430  0.00  0.00    +0.000 A 
ATOM     18  C   UNL     1      46.655  -1.676   3.382  0.00  0.00    +0.000 A 
ATOM     19  N   UNL     1      47.221  -0.596   3.963  0.00  0.00    +0.000 NA
ENDBRANCH  13  14
ENDBRANCH  11  13
ENDBRANCH   6   9
ENDBRANCH   2   3
BRANCH   2  20
ATOM     20  N   UNL     1      44.403   4.896  11.905  0.00  0.00    +0.000 NA
ATOM     21  H   UNL     1      45.350   4.573  12.095  0.00  0.00    +0.000 HD
BRANCH  20  22
ATOM     22  C   UNL     1      44.476   6.239  11.329  0.00  0.00    +0.000 C 
BRANCH  22  23
ATOM     23  C   UNL     1      45.657   7.014  11.849  0.00  0.00    +0.000 A 
ATOM     24  C   UNL     1      45.465   8.125  12.683  0.00  0.00    +0.000 A 
ATOM     25  C   UNL     1      46.554   8.768  13.266  0.00  0.00    +0.000 A 
ATOM     26  C   UNL     1      47.856   8.307  13.028  0.00  0.00    +0.000 A 
ATOM     27  C   UNL     1      48.054   7.238  12.145  0.00  0.00    +0.000 A 
ATOM     28  C   UNL     1      46.962   6.598  11.559  0.00  0.00    +0.000 A 
BRANCH  26  29
ATOM     29  C   UNL     1      49.025   8.921  13.768  0.00  0.00    +0.000 C 
BRANCH  29  30
ATOM     30  N   UNL     1      49.911   9.709  12.884  0.00  0.00    +0.000 NA
ATOM     31  C   UNL     1      49.845  11.142  13.201  0.00  0.00    +0.000 C 
BRANCH  30  32
ATOM     32  C   UNL     1      51.308   9.260  13.002  0.00  0.00    +0.000 C 
BRANCH  32  33
ATOM     33  C   UNL     1      51.926   8.790  11.703  0.00  0.00    +0.000 A 
ATOM     34  C   UNL     1      53.105   9.374  11.216  0.00  0.00    +0.000 A 
ATOM     35  C   UNL     1      53.713   8.882  10.061  0.00  0.00    +0.000 A 
ATOM     36  C   UNL     1      53.148   7.806   9.379  0.00  0.00    +0.000 A 
ATOM     37  C   UNL     1      51.962   7.236   9.838  0.00  0.00    +0.000 A 
ATOM     38  C   UNL     1      51.353   7.725  10.993  0.00  0.00    +0.000 A 
ENDBRANCH  32  33
ENDBRANCH  30  32
ENDBRANCH  29  30
ENDBRANCH  26  29
ENDBRANCH  22  23
ENDBRANCH  20  22
ENDBRANCH   2  20
TORSDOF 11
ENDMDL
MODEL 9
REMARK VINA RESULT:    -6.219      6.049      8.582
REMARK INTER + INTRA:         -12.162
REMARK INTER:                 -10.057
REMARK INTRA:                  -2.105
REMARK UNBOUND:                -1.944
REMARK  Name = 
REMARK  13 active torsions:
REMARK  status: ('A' for Active; 'I' for Inactive)
REMARK    1  A    between atoms: C_1  and  C_2
REMARK    2  A    between atoms: C_2  and  N_3
REMARK    3  A    between atoms: C_2  and  C_21
REMARK    4  A    between atoms: N_3  and  C_4
REMARK    5  A    between atoms: C_4  and  C_5
REMARK    6  A    between atoms: C_8  and  C_9
REMARK    7  A    between atoms: C_9  and  N_10
REMARK    8  A    between atoms: N_10  and  C_11
REMARK    9  A    between atoms: N_10  and  C_12
REMARK   10  A    between atoms: C_12  and  C_13
REMARK   11  A    between atoms: C_24  and  C_25
REMARK   12  A    between atoms: N_27  and  C_28
REMARK   13  A    between atoms: C_28  and  C_29
REMARK                            x       y       z     vdW  Elec       q    Type
REMARK                         _______ _______ _______ _____ _____    ______ ____
ROOT
ATOM      1  C   UNL     1      46.872   4.551  13.359  0.00  0.00    +0.000 C 
ATOM      2  C   UNL     1      47.321   5.974  13.711  0.00  0.00    +0.000 C 
ENDROOT
BRANCH   2   3
ATOM      3  C   UNL     1      46.436   6.998  13.018  0.00  0.00    +0.000 A 
ATOM      4  C   UNL     1      45.585   6.598  11.973  0.00  0.00    +0.000 A 
ATOM      5  C   UNL     1      44.745   7.521  11.345  0.00  0.00    +0.000 A 
ATOM      6  C   UNL     1      44.753   8.859  11.753  0.00  0.00    +0.000 A 
ATOM      7  C   UNL     1      45.562   9.255  12.822  0.00  0.00    +0.000 A 
ATOM      8  C   UNL     1      46.401   8.334  13.447  0.00  0.00    +0.000 A 
BRANCH   6   9
ATOM      9  C   UNL     1      43.952   9.911  11.077  0.00  0.00    +0.000 C 
ATOM     10  O   UNL     1      43.949   9.994   9.854  0.00  0.00    +0.000 OA
ATOM     11  N   UNL     1      43.184  10.706  11.890  0.00  0.00    +0.000 N 
ATOM     12  H   UNL     1      43.225  10.632  12.896  0.00  0.00    +0.000 HD
BRANCH  11  13
ATOM     13  C   UNL     1      42.270  11.685  11.343  0.00  0.00    +0.000 C 
BRANCH  13  14
ATOM     14  C   UNL     1      40.831  11.351  11.646  0.00  0.00    +0.000 A 
ATOM     15  C   UNL     1      40.206  11.896  12.766  0.00  0.00    +0.000 A 
ATOM     16  C   UNL     1      38.877  11.574  13.019  0.00  0.00    +0.000 A 
ATOM     17  C   UNL     1      38.213  10.710  12.158  0.00  0.00    +0.000 A 
ATOM     18  C   UNL     1      38.912  10.194  11.079  0.00  0.00    +0.000 A 
ATOM     19  N   UNL     1      40.202  10.489  10.804  0.00  0.00    +0.000 NA
ENDBRANCH  13  14
ENDBRANCH  11  13
ENDBRANCH   6   9
ENDBRANCH   2   3
BRANCH   2  20
ATOM     20  N   UNL     1      48.743   6.137  13.378  0.00  0.00    +0.000 NA
ATOM     21  H   UNL     1      48.882   6.012  12.377  0.00  0.00    +0.000 HD
BRANCH  20  22
ATOM     22  C   UNL     1      49.238   7.461  13.757  0.00  0.00    +0.000 C 
BRANCH  22  23
ATOM     23  C   UNL     1      49.601   7.533  15.216  0.00  0.00    +0.000 A 
ATOM     24  C   UNL     1      48.760   8.193  16.123  0.00  0.00    +0.000 A 
ATOM     25  C   UNL     1      49.027   8.156  17.489  0.00  0.00    +0.000 A 
ATOM     26  C   UNL     1      50.139   7.453  17.973  0.00  0.00    +0.000 A 
ATOM     27  C   UNL     1      51.016   6.847  17.063  0.00  0.00    +0.000 A 
ATOM     28  C   UNL     1      50.749   6.889  15.695  0.00  0.00    +0.000 A 
BRANCH  26  29
ATOM     29  C   UNL     1      50.350   7.300  19.464  0.00  0.00    +0.000 C 
BRANCH  29  30
ATOM     30  N   UNL     1      50.361   5.886  19.897  0.00  0.00    +0.000 NA
ATOM     31  C   UNL     1      50.903   5.747  21.255  0.00  0.00    +0.000 C 
BRANCH  30  32
ATOM     32  C   UNL     1      49.004   5.315  19.866  0.00  0.00    +0.000 C 
BRANCH  32  33
ATOM     33  C   UNL     1      48.700   4.488  18.636  0.00  0.00    +0.000 A 
ATOM     34  C   UNL     1      49.620   3.542  18.161  0.00  0.00    +0.000 A 
ATOM     35  C   UNL     1      49.299   2.727  17.075  0.00  0.00    +0.000 A 
ATOM     36  C   UNL     1      48.059   2.852  16.450  0.00  0.00    +0.000 A 
ATOM     37  C   UNL     1      47.148   3.808  16.897  0.00  0.00    +0.000 A 
ATOM     38  C   UNL     1      47.466   4.623  17.983  0.00  0.00    +0.000 A 
ENDBRANCH  32  33
ENDBRANCH  30  32
ENDBRANCH  29  30
ENDBRANCH  26  29
ENDBRANCH  22  23
ENDBRANCH  20  22
ENDBRANCH   2  20
TORSDOF 11
ENDMDL
