MODEL 1
REMARK VINA RESULT:    -7.293      0.000      0.000
REMARK INTER + INTRA:         -10.210
REMARK INTER:                  -9.425
REMARK INTRA:                  -0.786
REMARK UNBOUND:                -0.786
REMARK  Name = 
REMARK  5 active torsions:
REMARK  status: ('A' for Active; 'I' for Inactive)
REMARK    1  A    between atoms: C_2  and  C_4
REMARK    2  A    between atoms: C_8  and  C_9
REMARK    3  A    between atoms: C_9  and  C_10
REMARK    4  A    between atoms: C_10  and  C_11
REMARK    5  A    between atoms: C_15  and  N_16
REMARK                            x       y       z     vdW  Elec       q    Type
REMARK                         _______ _______ _______ _____ _____    ______ ____
ROOT
ATOM      1  C   UNL     1      43.923   4.318  10.395  0.00  0.00    +0.000 C 
ENDROOT
BRANCH   1   2
ATOM      2  C   UNL     1      44.937   4.627  11.479  0.00  0.00    +0.000 A 
ATOM      3  C   UNL     1      45.320   3.678  12.435  0.00  0.00    +0.000 A 
ATOM      4  C   UNL     1      46.304   3.975  13.368  0.00  0.00    +0.000 A 
ATOM      5  C   UNL     1      46.940   5.214  13.339  0.00  0.00    +0.000 A 
ATOM      6  C   UNL     1      46.612   6.194  12.388  0.00  0.00    +0.000 A 
ATOM      7  C   UNL     1      45.589   5.879  11.479  0.00  0.00    +0.000 A 
BRANCH   6   8
ATOM      8  N   UNL     1      47.285   7.398  12.372  0.00  0.00    +0.000 N 
ATOM      9  C   UNL     1      48.495   7.651  11.577  0.00  0.00    +0.000 C 
ATOM     10  C   UNL     1      49.677   7.982  12.498  0.00  0.00    +0.000 C 
ATOM     11  O   UNL     1      49.370   9.078  13.377  0.00  0.00    +0.000 OA
ATOM     12  C   UNL     1      48.241   8.748  14.203  0.00  0.00    +0.000 C 
ATOM     13  C   UNL     1      46.987   8.443  13.366  0.00  0.00    +0.000 C 
ENDBRANCH   6   8
ENDBRANCH   1   2
BRANCH   1  14
ATOM     14  C   UNL     1      44.452   4.478   8.963  0.00  0.00    +0.000 C 
BRANCH  14  19
ATOM     15  C   UNL     1      46.851   2.277   7.008  0.00  0.00    +0.000 A 
ATOM     16  C   UNL     1      46.590   1.066   7.633  0.00  0.00    +0.000 A 
ATOM     17  N   UNL     1      45.695   0.915   8.643  0.00  0.00    +0.000 NA
ATOM     18  C   UNL     1      45.028   2.022   9.035  0.00  0.00    +0.000 A 
ATOM     19  C   UNL     1      45.205   3.279   8.465  0.00  0.00    +0.000 A 
ATOM     20  C   UNL     1      46.130   3.397   7.420  0.00  0.00    +0.000 A 
BRANCH  15  22
ATOM     21  N   UNL     1      49.101   2.818   6.269  0.00  0.00    +0.000 N 
ATOM     22  C   UNL     1      47.867   2.330   5.940  0.00  0.00    +0.000 C 
ATOM     23  O   UNL     1      47.630   1.917   4.811  0.00  0.00    +0.000 OA
ATOM     24  H   UNL     1      49.815   2.743   5.556  0.00  0.00    +0.000 HD
ATOM     25  H   UNL     1      49.409   2.914   7.227  0.00  0.00    +0.000 HD
ENDBRANCH  15  22
ENDBRANCH  14  19
ENDBRANCH   1  14
TORSDOF 5
ENDMDL
MODEL 2
REMARK VINA RESULT:    -6.981      3.129      7.892
REMARK INTER + INTRA:          -9.808
REMARK INTER:                  -9.001
REMARK INTRA:                  -0.807
REMARK UNBOUND:                -0.786
REMARK  Name = 
REMARK  5 active torsions:
REMARK  status: ('A' for Active; 'I' for Inactive)
REMARK    1  A    between atoms: C_2  and  C_4
REMARK    2  A    between atoms: C_8  and  C_9
REMARK    3  A    between atoms: C_9  and  C_10
REMARK    4  A    between atoms: C_10  and  C_11
REMARK    5  A    between atoms: C_15  and  N_16
REMARK                            x       y       z     vdW  Elec       q    Type
REMARK                         _______ _______ _______ _____ _____    ______ ____
ROOT
ATOM      1  C   UNL     1      46.107   6.532  12.892  0.00  0.00    +0.000 C 
ENDROOT
BRANCH   1   2
ATOM      2  C   UNL     1      45.217   5.381  12.463  0.00  0.00    +0.000 A 
ATOM      3  C   UNL     1      44.182   4.896  13.272  0.00  0.00    +0.000 A 
ATOM      4  C   UNL     1      43.343   3.889  12.815  0.00  0.00    +0.000 A 
ATOM      5  C   UNL     1      43.509   3.374  11.532  0.00  0.00    +0.000 A 
ATOM      6  C   UNL     1      44.514   3.839  10.669  0.00  0.00    +0.000 A 
ATOM      7  C   UNL     1      45.370   4.833  11.171  0.00  0.00    +0.000 A 
BRANCH   6   8
ATOM      8  N   UNL     1      44.627   3.326   9.394  0.00  0.00    +0.000 N 
ATOM      9  C   UNL     1      44.680   1.889   9.089  0.00  0.00    +0.000 C 
ATOM     10  C   UNL     1      46.018   1.534   8.427  0.00  0.00    +0.000 C 
ATOM     11  O   UNL     1      46.259   2.342   7.262  0.00  0.00    +0.000 OA
ATOM     12  C   UNL     1      46.297   3.732   7.622  0.00  0.00    +0.000 C 
ATOM     13  C   UNL     1      44.975   4.196   8.257  0.00  0.00    +0.000 C 
ENDBRANCH   6   8
ENDBRANCH   1   2
BRANCH   1  14
ATOM     14  C   UNL     1      47.589   6.168  13.047  0.00  0.00    +0.000 C 
BRANCH  14  19
ATOM     15  C   UNL     1      47.931   4.912  16.615  0.00  0.00    +0.000 A 
ATOM     16  C   UNL     1      48.902   5.796  17.062  0.00  0.00    +0.000 A 
ATOM     17  N   UNL     1      49.454   6.766  16.288  0.00  0.00    +0.000 NA
ATOM     18  C   UNL     1      49.006   6.859  15.017  0.00  0.00    +0.000 A 
ATOM     19  C   UNL     1      48.026   6.033  14.476  0.00  0.00    +0.000 A 
ATOM     20  C   UNL     1      47.472   5.048  15.305  0.00  0.00    +0.000 A 
BRANCH  15  22
ATOM     21  N   UNL     1      47.963   3.830  18.790  0.00  0.00    +0.000 N 
ATOM     22  C   UNL     1      47.422   3.877  17.535  0.00  0.00    +0.000 C 
ATOM     23  O   UNL     1      46.521   3.116  17.204  0.00  0.00    +0.000 OA
ATOM     24  H   UNL     1      47.525   3.190  19.440  0.00  0.00    +0.000 HD
ATOM     25  H   UNL     1      48.501   4.592  19.177  0.00  0.00    +0.000 HD
ENDBRANCH  15  22
ENDBRANCH  14  19
ENDBRANCH   1  14
TORSDOF 5
ENDMDL
MODEL 3
REMARK VINA RESULT:    -6.658      3.329      5.039
REMARK INTER + INTRA:          -9.389
REMARK INTER:                  -8.605
REMARK INTRA:                  -0.784
REMARK UNBOUND:                -0.786
REMARK  Name = 
REMARK  5 active torsions:
REMARK  status: ('A' for Active; 'I' for Inactive)
REMARK    1  A    between atoms: C_2  and  C_4
REMARK    2  A    between atoms: C_8  and  C_9
REMARK    3  A    between atoms: C_9  and  C_10
REMARK    4  A    between atoms: C_10  and  C_11
REMARK    5  A    between atoms: C_15  and  N_16
REMARK                            x       y       z     vdW  Elec       q    Type
REMARK                         _______ _______ _______ _____ _____    ______ ____
ROOT
ATOM      1  C   UNL     1      47.025   6.735  11.799  0.00  0.00    +0.000 C 
ENDROOT
BRANCH   1   2
ATOM      2  C   UNL     1      47.982   6.845  12.970  0.00  0.00    +0.000 A 
ATOM      3  C   UNL     1      49.017   7.788  13.002  0.00  0.00    +0.000 A 
ATOM      4  C   UNL     1      49.828   7.906  14.121  0.00  0.00    +0.000 A 
ATOM      5  C   UNL     1      49.597   7.105  15.237  0.00  0.00    +0.000 A 
ATOM      6  C   UNL     1      48.559   6.160  15.269  0.00  0.00    +0.000 A 
ATOM      7  C   UNL     1      47.777   6.038  14.109  0.00  0.00    +0.000 A 
BRANCH   6   8
ATOM      8  N   UNL     1      48.341   5.405  16.403  0.00  0.00    +0.000 N 
ATOM      9  C   UNL     1      49.202   5.446  17.593  0.00  0.00    +0.000 C 
ATOM     10  C   UNL     1      49.836   4.070  17.839  0.00  0.00    +0.000 C 
ATOM     11  O   UNL     1      48.838   3.039  17.930  0.00  0.00    +0.000 OA
ATOM     12  C   UNL     1      48.085   2.970  16.708  0.00  0.00    +0.000 C 
ATOM     13  C   UNL     1      47.371   4.297  16.398  0.00  0.00    +0.000 C 
ENDBRANCH   6   8
ENDBRANCH   1   2
BRANCH   1  14
ATOM     14  C   UNL     1      45.541   6.704  12.189  0.00  0.00    +0.000 C 
BRANCH  14  19
ATOM     15  C   UNL     1      44.382   3.511  10.492  0.00  0.00    +0.000 A 
ATOM     16  C   UNL     1      43.712   2.931  11.559  0.00  0.00    +0.000 A 
ATOM     17  N   UNL     1      43.613   3.500  12.787  0.00  0.00    +0.000 NA
ATOM     18  C   UNL     1      44.202   4.705  12.949  0.00  0.00    +0.000 A 
ATOM     19  C   UNL     1      44.884   5.378  11.940  0.00  0.00    +0.000 A 
ATOM     20  C   UNL     1      44.960   4.766  10.683  0.00  0.00    +0.000 A 
BRANCH  15  22
ATOM     21  N   UNL     1      44.307   3.523   8.063  0.00  0.00    +0.000 N 
ATOM     22  C   UNL     1      44.451   2.788   9.207  0.00  0.00    +0.000 C 
ATOM     23  O   UNL     1      44.670   1.584   9.163  0.00  0.00    +0.000 OA
ATOM     24  H   UNL     1      44.469   3.031   7.194  0.00  0.00    +0.000 HD
ATOM     25  H   UNL     1      44.392   4.530   8.051  0.00  0.00    +0.000 HD
ENDBRANCH  15  22
ENDBRANCH  14  19
ENDBRANCH   1  14
TORSDOF 5
ENDMDL
MODEL 4
REMARK VINA RESULT:    -6.595      3.575      7.939
REMARK INTER + INTRA:          -9.309
REMARK INTER:                  -8.348
REMARK INTRA:                  -0.960
REMARK UNBOUND:                -0.786
REMARK  Name = 
REMARK  5 active torsions:
REMARK  status: ('A' for Active; 'I' for Inactive)
REMARK    1  A    between atoms: C_2  and  C_4
REMARK    2  A    between atoms: C_8  and  C_9
REMARK    3  A    between atoms: C_9  and  C_10
REMARK    4  A    between atoms: C_10  and  C_11
REMARK    5  A    between atoms: C_15  and  N_16
REMARK                            x       y       z     vdW  Elec       q    Type
REMARK                         _______ _______ _______ _____ _____    ______ ____
ROOT
ATOM      1  C   UNL     1      48.675   6.869  13.108  0.00  0.00    +0.000 C 
ENDROOT
BRANCH   1   2
ATOM      2  C   UNL     1      47.264   7.195  12.657  0.00  0.00    +0.000 A 
ATOM      3  C   UNL     1      46.727   8.484  12.758  0.00  0.00    +0.000 A 
ATOM      4  C   UNL     1      45.458   8.760  12.269  0.00  0.00    +0.000 A 
ATOM      5  C   UNL     1      44.720   7.757  11.644  0.00  0.00    +0.000 A 
ATOM      6  C   UNL     1      45.218   6.453  11.494  0.00  0.00    +0.000 A 
ATOM      7  C   UNL     1      46.490   6.195  12.030  0.00  0.00    +0.000 A 
BRANCH   6   8
ATOM      8  N   UNL     1      44.470   5.495  10.842  0.00  0.00    +0.000 N 
ATOM      9  C   UNL     1      43.135   5.061  11.276  0.00  0.00    +0.000 C 
ATOM     10  C   UNL     1      43.152   3.570  11.640  0.00  0.00    +0.000 C 
ATOM     11  O   UNL     1      43.654   2.769  10.556  0.00  0.00    +0.000 OA
ATOM     12  C   UNL     1      44.997   3.162  10.231  0.00  0.00    +0.000 C 
ATOM     13  C   UNL     1      45.076   4.639   9.807  0.00  0.00    +0.000 C 
ENDBRANCH   6   8
ENDBRANCH   1   2
BRANCH   1  14
ATOM     14  C   UNL     1      49.102   7.558  14.411  0.00  0.00    +0.000 C 
BRANCH  14  19
ATOM     15  C   UNL     1      48.184   4.687  16.721  0.00  0.00    +0.000 A 
ATOM     16  C   UNL     1      48.226   5.363  17.932  0.00  0.00    +0.000 A 
ATOM     17  N   UNL     1      48.533   6.680  18.051  0.00  0.00    +0.000 NA
ATOM     18  C   UNL     1      48.799   7.349  16.907  0.00  0.00    +0.000 A 
ATOM     19  C   UNL     1      48.770   6.768  15.643  0.00  0.00    +0.000 A 
ATOM     20  C   UNL     1      48.441   5.410  15.556  0.00  0.00    +0.000 A 
BRANCH  15  22
ATOM     21  N   UNL     1      46.897   2.811  17.573  0.00  0.00    +0.000 N 
ATOM     22  C   UNL     1      47.867   3.246  16.713  0.00  0.00    +0.000 C 
ATOM     23  O   UNL     1      48.420   2.475  15.938  0.00  0.00    +0.000 OA
ATOM     24  H   UNL     1      46.616   1.843  17.473  0.00  0.00    +0.000 HD
ATOM     25  H   UNL     1      46.248   3.441  18.022  0.00  0.00    +0.000 HD
ENDBRANCH  15  22
ENDBRANCH  14  19
ENDBRANCH   1  14
TORSDOF 5
ENDMDL
MODEL 5
REMARK VINA RESULT:    -6.554      2.054      7.329
REMARK INTER + INTRA:          -9.256
REMARK INTER:                  -8.308
REMARK INTRA:                  -0.947
REMARK UNBOUND:                -0.786
REMARK  Name = 
REMARK  5 active torsions:
REMARK  status: ('A' for Active; 'I' for Inactive)
REMARK    1  A    between atoms: C_2  and  C_4
REMARK    2  A    between atoms: C_8  and  C_9
REMARK    3  A    between atoms: C_9  and  C_10
REMARK    4  A    between atoms: C_10  and  C_11
REMARK    5  A    between atoms: C_15  and  N_16
REMARK                            x       y       z     vdW  Elec       q    Type
REMARK                         _______ _______ _______ _____ _____    ______ ____
ROOT
ATOM      1  C   UNL     1      43.986   5.545   9.935  0.00  0.00    +0.000 C 
ENDROOT
BRANCH   1   2
ATOM      2  C   UNL     1      44.480   4.149   9.605  0.00  0.00    +0.000 A 
ATOM      3  C   UNL     1      43.912   3.002  10.175  0.00  0.00    +0.000 A 
ATOM      4  C   UNL     1      44.341   1.739   9.794  0.00  0.00    +0.000 A 
ATOM      5  C   UNL     1      45.324   1.604   8.816  0.00  0.00    +0.000 A 
ATOM      6  C   UNL     1      45.911   2.717   8.194  0.00  0.00    +0.000 A 
ATOM      7  C   UNL     1      45.481   3.983   8.625  0.00  0.00    +0.000 A 
BRANCH   6   8
ATOM      8  N   UNL     1      46.859   2.543   7.208  0.00  0.00    +0.000 N 
ATOM      9  C   UNL     1      46.992   3.414   6.033  0.00  0.00    +0.000 C 
ATOM     10  C   UNL     1      46.749   2.613   4.746  0.00  0.00    +0.000 C 
ATOM     11  O   UNL     1      47.615   1.467   4.669  0.00  0.00    +0.000 OA
ATOM     12  C   UNL     1      47.383   0.595   5.786  0.00  0.00    +0.000 C 
ATOM     13  C   UNL     1      47.645   1.298   7.128  0.00  0.00    +0.000 C 
ENDBRANCH   6   8
ENDBRANCH   1   2
BRANCH   1  14
ATOM     14  C   UNL     1      43.786   5.812  11.433  0.00  0.00    +0.000 C 
BRANCH  14  19
ATOM     15  C   UNL     1      46.703   5.259  13.801  0.00  0.00    +0.000 A 
ATOM     16  C   UNL     1      47.453   6.383  13.484  0.00  0.00    +0.000 A 
ATOM     17  N   UNL     1      47.081   7.302  12.558  0.00  0.00    +0.000 NA
ATOM     18  C   UNL     1      45.904   7.091  11.929  0.00  0.00    +0.000 A 
ATOM     19  C   UNL     1      45.071   6.006  12.184  0.00  0.00    +0.000 A 
ATOM     20  C   UNL     1      45.482   5.081  13.152  0.00  0.00    +0.000 A 
BRANCH  15  22
ATOM     21  N   UNL     1      47.471   4.795  16.059  0.00  0.00    +0.000 N 
ATOM     22  C   UNL     1      47.219   4.310  14.805  0.00  0.00    +0.000 C 
ATOM     23  O   UNL     1      47.377   3.124  14.541  0.00  0.00    +0.000 OA
ATOM     24  H   UNL     1      47.716   4.109  16.761  0.00  0.00    +0.000 HD
ATOM     25  H   UNL     1      47.108   5.681  16.380  0.00  0.00    +0.000 HD
ENDBRANCH  15  22
ENDBRANCH  14  19
ENDBRANCH   1  14
TORSDOF 5
ENDMDL
MODEL 6
REMARK VINA RESULT:    -6.054      4.528      6.401
REMARK INTER + INTRA:          -8.609
REMARK INTER:                  -7.953
REMARK INTRA:                  -0.657
REMARK UNBOUND:                -0.786
REMARK  Name = 
REMARK  5 active torsions:
REMARK  status: ('A' for Active; 'I' for Inactive)
REMARK    1  A    between atoms: C_2  and  C_4
REMARK    2  A    between atoms: C_8  and  C_9
REMARK    3  A    between atoms: C_9  and  C_10
REMARK    4  A    between atoms: C_10  and  C_11
REMARK    5  A    between atoms: C_15  and  N_16
REMARK                            x       y       z     vdW  Elec       q    Type
REMARK                         _______ _______ _______ _____ _____    ______ ____
ROOT
ATOM      1  C   UNL     1      45.878   8.253  13.000  0.00  0.00    +0.000 C 
ENDROOT
BRANCH   1   2
ATOM      2  C   UNL     1      45.868   9.601  12.304  0.00  0.00    +0.000 A 
ATOM      3  C   UNL     1      47.047  10.242  11.903  0.00  0.00    +0.000 A 
ATOM      4  C   UNL     1      46.995  11.440  11.205  0.00  0.00    +0.000 A 
ATOM      5  C   UNL     1      45.763  11.999  10.871  0.00  0.00    +0.000 A 
ATOM      6  C   UNL     1      44.550  11.387  11.227  0.00  0.00    +0.000 A 
ATOM      7  C   UNL     1      44.634  10.194  11.963  0.00  0.00    +0.000 A 
BRANCH   6   8
ATOM      8  N   UNL     1      43.350  11.955  10.852  0.00  0.00    +0.000 N 
ATOM      9  C   UNL     1      42.070  11.684  11.520  0.00  0.00    +0.000 C 
ATOM     10  C   UNL     1      41.085  11.032  10.540  0.00  0.00    +0.000 C 
ATOM     11  O   UNL     1      40.918  11.829   9.354  0.00  0.00    +0.000 OA
ATOM     12  C   UNL     1      42.177  11.986   8.681  0.00  0.00    +0.000 C 
ATOM     13  C   UNL     1      43.223  12.676   9.573  0.00  0.00    +0.000 C 
ENDBRANCH   6   8
ENDBRANCH   1   2
BRANCH   1  14
ATOM     14  C   UNL     1      46.674   7.164  12.269  0.00  0.00    +0.000 C 
BRANCH  14  19
ATOM     15  C   UNL     1      44.826   4.094  11.011  0.00  0.00    +0.000 A 
ATOM     16  C   UNL     1      44.758   3.382  12.200  0.00  0.00    +0.000 A 
ATOM     17  N   UNL     1      45.270   3.826  13.376  0.00  0.00    +0.000 NA
ATOM     18  C   UNL     1      45.867   5.038  13.362  0.00  0.00    +0.000 A 
ATOM     19  C   UNL     1      45.975   5.837  12.228  0.00  0.00    +0.000 A 
ATOM     20  C   UNL     1      45.428   5.352  11.033  0.00  0.00    +0.000 A 
BRANCH  15  22
ATOM     21  N   UNL     1      44.018   4.343   8.734  0.00  0.00    +0.000 N 
ATOM     22  C   UNL     1      44.260   3.501   9.784  0.00  0.00    +0.000 C 
ATOM     23  O   UNL     1      44.053   2.298   9.693  0.00  0.00    +0.000 OA
ATOM     24  H   UNL     1      43.737   3.902   7.867  0.00  0.00    +0.000 HD
ATOM     25  H   UNL     1      44.416   5.269   8.678  0.00  0.00    +0.000 HD
ENDBRANCH  15  22
ENDBRANCH  14  19
ENDBRANCH   1  14
TORSDOF 5
ENDMDL
MODEL 7
REMARK VINA RESULT:    -6.050      1.488      7.051
REMARK INTER + INTRA:          -8.604
REMARK INTER:                  -7.656
REMARK INTRA:                  -0.948
REMARK UNBOUND:                -0.786
REMARK  Name = 
REMARK  5 active torsions:
REMARK  status: ('A' for Active; 'I' for Inactive)
REMARK    1  A    between atoms: C_2  and  C_4
REMARK    2  A    between atoms: C_8  and  C_9
REMARK    3  A    between atoms: C_9  and  C_10
REMARK    4  A    between atoms: C_10  and  C_11
REMARK    5  A    between atoms: C_15  and  N_16
REMARK                            x       y       z     vdW  Elec       q    Type
REMARK                         _______ _______ _______ _____ _____    ______ ____
ROOT
ATOM      1  C   UNL     1      43.944   5.490   9.978  0.00  0.00    +0.000 C 
ENDROOT
BRANCH   1   2
ATOM      2  C   UNL     1      44.450   4.106   9.620  0.00  0.00    +0.000 A 
ATOM      3  C   UNL     1      43.890   2.943  10.163  0.00  0.00    +0.000 A 
ATOM      4  C   UNL     1      44.332   1.692   9.757  0.00  0.00    +0.000 A 
ATOM      5  C   UNL     1      45.319   1.585   8.780  0.00  0.00    +0.000 A 
ATOM      6  C   UNL     1      45.898   2.717   8.183  0.00  0.00    +0.000 A 
ATOM      7  C   UNL     1      45.456   3.970   8.639  0.00  0.00    +0.000 A 
BRANCH   6   8
ATOM      8  N   UNL     1      46.851   2.571   7.197  0.00  0.00    +0.000 N 
ATOM      9  C   UNL     1      46.951   3.442   6.018  0.00  0.00    +0.000 C 
ATOM     10  C   UNL     1      46.735   2.629   4.735  0.00  0.00    +0.000 C 
ATOM     11  O   UNL     1      47.640   1.513   4.660  0.00  0.00    +0.000 OA
ATOM     12  C   UNL     1      47.439   0.637   5.781  0.00  0.00    +0.000 C 
ATOM     13  C   UNL     1      47.679   1.355   7.120  0.00  0.00    +0.000 C 
ENDBRANCH   6   8
ENDBRANCH   1   2
BRANCH   1  14
ATOM     14  C   UNL     1      43.743   5.726  11.480  0.00  0.00    +0.000 C 
BRANCH  14  19
ATOM     15  C   UNL     1      47.227   6.481  12.789  0.00  0.00    +0.000 A 
ATOM     16  C   UNL     1      47.293   5.522  13.790  0.00  0.00    +0.000 A 
ATOM     17  N   UNL     1      46.288   4.654  14.071  0.00  0.00    +0.000 NA
ATOM     18  C   UNL     1      45.175   4.743  13.310  0.00  0.00    +0.000 A 
ATOM     19  C   UNL     1      45.015   5.657  12.273  0.00  0.00    +0.000 A 
ATOM     20  C   UNL     1      46.074   6.533  12.005  0.00  0.00    +0.000 A 
BRANCH  15  22
ATOM     21  N   UNL     1      49.624   6.861  12.692  0.00  0.00    +0.000 N 
ATOM     22  C   UNL     1      48.369   7.394  12.590  0.00  0.00    +0.000 C 
ATOM     23  O   UNL     1      48.202   8.573  12.304  0.00  0.00    +0.000 OA
ATOM     24  H   UNL     1      50.390   7.475  12.443  0.00  0.00    +0.000 HD
ATOM     25  H   UNL     1      49.796   5.866  12.660  0.00  0.00    +0.000 HD
ENDBRANCH  15  22
ENDBRANCH  14  19
ENDBRANCH   1  14
TORSDOF 5
ENDMDL
MODEL 8
REMARK VINA RESULT:    -5.931      2.796      4.872
REMARK INTER + INTRA:          -8.450
REMARK INTER:                  -7.677
REMARK INTRA:                  -0.774
REMARK UNBOUND:                -0.786
REMARK  Name = 
REMARK  5 active torsions:
REMARK  status: ('A' for Active; 'I' for Inactive)
REMARK    1  A    between atoms: C_2  and  C_4
REMARK    2  A    between atoms: C_8  and  C_9
REMARK    3  A    between atoms: C_9  and  C_10
REMARK    4  A    between atoms: C_10  and  C_11
REMARK    5  A    between atoms: C_15  and  N_16
REMARK                            x       y       z     vdW  Elec       q    Type
REMARK                         _______ _______ _______ _____ _____    ______ ____
ROOT
ATOM      1  C   UNL     1      47.514   5.428  13.299  0.00  0.00    +0.000 C 
ENDROOT
BRANCH   1   2
ATOM      2  C   UNL     1      47.912   6.815  12.829  0.00  0.00    +0.000 A 
ATOM      3  C   UNL     1      49.209   7.111  12.391  0.00  0.00    +0.000 A 
ATOM      4  C   UNL     1      49.517   8.372  11.901  0.00  0.00    +0.000 A 
ATOM      5  C   UNL     1      48.525   9.346  11.814  0.00  0.00    +0.000 A 
ATOM      6  C   UNL     1      47.203   9.097  12.216  0.00  0.00    +0.000 A 
ATOM      7  C   UNL     1      46.929   7.823  12.741  0.00  0.00    +0.000 A 
BRANCH   6   8
ATOM      8  N   UNL     1      46.241  10.077  12.086  0.00  0.00    +0.000 N 
ATOM      9  C   UNL     1      44.799   9.808  12.019  0.00  0.00    +0.000 C 
ATOM     10  C   UNL     1      44.231  10.276  10.672  0.00  0.00    +0.000 C 
ATOM     11  O   UNL     1      44.534  11.660  10.426  0.00  0.00    +0.000 OA
ATOM     12  C   UNL     1      45.957  11.859  10.403  0.00  0.00    +0.000 C 
ATOM     13  C   UNL     1      46.614  11.459  11.735  0.00  0.00    +0.000 C 
ENDBRANCH   6   8
ENDBRANCH   1   2
BRANCH   1  14
ATOM     14  C   UNL     1      46.077   5.323  13.826  0.00  0.00    +0.000 C 
BRANCH  14  19
ATOM     15  C   UNL     1      44.455   4.302  10.548  0.00  0.00    +0.000 A 
ATOM     16  C   UNL     1      43.145   4.654  10.837  0.00  0.00    +0.000 A 
ATOM     17  N   UNL     1      42.752   5.195  12.018  0.00  0.00    +0.000 NA
ATOM     18  C   UNL     1      43.715   5.400  12.944  0.00  0.00    +0.000 A 
ATOM     19  C   UNL     1      45.058   5.096  12.749  0.00  0.00    +0.000 A 
ATOM     20  C   UNL     1      45.430   4.547  11.515  0.00  0.00    +0.000 A 
BRANCH  15  22
ATOM     21  N   UNL     1      44.776   2.328   9.169  0.00  0.00    +0.000 N 
ATOM     22  C   UNL     1      44.765   3.693   9.240  0.00  0.00    +0.000 C 
ATOM     23  O   UNL     1      44.963   4.382   8.246  0.00  0.00    +0.000 OA
ATOM     24  H   UNL     1      44.879   1.931   8.243  0.00  0.00    +0.000 HD
ATOM     25  H   UNL     1      44.364   1.744   9.882  0.00  0.00    +0.000 HD
ENDBRANCH  15  22
ENDBRANCH  14  19
ENDBRANCH   1  14
TORSDOF 5
ENDMDL
MODEL 9
REMARK VINA RESULT:    -5.788      2.804      4.446
REMARK INTER + INTRA:          -8.266
REMARK INTER:                  -7.496
REMARK INTRA:                  -0.770
REMARK UNBOUND:                -0.786
REMARK  Name = 
REMARK  5 active torsions:
REMARK  status: ('A' for Active; 'I' for Inactive)
REMARK    1  A    between atoms: C_2  and  C_4
REMARK    2  A    between atoms: C_8  and  C_9
REMARK    3  A    between atoms: C_9  and  C_10
REMARK    4  A    between atoms: C_10  and  C_11
REMARK    5  A    between atoms: C_15  and  N_16
REMARK                            x       y       z     vdW  Elec       q    Type
REMARK                         _______ _______ _______ _____ _____    ______ ____
ROOT
ATOM      1  C   UNL     1      45.627   7.570  12.787  0.00  0.00    +0.000 C 
ENDROOT
BRANCH   1   2
ATOM      2  C   UNL     1      47.139   7.499  12.879  0.00  0.00    +0.000 A 
ATOM      3  C   UNL     1      47.962   7.626  11.753  0.00  0.00    +0.000 A 
ATOM      4  C   UNL     1      49.343   7.628  11.886  0.00  0.00    +0.000 A 
ATOM      5  C   UNL     1      49.921   7.534  13.150  0.00  0.00    +0.000 A 
ATOM      6  C   UNL     1      49.144   7.428  14.315  0.00  0.00    +0.000 A 
ATOM      7  C   UNL     1      47.751   7.394  14.147  0.00  0.00    +0.000 A 
BRANCH   6   8
ATOM      8  N   UNL     1      49.752   7.367  15.552  0.00  0.00    +0.000 N 
ATOM      9  C   UNL     1      51.172   7.664  15.784  0.00  0.00    +0.000 C 
ATOM     10  C   UNL     1      51.895   6.421  16.320  0.00  0.00    +0.000 C 
ATOM     11  O   UNL     1      51.252   5.906  17.499  0.00  0.00    +0.000 OA
ATOM     12  C   UNL     1      49.895   5.538  17.202  0.00  0.00    +0.000 C 
ATOM     13  C   UNL     1      49.073   6.736  16.697  0.00  0.00    +0.000 C 
ENDBRANCH   6   8
ENDBRANCH   1   2
BRANCH   1  14
ATOM     14  C   UNL     1      45.056   7.227  11.405  0.00  0.00    +0.000 C 
BRANCH  14  19
ATOM     15  C   UNL     1      44.472   3.710  10.097  0.00  0.00    +0.000 A 
ATOM     16  C   UNL     1      43.730   3.207  11.156  0.00  0.00    +0.000 A 
ATOM     17  N   UNL     1      43.409   3.926  12.262  0.00  0.00    +0.000 NA
ATOM     18  C   UNL     1      43.843   5.205  12.303  0.00  0.00    +0.000 A 
ATOM     19  C   UNL     1      44.580   5.809  11.289  0.00  0.00    +0.000 A 
ATOM     20  C   UNL     1      44.886   5.040  10.159  0.00  0.00    +0.000 A 
BRANCH  15  22
ATOM     21  N   UNL     1      44.719   1.479   9.168  0.00  0.00    +0.000 N 
ATOM     22  C   UNL     1      44.787   2.828   8.957  0.00  0.00    +0.000 C 
ATOM     23  O   UNL     1      45.059   3.285   7.853  0.00  0.00    +0.000 OA
ATOM     24  H   UNL     1      44.828   0.894   8.348  0.00  0.00    +0.000 HD
ATOM     25  H   UNL     1      44.249   1.078   9.967  0.00  0.00    +0.000 HD
ENDBRANCH  15  22
ENDBRANCH  14  19
ENDBRANCH   1  14
TORSDOF 5
ENDMDL
