MODEL 1
REMARK VINA RESULT:    -7.950      0.000      0.000
REMARK INTER + INTRA:         -11.918
REMARK INTER:                 -10.739
REMARK INTRA:                  -1.180
REMARK UNBOUND:                -1.180
REMARK  Name = 
REMARK  7 active torsions:
REMARK  status: ('A' for Active; 'I' for Inactive)
REMARK    1  A    between atoms: C_1  and  C_2
REMARK    2  A    between atoms: C_2  and  N_3
REMARK    3  A    between atoms: C_2  and  C_16
REMARK    4  A    between atoms: C_4  and  C_6
REMARK    5  A    between atoms: C_19  and  C_20
REMARK    6  A    between atoms: C_20  and  N_21
REMARK    7  A    between atoms: C_22  and  C_24
REMARK                            x       y       z     vdW  Elec       q    Type
REMARK                         _______ _______ _______ _____ _____    ______ ____
ROOT
ATOM      1  C   UNL     1      47.565   8.752  13.839  0.00  0.00    +0.000 C 
ATOM      2  C   UNL     1      48.002   7.302  14.082  0.00  0.00    +0.000 C 
ENDROOT
BRANCH   2   3
ATOM      3  C   UNL     1      47.070   6.339  13.353  0.00  0.00    +0.000 A 
ATOM      4  C   UNL     1      46.524   6.672  12.106  0.00  0.00    +0.000 A 
ATOM      5  C   UNL     1      45.709   5.762  11.420  0.00  0.00    +0.000 A 
ATOM      6  C   UNL     1      45.417   4.505  11.967  0.00  0.00    +0.000 A 
ATOM      7  C   UNL     1      45.960   4.173  13.214  0.00  0.00    +0.000 A 
ATOM      8  C   UNL     1      46.770   5.079  13.899  0.00  0.00    +0.000 A 
BRANCH   6   9
ATOM      9  C   UNL     1      44.568   3.511  11.216  0.00  0.00    +0.000 C 
BRANCH   9  10
ATOM     10  N   UNL     1      45.310   2.865  10.162  0.00  0.00    +0.000 N 
ATOM     11  C   UNL     1      45.181   3.252   8.843  0.00  0.00    +0.000 C 
ATOM     12  O   UNL     1      44.465   4.177   8.478  0.00  0.00    +0.000 OA
ATOM     13  H   UNL     1      45.955   2.113  10.387  0.00  0.00    +0.000 HD
BRANCH  11  14
ATOM     14  C   UNL     1      45.975   2.462   7.857  0.00  0.00    +0.000 A 
ATOM     15  C   UNL     1      46.379   3.018   6.653  0.00  0.00    +0.000 A 
ATOM     16  C   UNL     1      47.089   2.221   5.764  0.00  0.00    +0.000 A 
ATOM     17  C   UNL     1      47.348   0.914   6.129  0.00  0.00    +0.000 A 
ATOM     18  N   UNL     1      46.948   0.392   7.309  0.00  0.00    +0.000 NA
ATOM     19  N   UNL     1      46.254   1.176   8.188  0.00  0.00    +0.000 NA
ENDBRANCH  11  14
ENDBRANCH   9  10
ENDBRANCH   6   9
ENDBRANCH   2   3
BRANCH   2  20
ATOM     20  N   UNL     1      48.030   6.946  15.495  0.00  0.00    +0.000 N 
ATOM     21  C   UNL     1      49.163   6.556  16.164  0.00  0.00    +0.000 C 
ATOM     22  O   UNL     1      50.269   6.524  15.635  0.00  0.00    +0.000 OA
ATOM     23  H   UNL     1      47.137   6.658  15.884  0.00  0.00    +0.000 HD
BRANCH  21  24
ATOM     24  C   UNL     1      48.996   6.233  17.587  0.00  0.00    +0.000 A 
ATOM     25  C   UNL     1      49.405   4.996  18.062  0.00  0.00    +0.000 A 
ATOM     26  S   UNL     1      49.153   4.789  19.736  0.00  0.00    +0.000 S 
ATOM     27  C   UNL     1      48.450   6.332  19.877  0.00  0.00    +0.000 A 
ATOM     28  N   UNL     1      47.968   6.774  21.069  0.00  0.00    +0.000 NA
ATOM     29  C   UNL     1      47.435   7.949  21.024  0.00  0.00    +0.000 A 
ATOM     30  N   UNL     1      47.350   8.727  19.898  0.00  0.00    +0.000 N 
ATOM     31  C   UNL     1      47.859   8.337  18.682  0.00  0.00    +0.000 A 
ATOM     32  O   UNL     1      47.827   9.077  17.706  0.00  0.00    +0.000 OA
ATOM     33  C   UNL     1      48.440   7.008  18.670  0.00  0.00    +0.000 A 
ATOM     34  H   UNL     1      46.940   9.649  19.935  0.00  0.00    +0.000 HD
ENDBRANCH  21  24
ENDBRANCH   2  20
TORSDOF 6
ENDMDL
MODEL 2
REMARK VINA RESULT:    -7.781      1.537      2.099
REMARK INTER + INTRA:         -11.689
REMARK INTER:                 -10.565
REMARK INTRA:                  -1.124
REMARK UNBOUND:                -1.180
REMARK  Name = 
REMARK  7 active torsions:
REMARK  status: ('A' for Active; 'I' for Inactive)
REMARK    1  A    between atoms: C_1  and  C_2
REMARK    2  A    between atoms: C_2  and  N_3
REMARK    3  A    between atoms: C_2  and  C_16
REMARK    4  A    between atoms: C_4  and  C_6
REMARK    5  A    between atoms: C_19  and  C_20
REMARK    6  A    between atoms: C_20  and  N_21
REMARK    7  A    between atoms: C_22  and  C_24
REMARK                            x       y       z     vdW  Elec       q    Type
REMARK                         _______ _______ _______ _____ _____    ______ ____
ROOT
ATOM      1  C   UNL     1      47.448   9.177  13.422  0.00  0.00    +0.000 C 
ATOM      2  C   UNL     1      47.921   7.730  13.609  0.00  0.00    +0.000 C 
ENDROOT
BRANCH   2   3
ATOM      3  C   UNL     1      46.943   6.765  12.948  0.00  0.00    +0.000 A 
ATOM      4  C   UNL     1      46.212   7.144  11.814  0.00  0.00    +0.000 A 
ATOM      5  C   UNL     1      45.353   6.236  11.182  0.00  0.00    +0.000 A 
ATOM      6  C   UNL     1      45.201   4.931  11.672  0.00  0.00    +0.000 A 
ATOM      7  C   UNL     1      45.928   4.551  12.806  0.00  0.00    +0.000 A 
ATOM      8  C   UNL     1      46.783   5.457  13.438  0.00  0.00    +0.000 A 
BRANCH   6   9
ATOM      9  C   UNL     1      44.304   3.941  10.975  0.00  0.00    +0.000 C 
BRANCH   9  10
ATOM     10  N   UNL     1      45.045   3.090  10.078  0.00  0.00    +0.000 N 
ATOM     11  C   UNL     1      45.251   3.435   8.757  0.00  0.00    +0.000 C 
ATOM     12  O   UNL     1      44.856   4.485   8.263  0.00  0.00    +0.000 OA
ATOM     13  H   UNL     1      45.439   2.218  10.419  0.00  0.00    +0.000 HD
BRANCH  11  14
ATOM     14  C   UNL     1      45.995   2.435   7.936  0.00  0.00    +0.000 A 
ATOM     15  C   UNL     1      46.565   2.786   6.722  0.00  0.00    +0.000 A 
ATOM     16  C   UNL     1      47.218   1.802   5.991  0.00  0.00    +0.000 A 
ATOM     17  C   UNL     1      47.257   0.524   6.514  0.00  0.00    +0.000 A 
ATOM     18  N   UNL     1      46.698   0.203   7.701  0.00  0.00    +0.000 NA
ATOM     19  N   UNL     1      46.060   1.170   8.425  0.00  0.00    +0.000 NA
ENDBRANCH  11  14
ENDBRANCH   9  10
ENDBRANCH   6   9
ENDBRANCH   2   3
BRANCH   2  20
ATOM     20  N   UNL     1      48.070   7.357  15.011  0.00  0.00    +0.000 N 
ATOM     21  C   UNL     1      49.273   7.320  15.670  0.00  0.00    +0.000 C 
ATOM     22  O   UNL     1      50.330   7.651  15.142  0.00  0.00    +0.000 OA
ATOM     23  H   UNL     1      47.314   6.793  15.389  0.00  0.00    +0.000 HD
BRANCH  21  24
ATOM     24  C   UNL     1      49.226   6.918  17.081  0.00  0.00    +0.000 A 
ATOM     25  C   UNL     1      49.531   7.844  18.068  0.00  0.00    +0.000 A 
ATOM     26  S   UNL     1      49.415   7.219  19.651  0.00  0.00    +0.000 S 
ATOM     27  C   UNL     1      48.993   5.677  19.070  0.00  0.00    +0.000 A 
ATOM     28  N   UNL     1      48.788   4.639  19.926  0.00  0.00    +0.000 NA
ATOM     29  C   UNL     1      48.503   3.521  19.347  0.00  0.00    +0.000 A 
ATOM     30  N   UNL     1      48.393   3.347  17.991  0.00  0.00    +0.000 N 
ATOM     31  C   UNL     1      48.552   4.376  17.092  0.00  0.00    +0.000 A 
ATOM     32  O   UNL     1      48.386   4.208  15.890  0.00  0.00    +0.000 OA
ATOM     33  C   UNL     1      48.907   5.649  17.689  0.00  0.00    +0.000 A 
ATOM     34  H   UNL     1      48.145   2.449  17.603  0.00  0.00    +0.000 HD
ENDBRANCH  21  24
ENDBRANCH   2  20
TORSDOF 6
ENDMDL
MODEL 3
REMARK VINA RESULT:    -7.738      1.972      2.621
REMARK INTER + INTRA:         -11.631
REMARK INTER:                 -11.133
REMARK INTRA:                  -0.499
REMARK UNBOUND:                -1.180
REMARK  Name = 
REMARK  7 active torsions:
REMARK  status: ('A' for Active; 'I' for Inactive)
REMARK    1  A    between atoms: C_1  and  C_2
REMARK    2  A    between atoms: C_2  and  N_3
REMARK    3  A    between atoms: C_2  and  C_16
REMARK    4  A    between atoms: C_4  and  C_6
REMARK    5  A    between atoms: C_19  and  C_20
REMARK    6  A    between atoms: C_20  and  N_21
REMARK    7  A    between atoms: C_22  and  C_24
REMARK                            x       y       z     vdW  Elec       q    Type
REMARK                         _______ _______ _______ _____ _____    ______ ____
ROOT
ATOM      1  C   UNL     1      46.518   9.285  13.376  0.00  0.00    +0.000 C 
ATOM      2  C   UNL     1      47.251   7.942  13.265  0.00  0.00    +0.000 C 
ENDROOT
BRANCH   2   3
ATOM      3  C   UNL     1      46.416   6.948  12.464  0.00  0.00    +0.000 A 
ATOM      4  C   UNL     1      46.711   5.579  12.483  0.00  0.00    +0.000 A 
ATOM      5  C   UNL     1      45.909   4.667  11.785  0.00  0.00    +0.000 A 
ATOM      6  C   UNL     1      44.800   5.103  11.047  0.00  0.00    +0.000 A 
ATOM      7  C   UNL     1      44.505   6.471  11.025  0.00  0.00    +0.000 A 
ATOM      8  C   UNL     1      45.305   7.382  11.718  0.00  0.00    +0.000 A 
BRANCH   6   9
ATOM      9  C   UNL     1      43.915   4.121  10.323  0.00  0.00    +0.000 C 
BRANCH   9  10
ATOM     10  N   UNL     1      44.673   3.274   9.436  0.00  0.00    +0.000 N 
ATOM     11  C   UNL     1      45.470   3.798   8.439  0.00  0.00    +0.000 C 
ATOM     12  O   UNL     1      45.618   5.001   8.254  0.00  0.00    +0.000 OA
ATOM     13  H   UNL     1      44.634   2.265   9.547  0.00  0.00    +0.000 HD
BRANCH  11  14
ATOM     14  C   UNL     1      46.158   2.800   7.569  0.00  0.00    +0.000 A 
ATOM     15  C   UNL     1      46.556   3.125   6.281  0.00  0.00    +0.000 A 
ATOM     16  C   UNL     1      47.163   2.141   5.510  0.00  0.00    +0.000 A 
ATOM     17  C   UNL     1      47.332   0.891   6.071  0.00  0.00    +0.000 A 
ATOM     18  N   UNL     1      46.941   0.595   7.330  0.00  0.00    +0.000 NA
ATOM     19  N   UNL     1      46.348   1.562   8.092  0.00  0.00    +0.000 NA
ENDBRANCH  11  14
ENDBRANCH   9  10
ENDBRANCH   6   9
ENDBRANCH   2   3
BRANCH   2  20
ATOM     20  N   UNL     1      47.559   7.354  14.562  0.00  0.00    +0.000 N 
ATOM     21  C   UNL     1      48.793   6.862  14.906  0.00  0.00    +0.000 C 
ATOM     22  O   UNL     1      49.765   6.924  14.159  0.00  0.00    +0.000 OA
ATOM     23  H   UNL     1      46.758   7.000  15.077  0.00  0.00    +0.000 HD
BRANCH  21  24
ATOM     24  C   UNL     1      48.914   6.304  16.259  0.00  0.00    +0.000 A 
ATOM     25  C   UNL     1      49.620   7.003  17.228  0.00  0.00    +0.000 A 
ATOM     26  S   UNL     1      49.652   6.224  18.745  0.00  0.00    +0.000 S 
ATOM     27  C   UNL     1      48.758   4.905  18.148  0.00  0.00    +0.000 A 
ATOM     28  N   UNL     1      48.467   3.841  18.944  0.00  0.00    +0.000 NA
ATOM     29  C   UNL     1      47.809   2.900  18.353  0.00  0.00    +0.000 A 
ATOM     30  N   UNL     1      47.406   2.931  17.042  0.00  0.00    +0.000 N 
ATOM     31  C   UNL     1      47.644   4.002  16.214  0.00  0.00    +0.000 A 
ATOM     32  O   UNL     1      47.219   4.031  15.065  0.00  0.00    +0.000 OA
ATOM     33  C   UNL     1      48.410   5.074  16.820  0.00  0.00    +0.000 A 
ATOM     34  H   UNL     1      46.874   2.169  16.646  0.00  0.00    +0.000 HD
ENDBRANCH  21  24
ENDBRANCH   2  20
TORSDOF 6
ENDMDL
MODEL 4
REMARK VINA RESULT:    -7.601      2.896      4.320
REMARK INTER + INTRA:         -11.446
REMARK INTER:                 -10.174
REMARK INTRA:                  -1.273
REMARK UNBOUND:                -1.180
REMARK  Name = 
REMARK  7 active torsions:
REMARK  status: ('A' for Active; 'I' for Inactive)
REMARK    1  A    between atoms: C_1  and  C_2
REMARK    2  A    between atoms: C_2  and  N_3
REMARK    3  A    between atoms: C_2  and  C_16
REMARK    4  A    between atoms: C_4  and  C_6
REMARK    5  A    between atoms: C_19  and  C_20
REMARK    6  A    between atoms: C_20  and  N_21
REMARK    7  A    between atoms: C_22  and  C_24
REMARK                            x       y       z     vdW  Elec       q    Type
REMARK                         _______ _______ _______ _____ _____    ______ ____
ROOT
ATOM      1  C   UNL     1      47.528   3.631  15.703  0.00  0.00    +0.000 C 
ATOM      2  C   UNL     1      47.163   4.966  15.041  0.00  0.00    +0.000 C 
ENDROOT
BRANCH   2   3
ATOM      3  C   UNL     1      46.296   4.725  13.809  0.00  0.00    +0.000 A 
ATOM      4  C   UNL     1      45.633   5.785  13.177  0.00  0.00    +0.000 A 
ATOM      5  C   UNL     1      44.880   5.564  12.016  0.00  0.00    +0.000 A 
ATOM      6  C   UNL     1      44.767   4.279  11.467  0.00  0.00    +0.000 A 
ATOM      7  C   UNL     1      45.426   3.219  12.100  0.00  0.00    +0.000 A 
ATOM      8  C   UNL     1      46.175   3.437  13.258  0.00  0.00    +0.000 A 
BRANCH   6   9
ATOM      9  C   UNL     1      43.985   4.044  10.201  0.00  0.00    +0.000 C 
BRANCH   9  10
ATOM     10  N   UNL     1      44.734   3.259   9.250  0.00  0.00    +0.000 N 
ATOM     11  C   UNL     1      45.632   3.841   8.379  0.00  0.00    +0.000 C 
ATOM     12  O   UNL     1      45.883   5.041   8.368  0.00  0.00    +0.000 OA
ATOM     13  H   UNL     1      44.612   2.251   9.221  0.00  0.00    +0.000 HD
BRANCH  11  14
ATOM     14  C   UNL     1      46.299   2.911   7.421  0.00  0.00    +0.000 A 
ATOM     15  C   UNL     1      46.593   3.307   6.125  0.00  0.00    +0.000 A 
ATOM     16  C   UNL     1      47.185   2.384   5.272  0.00  0.00    +0.000 A 
ATOM     17  C   UNL     1      47.444   1.120   5.764  0.00  0.00    +0.000 A 
ATOM     18  N   UNL     1      47.153   0.755   7.032  0.00  0.00    +0.000 NA
ATOM     19  N   UNL     1      46.575   1.662   7.875  0.00  0.00    +0.000 NA
ENDBRANCH  11  14
ENDBRANCH   9  10
ENDBRANCH   6   9
ENDBRANCH   2   3
BRANCH   2  20
ATOM     20  N   UNL     1      48.331   5.743  14.646  0.00  0.00    +0.000 N 
ATOM     21  C   UNL     1      48.902   6.718  15.426  0.00  0.00    +0.000 C 
ATOM     22  O   UNL     1      48.502   6.983  16.555  0.00  0.00    +0.000 OA
ATOM     23  H   UNL     1      48.499   5.790  13.645  0.00  0.00    +0.000 HD
BRANCH  21  24
ATOM     24  C   UNL     1      50.073   7.397  14.859  0.00  0.00    +0.000 A 
ATOM     25  C   UNL     1      51.248   7.465  15.594  0.00  0.00    +0.000 A 
ATOM     26  S   UNL     1      52.513   8.274  14.786  0.00  0.00    +0.000 S 
ATOM     27  C   UNL     1      51.522   8.598  13.441  0.00  0.00    +0.000 A 
ATOM     28  N   UNL     1      51.991   9.311  12.383  0.00  0.00    +0.000 NA
ATOM     29  C   UNL     1      51.123   9.507  11.447  0.00  0.00    +0.000 A 
ATOM     30  N   UNL     1      49.833   9.044  11.468  0.00  0.00    +0.000 N 
ATOM     31  C   UNL     1      49.329   8.285  12.498  0.00  0.00    +0.000 A 
ATOM     32  O   UNL     1      48.191   7.830  12.464  0.00  0.00    +0.000 OA
ATOM     33  C   UNL     1      50.254   8.065  13.593  0.00  0.00    +0.000 A 
ATOM     34  H   UNL     1      49.209   9.213  10.692  0.00  0.00    +0.000 HD
ENDBRANCH  21  24
ENDBRANCH   2  20
TORSDOF 6
ENDMDL
MODEL 5
REMARK VINA RESULT:    -7.102      4.177      9.108
REMARK INTER + INTRA:         -10.772
REMARK INTER:                  -9.727
REMARK INTRA:                  -1.045
REMARK UNBOUND:                -1.180
REMARK  Name = 
REMARK  7 active torsions:
REMARK  status: ('A' for Active; 'I' for Inactive)
REMARK    1  A    between atoms: C_1  and  C_2
REMARK    2  A    between atoms: C_2  and  N_3
REMARK    3  A    between atoms: C_2  and  C_16
REMARK    4  A    between atoms: C_4  and  C_6
REMARK    5  A    between atoms: C_19  and  C_20
REMARK    6  A    between atoms: C_20  and  N_21
REMARK    7  A    between atoms: C_22  and  C_24
REMARK                            x       y       z     vdW  Elec       q    Type
REMARK                         _______ _______ _______ _____ _____    ______ ____
ROOT
ATOM      1  C   UNL     1      49.611   7.601  12.806  0.00  0.00    +0.000 C 
ATOM      2  C   UNL     1      48.287   7.172  13.452  0.00  0.00    +0.000 C 
ENDROOT
BRANCH   2   3
ATOM      3  C   UNL     1      48.550   6.485  14.789  0.00  0.00    +0.000 A 
ATOM      4  C   UNL     1      47.723   5.448  15.241  0.00  0.00    +0.000 A 
ATOM      5  C   UNL     1      48.000   4.789  16.445  0.00  0.00    +0.000 A 
ATOM      6  C   UNL     1      49.104   5.155  17.227  0.00  0.00    +0.000 A 
ATOM      7  C   UNL     1      49.930   6.192  16.778  0.00  0.00    +0.000 A 
ATOM      8  C   UNL     1      49.654   6.852  15.579  0.00  0.00    +0.000 A 
BRANCH   6   9
ATOM      9  C   UNL     1      49.425   4.425  18.506  0.00  0.00    +0.000 C 
BRANCH   9  10
ATOM     10  N   UNL     1      50.726   3.805  18.455  0.00  0.00    +0.000 N 
ATOM     11  C   UNL     1      50.965   2.688  17.681  0.00  0.00    +0.000 C 
ATOM     12  O   UNL     1      50.117   2.166  16.967  0.00  0.00    +0.000 OA
ATOM     13  H   UNL     1      51.493   4.200  18.990  0.00  0.00    +0.000 HD
BRANCH  11  14
ATOM     14  C   UNL     1      52.346   2.128  17.764  0.00  0.00    +0.000 A 
ATOM     15  C   UNL     1      52.614   0.823  17.381  0.00  0.00    +0.000 A 
ATOM     16  C   UNL     1      53.915   0.351  17.512  0.00  0.00    +0.000 A 
ATOM     17  C   UNL     1      54.868   1.211  18.022  0.00  0.00    +0.000 A 
ATOM     18  N   UNL     1      54.587   2.481  18.386  0.00  0.00    +0.000 NA
ATOM     19  N   UNL     1      53.309   2.950  18.253  0.00  0.00    +0.000 NA
ENDBRANCH  11  14
ENDBRANCH   9  10
ENDBRANCH   6   9
ENDBRANCH   2   3
BRANCH   2  20
ATOM     20  N   UNL     1      47.509   6.272  12.610  0.00  0.00    +0.000 N 
ATOM     21  C   UNL     1      46.444   6.671  11.843  0.00  0.00    +0.000 C 
ATOM     22  O   UNL     1      46.086   7.842  11.761  0.00  0.00    +0.000 OA
ATOM     23  H   UNL     1      47.552   5.291  12.872  0.00  0.00    +0.000 HD
BRANCH  21  24
ATOM     24  C   UNL     1      45.780   5.621  11.060  0.00  0.00    +0.000 A 
ATOM     25  C   UNL     1      45.868   5.638   9.676  0.00  0.00    +0.000 A 
ATOM     26  S   UNL     1      45.054   4.343   8.923  0.00  0.00    +0.000 S 
ATOM     27  C   UNL     1      44.519   3.736  10.420  0.00  0.00    +0.000 A 
ATOM     28  N   UNL     1      43.721   2.637  10.484  0.00  0.00    +0.000 NA
ATOM     29  C   UNL     1      43.367   2.306  11.681  0.00  0.00    +0.000 A 
ATOM     30  N   UNL     1      43.748   2.967  12.821  0.00  0.00    +0.000 N 
ATOM     31  C   UNL     1      44.585   4.058  12.806  0.00  0.00    +0.000 A 
ATOM     32  O   UNL     1      44.961   4.593  13.842  0.00  0.00    +0.000 OA
ATOM     33  C   UNL     1      44.985   4.492  11.481  0.00  0.00    +0.000 A 
ATOM     34  H   UNL     1      43.453   2.643  13.730  0.00  0.00    +0.000 HD
ENDBRANCH  21  24
ENDBRANCH   2  20
TORSDOF 6
ENDMDL
MODEL 6
REMARK VINA RESULT:    -7.026      3.548      9.322
REMARK INTER + INTRA:         -10.670
REMARK INTER:                  -9.732
REMARK INTRA:                  -0.939
REMARK UNBOUND:                -1.180
REMARK  Name = 
REMARK  7 active torsions:
REMARK  status: ('A' for Active; 'I' for Inactive)
REMARK    1  A    between atoms: C_1  and  C_2
REMARK    2  A    between atoms: C_2  and  N_3
REMARK    3  A    between atoms: C_2  and  C_16
REMARK    4  A    between atoms: C_4  and  C_6
REMARK    5  A    between atoms: C_19  and  C_20
REMARK    6  A    between atoms: C_20  and  N_21
REMARK    7  A    between atoms: C_22  and  C_24
REMARK                            x       y       z     vdW  Elec       q    Type
REMARK                         _______ _______ _______ _____ _____    ______ ____
ROOT
ATOM      1  C   UNL     1      49.076   7.828  11.236  0.00  0.00    +0.000 C 
ATOM      2  C   UNL     1      48.062   7.595  12.364  0.00  0.00    +0.000 C 
ENDROOT
BRANCH   2   3
ATOM      3  C   UNL     1      48.785   7.390  13.691  0.00  0.00    +0.000 A 
ATOM      4  C   UNL     1      48.205   6.633  14.717  0.00  0.00    +0.000 A 
ATOM      5  C   UNL     1      48.897   6.407  15.914  0.00  0.00    +0.000 A 
ATOM      6  C   UNL     1      50.179   6.938  16.115  0.00  0.00    +0.000 A 
ATOM      7  C   UNL     1      50.759   7.697  15.091  0.00  0.00    +0.000 A 
ATOM      8  C   UNL     1      50.069   7.924  13.898  0.00  0.00    +0.000 A 
BRANCH   6   9
ATOM      9  C   UNL     1      50.940   6.669  17.387  0.00  0.00    +0.000 C 
BRANCH   9  10
ATOM     10  N   UNL     1      51.579   5.376  17.364  0.00  0.00    +0.000 N 
ATOM     11  C   UNL     1      50.954   4.251  17.864  0.00  0.00    +0.000 C 
ATOM     12  O   UNL     1      49.820   4.257  18.328  0.00  0.00    +0.000 OA
ATOM     13  H   UNL     1      52.506   5.279  16.962  0.00  0.00    +0.000 HD
BRANCH  11  14
ATOM     14  C   UNL     1      51.755   2.992  17.815  0.00  0.00    +0.000 A 
ATOM     15  C   UNL     1      53.094   2.980  18.177  0.00  0.00    +0.000 A 
ATOM     16  C   UNL     1      53.792   1.783  18.079  0.00  0.00    +0.000 A 
ATOM     17  C   UNL     1      53.112   0.671  17.623  0.00  0.00    +0.000 A 
ATOM     18  N   UNL     1      51.806   0.703  17.279  0.00  0.00    +0.000 NA
ATOM     19  N   UNL     1      51.115   1.878  17.378  0.00  0.00    +0.000 NA
ENDBRANCH  11  14
ENDBRANCH   9  10
ENDBRANCH   6   9
ENDBRANCH   2   3
BRANCH   2  20
ATOM     20  N   UNL     1      47.196   6.448  12.121  0.00  0.00    +0.000 N 
ATOM     21  C   UNL     1      45.857   6.546  11.836  0.00  0.00    +0.000 C 
ATOM     22  O   UNL     1      45.282   7.622  11.708  0.00  0.00    +0.000 OA
ATOM     23  H   UNL     1      47.525   5.569  12.511  0.00  0.00    +0.000 HD
BRANCH  21  24
ATOM     24  C   UNL     1      45.146   5.279  11.624  0.00  0.00    +0.000 A 
ATOM     25  C   UNL     1      44.441   4.705  12.672  0.00  0.00    +0.000 A 
ATOM     26  S   UNL     1      43.663   3.246  12.254  0.00  0.00    +0.000 S 
ATOM     27  C   UNL     1      44.274   3.309  10.668  0.00  0.00    +0.000 A 
ATOM     28  N   UNL     1      44.012   2.316   9.777  0.00  0.00    +0.000 NA
ATOM     29  C   UNL     1      44.564   2.479   8.621  0.00  0.00    +0.000 A 
ATOM     30  N   UNL     1      45.344   3.551   8.271  0.00  0.00    +0.000 N 
ATOM     31  C   UNL     1      45.603   4.597   9.125  0.00  0.00    +0.000 A 
ATOM     32  O   UNL     1      46.251   5.573   8.767  0.00  0.00    +0.000 OA
ATOM     33  C   UNL     1      45.033   4.446  10.451  0.00  0.00    +0.000 A 
ATOM     34  H   UNL     1      45.728   3.629   7.340  0.00  0.00    +0.000 HD
ENDBRANCH  21  24
ENDBRANCH   2  20
TORSDOF 6
ENDMDL
MODEL 7
REMARK VINA RESULT:    -6.961      5.398      9.619
REMARK INTER + INTRA:         -10.583
REMARK INTER:                  -9.632
REMARK INTRA:                  -0.951
REMARK UNBOUND:                -1.180
REMARK  Name = 
REMARK  7 active torsions:
REMARK  status: ('A' for Active; 'I' for Inactive)
REMARK    1  A    between atoms: C_1  and  C_2
REMARK    2  A    between atoms: C_2  and  N_3
REMARK    3  A    between atoms: C_2  and  C_16
REMARK    4  A    between atoms: C_4  and  C_6
REMARK    5  A    between atoms: C_19  and  C_20
REMARK    6  A    between atoms: C_20  and  N_21
REMARK    7  A    between atoms: C_22  and  C_24
REMARK                            x       y       z     vdW  Elec       q    Type
REMARK                         _______ _______ _______ _____ _____    ______ ____
ROOT
ATOM      1  C   UNL     1      46.984   5.018  18.546  0.00  0.00    +0.000 C 
ATOM      2  C   UNL     1      47.492   4.265  17.310  0.00  0.00    +0.000 C 
ENDROOT
BRANCH   2   3
ATOM      3  C   UNL     1      48.986   3.988  17.437  0.00  0.00    +0.000 A 
ATOM      4  C   UNL     1      49.483   2.678  17.381  0.00  0.00    +0.000 A 
ATOM      5  C   UNL     1      50.861   2.435  17.449  0.00  0.00    +0.000 A 
ATOM      6  C   UNL     1      51.772   3.493  17.580  0.00  0.00    +0.000 A 
ATOM      7  C   UNL     1      51.277   4.801  17.638  0.00  0.00    +0.000 A 
ATOM      8  C   UNL     1      49.904   5.045  17.574  0.00  0.00    +0.000 A 
BRANCH   6   9
ATOM      9  C   UNL     1      53.256   3.238  17.619  0.00  0.00    +0.000 C 
BRANCH   9  10
ATOM     10  N   UNL     1      53.560   1.835  17.483  0.00  0.00    +0.000 N 
ATOM     11  C   UNL     1      54.078   1.101  18.532  0.00  0.00    +0.000 C 
ATOM     12  O   UNL     1      54.286   1.569  19.646  0.00  0.00    +0.000 OA
ATOM     13  H   UNL     1      53.382   1.363  16.602  0.00  0.00    +0.000 HD
BRANCH  11  14
ATOM     14  C   UNL     1      54.387  -0.328  18.231  0.00  0.00    +0.000 A 
ATOM     15  C   UNL     1      54.935  -0.701  17.013  0.00  0.00    +0.000 A 
ATOM     16  C   UNL     1      55.170  -2.051  16.782  0.00  0.00    +0.000 A 
ATOM     17  C   UNL     1      54.839  -2.947  17.780  0.00  0.00    +0.000 A 
ATOM     18  N   UNL     1      54.309  -2.562  18.962  0.00  0.00    +0.000 NA
ATOM     19  N   UNL     1      54.081  -1.234  19.194  0.00  0.00    +0.000 NA
ENDBRANCH  11  14
ENDBRANCH   9  10
ENDBRANCH   6   9
ENDBRANCH   2   3
BRANCH   2  20
ATOM     20  N   UNL     1      47.255   4.989  16.066  0.00  0.00    +0.000 N 
ATOM     21  C   UNL     1      47.229   4.396  14.829  0.00  0.00    +0.000 C 
ATOM     22  O   UNL     1      47.353   3.186  14.669  0.00  0.00    +0.000 OA
ATOM     23  H   UNL     1      47.457   5.983  16.102  0.00  0.00    +0.000 HD
BRANCH  21  24
ATOM     24  C   UNL     1      46.978   5.287  13.690  0.00  0.00    +0.000 A 
ATOM     25  C   UNL     1      47.970   6.163  13.273  0.00  0.00    +0.000 A 
ATOM     26  S   UNL     1      47.522   7.115  11.931  0.00  0.00    +0.000 S 
ATOM     27  C   UNL     1      45.970   6.419  11.885  0.00  0.00    +0.000 A 
ATOM     28  N   UNL     1      45.046   6.828  10.974  0.00  0.00    +0.000 NA
ATOM     29  C   UNL     1      43.903   6.236  11.074  0.00  0.00    +0.000 A 
ATOM     30  N   UNL     1      43.603   5.264  11.993  0.00  0.00    +0.000 N 
ATOM     31  C   UNL     1      44.517   4.792  12.906  0.00  0.00    +0.000 A 
ATOM     32  O   UNL     1      44.243   3.878  13.675  0.00  0.00    +0.000 OA
ATOM     33  C   UNL     1      45.809   5.449  12.859  0.00  0.00    +0.000 A 
ATOM     34  H   UNL     1      42.694   4.824  12.003  0.00  0.00    +0.000 HD
ENDBRANCH  21  24
ENDBRANCH   2  20
TORSDOF 6
ENDMDL
MODEL 8
REMARK VINA RESULT:    -6.893      5.412      9.405
REMARK INTER + INTRA:         -10.490
REMARK INTER:                  -9.265
REMARK INTRA:                  -1.225
REMARK UNBOUND:                -1.180
REMARK  Name = 
REMARK  7 active torsions:
REMARK  status: ('A' for Active; 'I' for Inactive)
REMARK    1  A    between atoms: C_1  and  C_2
REMARK    2  A    between atoms: C_2  and  N_3
REMARK    3  A    between atoms: C_2  and  C_16
REMARK    4  A    between atoms: C_4  and  C_6
REMARK    5  A    between atoms: C_19  and  C_20
REMARK    6  A    between atoms: C_20  and  N_21
REMARK    7  A    between atoms: C_22  and  C_24
REMARK                            x       y       z     vdW  Elec       q    Type
REMARK                         _______ _______ _______ _____ _____    ______ ____
ROOT
ATOM      1  C   UNL     1      46.922   4.981  18.412  0.00  0.00    +0.000 C 
ATOM      2  C   UNL     1      47.463   4.221  17.194  0.00  0.00    +0.000 C 
ENDROOT
BRANCH   2   3
ATOM      3  C   UNL     1      48.921   3.833  17.419  0.00  0.00    +0.000 A 
ATOM      4  C   UNL     1      49.370   2.533  17.151  0.00  0.00    +0.000 A 
ATOM      5  C   UNL     1      50.720   2.198  17.312  0.00  0.00    +0.000 A 
ATOM      6  C   UNL     1      51.650   3.151  17.750  0.00  0.00    +0.000 A 
ATOM      7  C   UNL     1      51.203   4.449  18.021  0.00  0.00    +0.000 A 
ATOM      8  C   UNL     1      49.857   4.784  17.863  0.00  0.00    +0.000 A 
BRANCH   6   9
ATOM      9  C   UNL     1      53.109   2.803  17.892  0.00  0.00    +0.000 C 
BRANCH   9  10
ATOM     10  N   UNL     1      53.295   1.421  18.263  0.00  0.00    +0.000 N 
ATOM     11  C   UNL     1      54.197   0.610  17.606  0.00  0.00    +0.000 C 
ATOM     12  O   UNL     1      54.920   1.001  16.696  0.00  0.00    +0.000 OA
ATOM     13  H   UNL     1      52.760   1.030  19.033  0.00  0.00    +0.000 HD
BRANCH  11  14
ATOM     14  C   UNL     1      54.248  -0.808  18.069  0.00  0.00    +0.000 A 
ATOM     15  C   UNL     1      55.001  -1.756  17.393  0.00  0.00    +0.000 A 
ATOM     16  C   UNL     1      54.981  -3.066  17.855  0.00  0.00    +0.000 A 
ATOM     17  C   UNL     1      54.206  -3.351  18.962  0.00  0.00    +0.000 A 
ATOM     18  N   UNL     1      53.481  -2.412  19.609  0.00  0.00    +0.000 NA
ATOM     19  N   UNL     1      53.503  -1.121  19.159  0.00  0.00    +0.000 NA
ENDBRANCH  11  14
ENDBRANCH   9  10
ENDBRANCH   6   9
ENDBRANCH   2   3
BRANCH   2  20
ATOM     20  N   UNL     1      47.369   4.988  15.957  0.00  0.00    +0.000 N 
ATOM     21  C   UNL     1      47.303   4.422  14.709  0.00  0.00    +0.000 C 
ATOM     22  O   UNL     1      47.265   3.208  14.531  0.00  0.00    +0.000 OA
ATOM     23  H   UNL     1      47.703   5.945  16.018  0.00  0.00    +0.000 HD
BRANCH  21  24
ATOM     24  C   UNL     1      47.214   5.355  13.579  0.00  0.00    +0.000 A 
ATOM     25  C   UNL     1      46.202   5.203  12.643  0.00  0.00    +0.000 A 
ATOM     26  S   UNL     1      46.233   6.376  11.406  0.00  0.00    +0.000 S 
ATOM     27  C   UNL     1      47.627   7.104  12.055  0.00  0.00    +0.000 A 
ATOM     28  N   UNL     1      48.214   8.165  11.439  0.00  0.00    +0.000 NA
ATOM     29  C   UNL     1      49.281   8.597  12.026  0.00  0.00    +0.000 A 
ATOM     30  N   UNL     1      49.807   8.072  13.178  0.00  0.00    +0.000 N 
ATOM     31  C   UNL     1      49.225   7.026  13.856  0.00  0.00    +0.000 A 
ATOM     32  O   UNL     1      49.680   6.617  14.917  0.00  0.00    +0.000 OA
ATOM     33  C   UNL     1      48.041   6.481  13.220  0.00  0.00    +0.000 A 
ATOM     34  H   UNL     1      50.633   8.472  13.598  0.00  0.00    +0.000 HD
ENDBRANCH  21  24
ENDBRANCH   2  20
TORSDOF 6
ENDMDL
MODEL 9
REMARK VINA RESULT:    -6.838      3.152      4.132
REMARK INTER + INTRA:         -10.416
REMARK INTER:                  -9.478
REMARK INTRA:                  -0.938
REMARK UNBOUND:                -1.180
REMARK  Name = 
REMARK  7 active torsions:
REMARK  status: ('A' for Active; 'I' for Inactive)
REMARK    1  A    between atoms: C_1  and  C_2
REMARK    2  A    between atoms: C_2  and  N_3
REMARK    3  A    between atoms: C_2  and  C_16
REMARK    4  A    between atoms: C_4  and  C_6
REMARK    5  A    between atoms: C_19  and  C_20
REMARK    6  A    between atoms: C_20  and  N_21
REMARK    7  A    between atoms: C_22  and  C_24
REMARK                            x       y       z     vdW  Elec       q    Type
REMARK                         _______ _______ _______ _____ _____    ______ ____
ROOT
ATOM      1  C   UNL     1      47.345   4.279  15.295  0.00  0.00    +0.000 C 
ATOM      2  C   UNL     1      47.107   5.629  14.605  0.00  0.00    +0.000 C 
ENDROOT
BRANCH   2   3
ATOM      3  C   UNL     1      46.276   5.437  13.341  0.00  0.00    +0.000 A 
ATOM      4  C   UNL     1      46.565   6.157  12.174  0.00  0.00    +0.000 A 
ATOM      5  C   UNL     1      45.829   5.938  11.001  0.00  0.00    +0.000 A 
ATOM      6  C   UNL     1      44.786   5.002  10.971  0.00  0.00    +0.000 A 
ATOM      7  C   UNL     1      44.496   4.284  12.137  0.00  0.00    +0.000 A 
ATOM      8  C   UNL     1      45.226   4.502  13.307  0.00  0.00    +0.000 A 
BRANCH   6   9
ATOM      9  C   UNL     1      44.016   4.741   9.703  0.00  0.00    +0.000 C 
BRANCH   9  10
ATOM     10  N   UNL     1      44.866   4.225   8.659  0.00  0.00    +0.000 N 
ATOM     11  C   UNL     1      45.241   2.897   8.621  0.00  0.00    +0.000 C 
ATOM     12  O   UNL     1      44.863   2.063   9.436  0.00  0.00    +0.000 OA
ATOM     13  H   UNL     1      45.193   4.843   7.923  0.00  0.00    +0.000 HD
BRANCH  11  14
ATOM     14  C   UNL     1      46.161   2.517   7.509  0.00  0.00    +0.000 A 
ATOM     15  C   UNL     1      46.274   3.303   6.372  0.00  0.00    +0.000 A 
ATOM     16  C   UNL     1      47.124   2.878   5.359  0.00  0.00    +0.000 A 
ATOM     17  C   UNL     1      47.807   1.691   5.540  0.00  0.00    +0.000 A 
ATOM     18  N   UNL     1      47.686   0.941   6.657  0.00  0.00    +0.000 NA
ATOM     19  N   UNL     1      46.854   1.359   7.658  0.00  0.00    +0.000 NA
ENDBRANCH  11  14
ENDBRANCH   9  10
ENDBRANCH   6   9
ENDBRANCH   2   3
BRANCH   2  20
ATOM     20  N   UNL     1      48.345   6.312  14.252  0.00  0.00    +0.000 N 
ATOM     21  C   UNL     1      49.015   7.166  15.093  0.00  0.00    +0.000 C 
ATOM     22  O   UNL     1      48.650   7.387  16.243  0.00  0.00    +0.000 OA
ATOM     23  H   UNL     1      48.511   6.415  13.256  0.00  0.00    +0.000 HD
BRANCH  21  24
ATOM     24  C   UNL     1      50.245   7.764  14.561  0.00  0.00    +0.000 A 
ATOM     25  C   UNL     1      50.178   8.614  13.467  0.00  0.00    +0.000 A 
ATOM     26  S   UNL     1      51.692   9.232  12.986  0.00  0.00    +0.000 S 
ATOM     27  C   UNL     1      52.498   8.353  14.200  0.00  0.00    +0.000 A 
ATOM     28  N   UNL     1      53.852   8.404  14.317  0.00  0.00    +0.000 NA
ATOM     29  C   UNL     1      54.332   7.664  15.262  0.00  0.00    +0.000 A 
ATOM     30  N   UNL     1      53.579   6.889  16.106  0.00  0.00    +0.000 N 
ATOM     31  C   UNL     1      52.206   6.839  16.049  0.00  0.00    +0.000 A 
ATOM     32  O   UNL     1      51.554   6.187  16.856  0.00  0.00    +0.000 OA
ATOM     33  C   UNL     1      51.619   7.626  14.982  0.00  0.00    +0.000 A 
ATOM     34  H   UNL     1      54.016   6.350  16.840  0.00  0.00    +0.000 HD
ENDBRANCH  21  24
ENDBRANCH   2  20
TORSDOF 6
ENDMDL
