MODEL 1
REMARK VINA RESULT:    -8.605      0.000      0.000
REMARK INTER + INTRA:         -13.631
REMARK INTER:                 -12.378
REMARK INTRA:                  -1.253
REMARK UNBOUND:                -1.253
REMARK  Name = 
REMARK  8 active torsions:
REMARK  status: ('A' for Active; 'I' for Inactive)
REMARK    1  A    between atoms: C_2  and  C_21
REMARK    2  A    between atoms: N_3  and  C_4
REMARK    3  A    between atoms: C_4  and  C_5
REMARK    4  A    between atoms: C_8  and  C_9
REMARK    5  A    between atoms: C_9  and  C_10
REMARK    6  A    between atoms: C_9  and  C_12
REMARK    7  A    between atoms: C_10  and  O_11
REMARK    8  A    between atoms: C_12  and  C_13
REMARK                            x       y       z     vdW  Elec       q    Type
REMARK                         _______ _______ _______ _____ _____    ______ ____
ROOT
ATOM      1  C   UNL     1      47.089   6.471  12.801  0.00  0.00    +0.000 A 
ATOM      2  C   UNL     1      46.700   5.302  13.465  0.00  0.00    +0.000 A 
ATOM      3  C   UNL     1      45.896   4.354  12.825  0.00  0.00    +0.000 A 
ATOM      4  C   UNL     1      45.473   4.550  11.503  0.00  0.00    +0.000 A 
ATOM      5  C   UNL     1      45.840   5.740  10.857  0.00  0.00    +0.000 A 
ATOM      6  C   UNL     1      46.655   6.678  11.488  0.00  0.00    +0.000 A 
ENDROOT
BRANCH   1   7
ATOM      7  C   UNL     1      48.003   7.463  13.465  0.00  0.00    +0.000 C 
BRANCH   7  10
ATOM      8  O   UNL     1      50.133   6.794  15.173  0.00  0.00    +0.000 OA
ATOM      9  C   UNL     1      49.036   7.050  15.664  0.00  0.00    +0.000 C 
ATOM     10  N   UNL     1      47.939   7.342  14.899  0.00  0.00    +0.000 N 
ATOM     11  H   UNL     1      47.118   7.740  15.346  0.00  0.00    +0.000 HD
BRANCH   9  12
ATOM     12  C   UNL     1      48.818   6.995  17.116  0.00  0.00    +0.000 A 
ATOM     13  C   UNL     1      48.485   8.154  17.803  0.00  0.00    +0.000 A 
ATOM     14  S   UNL     1      48.284   7.922  19.480  0.00  0.00    +0.000 S 
ATOM     15  C   UNL     1      48.591   6.254  19.342  0.00  0.00    +0.000 A 
ATOM     16  N   UNL     1      48.540   5.444  20.433  0.00  0.00    +0.000 NA
ATOM     17  C   UNL     1      48.755   4.196  20.179  0.00  0.00    +0.000 A 
ATOM     18  N   UNL     1      49.026   3.687  18.936  0.00  0.00    +0.000 N 
ATOM     19  C   UNL     1      49.172   4.479  17.822  0.00  0.00    +0.000 A 
ATOM     20  O   UNL     1      49.568   4.013  16.759  0.00  0.00    +0.000 OA
ATOM     21  C   UNL     1      48.878   5.885  18.039  0.00  0.00    +0.000 A 
ATOM     22  H   UNL     1      49.224   2.707  18.811  0.00  0.00    +0.000 HD
ENDBRANCH   9  12
ENDBRANCH   7  10
ENDBRANCH   1   7
BRANCH   4  23
ATOM     23  C   UNL     1      44.626   3.485  10.810  0.00  0.00    +0.000 C 
BRANCH  23  24
ATOM     24  C   UNL     1      43.250   3.361  11.495  0.00  0.00    +0.000 C 
BRANCH  24  25
ATOM     25  O   UNL     1      42.891   2.003  11.739  0.00  0.00    +0.000 OA
ATOM     26  H   UNL     1      42.340   1.723  10.987  0.00  0.00    +0.000 HD
ENDBRANCH  24  25
ENDBRANCH  23  24
BRANCH  23  27
ATOM     27  C   UNL     1      44.450   3.686   9.281  0.00  0.00    +0.000 C 
BRANCH  27  28
ATOM     28  C   UNL     1      45.485   2.981   8.428  0.00  0.00    +0.000 A 
ATOM     29  C   UNL     1      45.702   1.602   8.555  0.00  0.00    +0.000 A 
ATOM     30  C   UNL     1      46.671   0.963   7.778  0.00  0.00    +0.000 A 
ATOM     31  C   UNL     1      47.429   1.691   6.865  0.00  0.00    +0.000 A 
ATOM     32  C   UNL     1      47.218   3.059   6.722  0.00  0.00    +0.000 A 
ATOM     33  C   UNL     1      46.248   3.700   7.495  0.00  0.00    +0.000 A 
ENDBRANCH  27  28
ENDBRANCH  23  27
ENDBRANCH   4  23
TORSDOF 8
ENDMDL
MODEL 2
REMARK VINA RESULT:    -8.189      1.204      1.540
REMARK INTER + INTRA:         -13.033
REMARK INTER:                 -11.746
REMARK INTRA:                  -1.286
REMARK UNBOUND:                -1.253
REMARK  Name = 
REMARK  8 active torsions:
REMARK  status: ('A' for Active; 'I' for Inactive)
REMARK    1  A    between atoms: C_2  and  C_21
REMARK    2  A    between atoms: N_3  and  C_4
REMARK    3  A    between atoms: C_4  and  C_5
REMARK    4  A    between atoms: C_8  and  C_9
REMARK    5  A    between atoms: C_9  and  C_10
REMARK    6  A    between atoms: C_9  and  C_12
REMARK    7  A    between atoms: C_10  and  O_11
REMARK    8  A    between atoms: C_12  and  C_13
REMARK                            x       y       z     vdW  Elec       q    Type
REMARK                         _______ _______ _______ _____ _____    ______ ____
ROOT
ATOM      1  C   UNL     1      47.485   6.127  13.260  0.00  0.00    +0.000 A 
ATOM      2  C   UNL     1      46.934   6.699  12.107  0.00  0.00    +0.000 A 
ATOM      3  C   UNL     1      45.800   6.142  11.509  0.00  0.00    +0.000 A 
ATOM      4  C   UNL     1      45.186   5.006  12.057  0.00  0.00    +0.000 A 
ATOM      5  C   UNL     1      45.766   4.420  13.192  0.00  0.00    +0.000 A 
ATOM      6  C   UNL     1      46.886   4.985  13.799  0.00  0.00    +0.000 A 
ENDROOT
BRANCH   1   7
ATOM      7  C   UNL     1      48.668   6.760  13.940  0.00  0.00    +0.000 C 
BRANCH   7  10
ATOM      8  O   UNL     1      50.523   6.240  15.986  0.00  0.00    +0.000 OA
ATOM      9  C   UNL     1      49.408   6.661  16.288  0.00  0.00    +0.000 C 
ATOM     10  N   UNL     1      48.435   6.897  15.355  0.00  0.00    +0.000 N 
ATOM     11  H   UNL     1      47.612   7.429  15.624  0.00  0.00    +0.000 HD
BRANCH   9  12
ATOM     12  C   UNL     1      49.028   6.879  17.691  0.00  0.00    +0.000 A 
ATOM     13  C   UNL     1      48.724   8.160  18.127  0.00  0.00    +0.000 A 
ATOM     14  S   UNL     1      48.321   8.243  19.781  0.00  0.00    +0.000 S 
ATOM     15  C   UNL     1      48.495   6.560  19.964  0.00  0.00    +0.000 A 
ATOM     16  N   UNL     1      48.254   5.961  21.161  0.00  0.00    +0.000 NA
ATOM     17  C   UNL     1      48.386   4.676  21.148  0.00  0.00    +0.000 A 
ATOM     18  N   UNL     1      48.747   3.939  20.051  0.00  0.00    +0.000 N 
ATOM     19  C   UNL     1      49.083   4.510  18.847  0.00  0.00    +0.000 A 
ATOM     20  O   UNL     1      49.552   3.837  17.934  0.00  0.00    +0.000 OA
ATOM     21  C   UNL     1      48.890   5.948  18.787  0.00  0.00    +0.000 A 
ATOM     22  H   UNL     1      48.872   2.940  20.118  0.00  0.00    +0.000 HD
ENDBRANCH   9  12
ENDBRANCH   7  10
ENDBRANCH   1   7
BRANCH   4  23
ATOM     23  C   UNL     1      43.927   4.435  11.409  0.00  0.00    +0.000 C 
BRANCH  23  24
ATOM     24  C   UNL     1      42.666   5.003  12.090  0.00  0.00    +0.000 C 
BRANCH  24  25
ATOM     25  O   UNL     1      42.285   6.267  11.550  0.00  0.00    +0.000 OA
ATOM     26  H   UNL     1      42.698   6.944  12.114  0.00  0.00    +0.000 HD
ENDBRANCH  24  25
ENDBRANCH  23  24
BRANCH  23  27
ATOM     27  C   UNL     1      43.841   4.626   9.871  0.00  0.00    +0.000 C 
BRANCH  27  28
ATOM     28  C   UNL     1      44.779   3.745   9.072  0.00  0.00    +0.000 A 
ATOM     29  C   UNL     1      44.810   2.359   9.276  0.00  0.00    +0.000 A 
ATOM     30  C   UNL     1      45.690   1.554   8.548  0.00  0.00    +0.000 A 
ATOM     31  C   UNL     1      46.544   2.123   7.607  0.00  0.00    +0.000 A 
ATOM     32  C   UNL     1      46.517   3.498   7.387  0.00  0.00    +0.000 A 
ATOM     33  C   UNL     1      45.637   4.303   8.112  0.00  0.00    +0.000 A 
ENDBRANCH  27  28
ENDBRANCH  23  27
ENDBRANCH   4  23
TORSDOF 8
ENDMDL
MODEL 3
REMARK VINA RESULT:    -8.159      1.758      2.588
REMARK INTER + INTRA:         -12.989
REMARK INTER:                 -11.534
REMARK INTRA:                  -1.456
REMARK UNBOUND:                -1.253
REMARK  Name = 
REMARK  8 active torsions:
REMARK  status: ('A' for Active; 'I' for Inactive)
REMARK    1  A    between atoms: C_2  and  C_21
REMARK    2  A    between atoms: N_3  and  C_4
REMARK    3  A    between atoms: C_4  and  C_5
REMARK    4  A    between atoms: C_8  and  C_9
REMARK    5  A    between atoms: C_9  and  C_10
REMARK    6  A    between atoms: C_9  and  C_12
REMARK    7  A    between atoms: C_10  and  O_11
REMARK    8  A    between atoms: C_12  and  C_13
REMARK                            x       y       z     vdW  Elec       q    Type
REMARK                         _______ _______ _______ _____ _____    ______ ____
ROOT
ATOM      1  C   UNL     1      47.406   6.208  13.139  0.00  0.00    +0.000 A 
ATOM      2  C   UNL     1      46.986   6.717  11.904  0.00  0.00    +0.000 A 
ATOM      3  C   UNL     1      45.972   6.082  11.181  0.00  0.00    +0.000 A 
ATOM      4  C   UNL     1      45.349   4.930  11.682  0.00  0.00    +0.000 A 
ATOM      5  C   UNL     1      45.800   4.408  12.904  0.00  0.00    +0.000 A 
ATOM      6  C   UNL     1      46.799   5.050  13.634  0.00  0.00    +0.000 A 
ENDROOT
BRANCH   1   7
ATOM      7  C   UNL     1      48.454   6.923  13.946  0.00  0.00    +0.000 C 
BRANCH   7  10
ATOM      8  O   UNL     1      50.213   6.147  15.997  0.00  0.00    +0.000 OA
ATOM      9  C   UNL     1      49.078   6.512  16.295  0.00  0.00    +0.000 C 
ATOM     10  N   UNL     1      48.149   6.864  15.353  0.00  0.00    +0.000 N 
ATOM     11  H   UNL     1      47.305   7.346  15.649  0.00  0.00    +0.000 HD
BRANCH   9  12
ATOM     12  C   UNL     1      48.625   6.532  17.692  0.00  0.00    +0.000 A 
ATOM     13  C   UNL     1      48.674   5.368  18.445  0.00  0.00    +0.000 A 
ATOM     14  S   UNL     1      48.097   5.557  20.038  0.00  0.00    +0.000 S 
ATOM     15  C   UNL     1      47.803   7.215  19.793  0.00  0.00    +0.000 A 
ATOM     16  N   UNL     1      47.326   7.995  20.800  0.00  0.00    +0.000 NA
ATOM     17  C   UNL     1      47.186   9.240  20.488  0.00  0.00    +0.000 A 
ATOM     18  N   UNL     1      47.471   9.774  19.259  0.00  0.00    +0.000 N 
ATOM     19  C   UNL     1      47.873   9.010  18.189  0.00  0.00    +0.000 A 
ATOM     20  O   UNL     1      47.969   9.492  17.065  0.00  0.00    +0.000 OA
ATOM     21  C   UNL     1      48.108   7.611  18.502  0.00  0.00    +0.000 A 
ATOM     22  H   UNL     1      47.302  10.749  19.068  0.00  0.00    +0.000 HD
ENDBRANCH   9  12
ENDBRANCH   7  10
ENDBRANCH   1   7
BRANCH   4  23
ATOM     23  C   UNL     1      44.218   4.274  10.894  0.00  0.00    +0.000 C 
BRANCH  23  24
ATOM     24  C   UNL     1      42.848   4.740  11.427  0.00  0.00    +0.000 C 
BRANCH  24  25
ATOM     25  O   UNL     1      42.504   6.042  10.961  0.00  0.00    +0.000 OA
ATOM     26  H   UNL     1      41.563   6.006  10.709  0.00  0.00    +0.000 HD
ENDBRANCH  24  25
ENDBRANCH  23  24
BRANCH  23  27
ATOM     27  C   UNL     1      44.294   4.472   9.357  0.00  0.00    +0.000 C 
BRANCH  27  28
ATOM     28  C   UNL     1      45.231   3.520   8.642  0.00  0.00    +0.000 A 
ATOM     29  C   UNL     1      45.216   2.148   8.929  0.00  0.00    +0.000 A 
ATOM     30  C   UNL     1      46.095   1.278   8.279  0.00  0.00    +0.000 A 
ATOM     31  C   UNL     1      46.994   1.768   7.335  0.00  0.00    +0.000 A 
ATOM     32  C   UNL     1      47.013   3.127   7.034  0.00  0.00    +0.000 A 
ATOM     33  C   UNL     1      46.134   3.997   7.680  0.00  0.00    +0.000 A 
ENDBRANCH  27  28
ENDBRANCH  23  27
ENDBRANCH   4  23
TORSDOF 8
ENDMDL
MODEL 4
REMARK VINA RESULT:    -7.831      1.474      2.046
REMARK INTER + INTRA:         -12.518
REMARK INTER:                 -11.352
REMARK INTRA:                  -1.166
REMARK UNBOUND:                -1.253
REMARK  Name = 
REMARK  8 active torsions:
REMARK  status: ('A' for Active; 'I' for Inactive)
REMARK    1  A    between atoms: C_2  and  C_21
REMARK    2  A    between atoms: N_3  and  C_4
REMARK    3  A    between atoms: C_4  and  C_5
REMARK    4  A    between atoms: C_8  and  C_9
REMARK    5  A    between atoms: C_9  and  C_10
REMARK    6  A    between atoms: C_9  and  C_12
REMARK    7  A    between atoms: C_10  and  O_11
REMARK    8  A    between atoms: C_12  and  C_13
REMARK                            x       y       z     vdW  Elec       q    Type
REMARK                         _______ _______ _______ _____ _____    ______ ____
ROOT
ATOM      1  C   UNL     1      47.095   6.237  13.206  0.00  0.00    +0.000 A 
ATOM      2  C   UNL     1      46.653   6.614  11.933  0.00  0.00    +0.000 A 
ATOM      3  C   UNL     1      45.886   5.738  11.158  0.00  0.00    +0.000 A 
ATOM      4  C   UNL     1      45.536   4.471  11.645  0.00  0.00    +0.000 A 
ATOM      5  C   UNL     1      46.012   4.089  12.908  0.00  0.00    +0.000 A 
ATOM      6  C   UNL     1      46.763   4.967  13.688  0.00  0.00    +0.000 A 
ENDROOT
BRANCH   1   7
ATOM      7  C   UNL     1      47.869   7.199  14.065  0.00  0.00    +0.000 C 
BRANCH   7  10
ATOM      8  O   UNL     1      49.163   8.448  16.225  0.00  0.00    +0.000 OA
ATOM      9  C   UNL     1      48.926   7.244  16.290  0.00  0.00    +0.000 C 
ATOM     10  N   UNL     1      48.339   6.554  15.264  0.00  0.00    +0.000 N 
ATOM     11  H   UNL     1      47.983   5.619  15.439  0.00  0.00    +0.000 HD
BRANCH   9  12
ATOM     12  C   UNL     1      49.321   6.451  17.462  0.00  0.00    +0.000 A 
ATOM     13  C   UNL     1      50.292   5.468  17.330  0.00  0.00    +0.000 A 
ATOM     14  S   UNL     1      50.622   4.630  18.777  0.00  0.00    +0.000 S 
ATOM     15  C   UNL     1      49.510   5.583  19.646  0.00  0.00    +0.000 A 
ATOM     16  N   UNL     1      49.330   5.399  20.981  0.00  0.00    +0.000 NA
ATOM     17  C   UNL     1      48.487   6.215  21.520  0.00  0.00    +0.000 A 
ATOM     18  N   UNL     1      47.801   7.189  20.845  0.00  0.00    +0.000 N 
ATOM     19  C   UNL     1      47.887   7.354  19.482  0.00  0.00    +0.000 A 
ATOM     20  O   UNL     1      47.144   8.129  18.888  0.00  0.00    +0.000 OA
ATOM     21  C   UNL     1      48.870   6.503  18.834  0.00  0.00    +0.000 A 
ATOM     22  H   UNL     1      47.125   7.769  21.318  0.00  0.00    +0.000 HD
ENDBRANCH   9  12
ENDBRANCH   7  10
ENDBRANCH   1   7
BRANCH   4  23
ATOM     23  C   UNL     1      44.666   3.545  10.799  0.00  0.00    +0.000 C 
BRANCH  23  24
ATOM     24  C   UNL     1      43.251   3.434  11.401  0.00  0.00    +0.000 C 
BRANCH  24  25
ATOM     25  O   UNL     1      42.896   2.086  11.699  0.00  0.00    +0.000 OA
ATOM     26  H   UNL     1      42.687   1.661  10.848  0.00  0.00    +0.000 HD
ENDBRANCH  24  25
ENDBRANCH  23  24
BRANCH  23  27
ATOM     27  C   UNL     1      44.584   3.921   9.295  0.00  0.00    +0.000 C 
BRANCH  27  28
ATOM     28  C   UNL     1      45.502   3.123   8.393  0.00  0.00    +0.000 A 
ATOM     29  C   UNL     1      45.730   1.759   8.625  0.00  0.00    +0.000 A 
ATOM     30  C   UNL     1      46.591   1.034   7.800  0.00  0.00    +0.000 A 
ATOM     31  C   UNL     1      47.232   1.659   6.733  0.00  0.00    +0.000 A 
ATOM     32  C   UNL     1      47.008   3.011   6.485  0.00  0.00    +0.000 A 
ATOM     33  C   UNL     1      46.144   3.737   7.307  0.00  0.00    +0.000 A 
ENDBRANCH  27  28
ENDBRANCH  23  27
ENDBRANCH   4  23
TORSDOF 8
ENDMDL
MODEL 5
REMARK VINA RESULT:    -7.663      3.831      4.684
REMARK INTER + INTRA:         -12.276
REMARK INTER:                 -10.722
REMARK INTRA:                  -1.555
REMARK UNBOUND:                -1.253
REMARK  Name = 
REMARK  8 active torsions:
REMARK  status: ('A' for Active; 'I' for Inactive)
REMARK    1  A    between atoms: C_2  and  C_21
REMARK    2  A    between atoms: N_3  and  C_4
REMARK    3  A    between atoms: C_4  and  C_5
REMARK    4  A    between atoms: C_8  and  C_9
REMARK    5  A    between atoms: C_9  and  C_10
REMARK    6  A    between atoms: C_9  and  C_12
REMARK    7  A    between atoms: C_10  and  O_11
REMARK    8  A    between atoms: C_12  and  C_13
REMARK                            x       y       z     vdW  Elec       q    Type
REMARK                         _______ _______ _______ _____ _____    ______ ____
ROOT
ATOM      1  C   UNL     1      45.848   7.415  12.610  0.00  0.00    +0.000 A 
ATOM      2  C   UNL     1      45.041   7.235  11.481  0.00  0.00    +0.000 A 
ATOM      3  C   UNL     1      44.698   5.950  11.048  0.00  0.00    +0.000 A 
ATOM      4  C   UNL     1      45.148   4.818  11.742  0.00  0.00    +0.000 A 
ATOM      5  C   UNL     1      45.985   5.007  12.852  0.00  0.00    +0.000 A 
ATOM      6  C   UNL     1      46.313   6.288  13.295  0.00  0.00    +0.000 A 
ENDROOT
BRANCH   1   7
ATOM      7  C   UNL     1      46.167   8.796  13.112  0.00  0.00    +0.000 C 
BRANCH   7  10
ATOM      8  O   UNL     1      48.091   8.957  15.155  0.00  0.00    +0.000 OA
ATOM      9  C   UNL     1      48.448   9.114  13.990  0.00  0.00    +0.000 C 
ATOM     10  N   UNL     1      47.566   9.095  12.942  0.00  0.00    +0.000 N 
ATOM     11  H   UNL     1      47.927   9.026  11.995  0.00  0.00    +0.000 HD
BRANCH   9  12
ATOM     12  C   UNL     1      49.849   9.400  13.652  0.00  0.00    +0.000 A 
ATOM     13  C   UNL     1      50.548  10.353  14.380  0.00  0.00    +0.000 A 
ATOM     14  S   UNL     1      52.154  10.576  13.851  0.00  0.00    +0.000 S 
ATOM     15  C   UNL     1      51.986   9.374  12.659  0.00  0.00    +0.000 A 
ATOM     16  N   UNL     1      53.031   9.038  11.856  0.00  0.00    +0.000 NA
ATOM     17  C   UNL     1      52.777   8.085  11.023  0.00  0.00    +0.000 A 
ATOM     18  N   UNL     1      51.571   7.445  10.912  0.00  0.00    +0.000 N 
ATOM     19  C   UNL     1      50.464   7.809  11.642  0.00  0.00    +0.000 A 
ATOM     20  O   UNL     1      49.362   7.323  11.409  0.00  0.00    +0.000 OA
ATOM     21  C   UNL     1      50.711   8.835  12.640  0.00  0.00    +0.000 A 
ATOM     22  H   UNL     1      51.425   6.734  10.212  0.00  0.00    +0.000 HD
ENDBRANCH   9  12
ENDBRANCH   7  10
ENDBRANCH   1   7
BRANCH   4  23
ATOM     23  C   UNL     1      44.733   3.425  11.275  0.00  0.00    +0.000 C 
BRANCH  23  24
ATOM     24  C   UNL     1      43.709   2.812  12.252  0.00  0.00    +0.000 C 
BRANCH  24  25
ATOM     25  O   UNL     1      42.838   1.886  11.607  0.00  0.00    +0.000 OA
ATOM     26  H   UNL     1      42.407   2.371  10.881  0.00  0.00    +0.000 HD
ENDBRANCH  24  25
ENDBRANCH  23  24
BRANCH  23  27
ATOM     27  C   UNL     1      44.196   3.358   9.821  0.00  0.00    +0.000 C 
BRANCH  27  28
ATOM     28  C   UNL     1      45.228   2.961   8.785  0.00  0.00    +0.000 A 
ATOM     29  C   UNL     1      45.683   1.638   8.695  0.00  0.00    +0.000 A 
ATOM     30  C   UNL     1      46.647   1.282   7.749  0.00  0.00    +0.000 A 
ATOM     31  C   UNL     1      47.164   2.240   6.881  0.00  0.00    +0.000 A 
ATOM     32  C   UNL     1      46.714   3.556   6.952  0.00  0.00    +0.000 A 
ATOM     33  C   UNL     1      45.749   3.913   7.895  0.00  0.00    +0.000 A 
ENDBRANCH  27  28
ENDBRANCH  23  27
ENDBRANCH   4  23
TORSDOF 8
ENDMDL
MODEL 6
REMARK VINA RESULT:    -7.643      1.818      2.203
REMARK INTER + INTRA:         -12.247
REMARK INTER:                 -10.880
REMARK INTRA:                  -1.367
REMARK UNBOUND:                -1.253
REMARK  Name = 
REMARK  8 active torsions:
REMARK  status: ('A' for Active; 'I' for Inactive)
REMARK    1  A    between atoms: C_2  and  C_21
REMARK    2  A    between atoms: N_3  and  C_4
REMARK    3  A    between atoms: C_4  and  C_5
REMARK    4  A    between atoms: C_8  and  C_9
REMARK    5  A    between atoms: C_9  and  C_10
REMARK    6  A    between atoms: C_9  and  C_12
REMARK    7  A    between atoms: C_10  and  O_11
REMARK    8  A    between atoms: C_12  and  C_13
REMARK                            x       y       z     vdW  Elec       q    Type
REMARK                         _______ _______ _______ _____ _____    ______ ____
ROOT
ATOM      1  C   UNL     1      47.056   6.633  13.039  0.00  0.00    +0.000 A 
ATOM      2  C   UNL     1      46.495   6.879  11.781  0.00  0.00    +0.000 A 
ATOM      3  C   UNL     1      45.713   5.909  11.148  0.00  0.00    +0.000 A 
ATOM      4  C   UNL     1      45.465   4.674  11.766  0.00  0.00    +0.000 A 
ATOM      5  C   UNL     1      46.060   4.423  13.012  0.00  0.00    +0.000 A 
ATOM      6  C   UNL     1      46.826   5.397  13.651  0.00  0.00    +0.000 A 
ENDROOT
BRANCH   1   7
ATOM      7  C   UNL     1      47.847   7.697  13.749  0.00  0.00    +0.000 C 
BRANCH   7  10
ATOM      8  O   UNL     1      48.694   8.334  16.352  0.00  0.00    +0.000 OA
ATOM      9  C   UNL     1      49.296   7.463  15.728  0.00  0.00    +0.000 C 
ATOM     10  N   UNL     1      48.973   7.125  14.441  0.00  0.00    +0.000 N 
ATOM     11  H   UNL     1      49.358   6.273  14.043  0.00  0.00    +0.000 HD
BRANCH   9  12
ATOM     12  C   UNL     1      50.452   6.767  16.310  0.00  0.00    +0.000 A 
ATOM     13  C   UNL     1      51.667   7.429  16.418  0.00  0.00    +0.000 A 
ATOM     14  S   UNL     1      52.908   6.478  17.098  0.00  0.00    +0.000 S 
ATOM     15  C   UNL     1      51.853   5.160  17.315  0.00  0.00    +0.000 A 
ATOM     16  N   UNL     1      52.286   4.009  17.896  0.00  0.00    +0.000 NA
ATOM     17  C   UNL     1      51.373   3.107  18.033  0.00  0.00    +0.000 A 
ATOM     18  N   UNL     1      50.070   3.247  17.635  0.00  0.00    +0.000 N 
ATOM     19  C   UNL     1      49.609   4.357  16.968  0.00  0.00    +0.000 A 
ATOM     20  O   UNL     1      48.481   4.386  16.486  0.00  0.00    +0.000 OA
ATOM     21  C   UNL     1      50.580   5.430  16.842  0.00  0.00    +0.000 A 
ATOM     22  H   UNL     1      49.415   2.487  17.736  0.00  0.00    +0.000 HD
ENDBRANCH   9  12
ENDBRANCH   7  10
ENDBRANCH   1   7
BRANCH   4  23
ATOM     23  C   UNL     1      44.578   3.642  11.074  0.00  0.00    +0.000 C 
BRANCH  23  24
ATOM     24  C   UNL     1      43.229   3.512  11.810  0.00  0.00    +0.000 C 
BRANCH  24  25
ATOM     25  O   UNL     1      42.404   4.660  11.629  0.00  0.00    +0.000 OA
ATOM     26  H   UNL     1      42.385   4.839  10.671  0.00  0.00    +0.000 HD
ENDBRANCH  24  25
ENDBRANCH  23  24
BRANCH  23  27
ATOM     27  C   UNL     1      44.344   3.893   9.561  0.00  0.00    +0.000 C 
BRANCH  27  28
ATOM     28  C   UNL     1      45.332   3.200   8.645  0.00  0.00    +0.000 A 
ATOM     29  C   UNL     1      45.560   1.821   8.748  0.00  0.00    +0.000 A 
ATOM     30  C   UNL     1      46.485   1.191   7.913  0.00  0.00    +0.000 A 
ATOM     31  C   UNL     1      47.189   1.929   6.965  0.00  0.00    +0.000 A 
ATOM     32  C   UNL     1      46.965   3.298   6.845  0.00  0.00    +0.000 A 
ATOM     33  C   UNL     1      46.039   3.929   7.677  0.00  0.00    +0.000 A 
ENDBRANCH  27  28
ENDBRANCH  23  27
ENDBRANCH   4  23
TORSDOF 8
ENDMDL
MODEL 7
REMARK VINA RESULT:    -7.283      1.393      1.787
REMARK INTER + INTRA:         -11.729
REMARK INTER:                 -10.413
REMARK INTRA:                  -1.315
REMARK UNBOUND:                -1.253
REMARK  Name = 
REMARK  8 active torsions:
REMARK  status: ('A' for Active; 'I' for Inactive)
REMARK    1  A    between atoms: C_2  and  C_21
REMARK    2  A    between atoms: N_3  and  C_4
REMARK    3  A    between atoms: C_4  and  C_5
REMARK    4  A    between atoms: C_8  and  C_9
REMARK    5  A    between atoms: C_9  and  C_10
REMARK    6  A    between atoms: C_9  and  C_12
REMARK    7  A    between atoms: C_10  and  O_11
REMARK    8  A    between atoms: C_12  and  C_13
REMARK                            x       y       z     vdW  Elec       q    Type
REMARK                         _______ _______ _______ _____ _____    ______ ____
ROOT
ATOM      1  C   UNL     1      47.202   7.301  13.582  0.00  0.00    +0.000 A 
ATOM      2  C   UNL     1      47.521   5.954  13.787  0.00  0.00    +0.000 A 
ATOM      3  C   UNL     1      46.800   4.946  13.140  0.00  0.00    +0.000 A 
ATOM      4  C   UNL     1      45.752   5.264  12.266  0.00  0.00    +0.000 A 
ATOM      5  C   UNL     1      45.417   6.616  12.093  0.00  0.00    +0.000 A 
ATOM      6  C   UNL     1      46.146   7.622  12.724  0.00  0.00    +0.000 A 
ENDROOT
BRANCH   1   7
ATOM      7  C   UNL     1      48.015   8.389  14.229  0.00  0.00    +0.000 C 
BRANCH   7  10
ATOM      8  O   UNL     1      50.059   8.854  16.102  0.00  0.00    +0.000 OA
ATOM      9  C   UNL     1      48.921   8.626  16.508  0.00  0.00    +0.000 C 
ATOM     10  N   UNL     1      47.881   8.347  15.663  0.00  0.00    +0.000 N 
ATOM     11  H   UNL     1      46.933   8.366  16.026  0.00  0.00    +0.000 HD
BRANCH   9  12
ATOM     12  C   UNL     1      48.620   8.576  17.946  0.00  0.00    +0.000 A 
ATOM     13  C   UNL     1      48.744   9.726  18.712  0.00  0.00    +0.000 A 
ATOM     14  S   UNL     1      48.375   9.494  20.360  0.00  0.00    +0.000 S 
ATOM     15  C   UNL     1      47.992   7.857  20.101  0.00  0.00    +0.000 A 
ATOM     16  N   UNL     1      47.558   7.072  21.123  0.00  0.00    +0.000 NA
ATOM     17  C   UNL     1      47.266   5.863  20.779  0.00  0.00    +0.000 A 
ATOM     18  N   UNL     1      47.378   5.364  19.507  0.00  0.00    +0.000 N 
ATOM     19  C   UNL     1      47.892   6.095  18.462  0.00  0.00    +0.000 A 
ATOM     20  O   UNL     1      48.125   5.573  17.377  0.00  0.00    +0.000 OA
ATOM     21  C   UNL     1      48.178   7.483  18.781  0.00  0.00    +0.000 A 
ATOM     22  H   UNL     1      47.171   4.397  19.311  0.00  0.00    +0.000 HD
ENDBRANCH   9  12
ENDBRANCH   7  10
ENDBRANCH   1   7
BRANCH   4  23
ATOM     23  C   UNL     1      45.001   4.150  11.541  0.00  0.00    +0.000 C 
BRANCH  23  24
ATOM     24  C   UNL     1      43.746   3.739  12.337  0.00  0.00    +0.000 C 
BRANCH  24  25
ATOM     25  O   UNL     1      43.714   2.340  12.608  0.00  0.00    +0.000 OA
ATOM     26  H   UNL     1      42.789   2.057  12.489  0.00  0.00    +0.000 HD
ENDBRANCH  24  25
ENDBRANCH  23  24
BRANCH  23  27
ATOM     27  C   UNL     1      44.625   4.467  10.069  0.00  0.00    +0.000 C 
BRANCH  27  28
ATOM     28  C   UNL     1      45.382   3.658   9.036  0.00  0.00    +0.000 A 
ATOM     29  C   UNL     1      46.022   4.288   7.959  0.00  0.00    +0.000 A 
ATOM     30  C   UNL     1      46.703   3.534   7.000  0.00  0.00    +0.000 A 
ATOM     31  C   UNL     1      46.757   2.147   7.108  0.00  0.00    +0.000 A 
ATOM     32  C   UNL     1      46.135   1.509   8.178  0.00  0.00    +0.000 A 
ATOM     33  C   UNL     1      45.456   2.261   9.139  0.00  0.00    +0.000 A 
ENDBRANCH  27  28
ENDBRANCH  23  27
ENDBRANCH   4  23
TORSDOF 8
ENDMDL
MODEL 8
REMARK VINA RESULT:    -7.118      1.631      2.319
REMARK INTER + INTRA:         -11.491
REMARK INTER:                 -10.390
REMARK INTRA:                  -1.102
REMARK UNBOUND:                -1.253
REMARK  Name = 
REMARK  8 active torsions:
REMARK  status: ('A' for Active; 'I' for Inactive)
REMARK    1  A    between atoms: C_2  and  C_21
REMARK    2  A    between atoms: N_3  and  C_4
REMARK    3  A    between atoms: C_4  and  C_5
REMARK    4  A    between atoms: C_8  and  C_9
REMARK    5  A    between atoms: C_9  and  C_10
REMARK    6  A    between atoms: C_9  and  C_12
REMARK    7  A    between atoms: C_10  and  O_11
REMARK    8  A    between atoms: C_12  and  C_13
REMARK                            x       y       z     vdW  Elec       q    Type
REMARK                         _______ _______ _______ _____ _____    ______ ____
ROOT
ATOM      1  C   UNL     1      47.607   6.222  13.720  0.00  0.00    +0.000 A 
ATOM      2  C   UNL     1      47.168   4.983  14.200  0.00  0.00    +0.000 A 
ATOM      3  C   UNL     1      46.241   4.227  13.476  0.00  0.00    +0.000 A 
ATOM      4  C   UNL     1      45.741   4.690  12.251  0.00  0.00    +0.000 A 
ATOM      5  C   UNL     1      46.161   5.948  11.794  0.00  0.00    +0.000 A 
ATOM      6  C   UNL     1      47.098   6.695  12.506  0.00  0.00    +0.000 A 
ENDROOT
BRANCH   1   7
ATOM      7  C   UNL     1      48.649   7.009  14.466  0.00  0.00    +0.000 C 
BRANCH   7  10
ATOM      8  O   UNL     1      49.971   5.465  16.408  0.00  0.00    +0.000 OA
ATOM      9  C   UNL     1      49.098   6.253  16.768  0.00  0.00    +0.000 C 
ATOM     10  N   UNL     1      48.379   7.008  15.881  0.00  0.00    +0.000 N 
ATOM     11  H   UNL     1      47.820   7.780  16.231  0.00  0.00    +0.000 HD
BRANCH   9  12
ATOM     12  C   UNL     1      48.727   6.386  18.183  0.00  0.00    +0.000 A 
ATOM     13  C   UNL     1      47.653   5.662  18.681  0.00  0.00    +0.000 A 
ATOM     14  S   UNL     1      47.344   5.943  20.334  0.00  0.00    +0.000 S 
ATOM     15  C   UNL     1      48.665   7.008  20.456  0.00  0.00    +0.000 A 
ATOM     16  N   UNL     1      48.985   7.587  21.644  0.00  0.00    +0.000 NA
ATOM     17  C   UNL     1      50.032   8.342  21.602  0.00  0.00    +0.000 A 
ATOM     18  N   UNL     1      50.781   8.578  20.479  0.00  0.00    +0.000 N 
ATOM     19  C   UNL     1      50.445   8.083  19.241  0.00  0.00    +0.000 A 
ATOM     20  O   UNL     1      51.044   8.439  18.231  0.00  0.00    +0.000 OA
ATOM     21  C   UNL     1      49.311   7.175  19.243  0.00  0.00    +0.000 A 
ATOM     22  H   UNL     1      51.566   9.210  20.505  0.00  0.00    +0.000 HD
ENDBRANCH   9  12
ENDBRANCH   7  10
ENDBRANCH   1   7
BRANCH   4  23
ATOM     23  C   UNL     1      44.758   3.832  11.458  0.00  0.00    +0.000 C 
BRANCH  23  24
ATOM     24  C   UNL     1      43.410   3.734  12.200  0.00  0.00    +0.000 C 
BRANCH  24  25
ATOM     25  O   UNL     1      43.348   2.596  13.057  0.00  0.00    +0.000 OA
ATOM     26  H   UNL     1      42.781   1.943  12.609  0.00  0.00    +0.000 HD
ENDBRANCH  24  25
ENDBRANCH  23  24
BRANCH  23  27
ATOM     27  C   UNL     1      44.533   4.285   9.991  0.00  0.00    +0.000 C 
BRANCH  27  28
ATOM     28  C   UNL     1      45.349   3.527   8.964  0.00  0.00    +0.000 A 
ATOM     29  C   UNL     1      45.981   4.201   7.909  0.00  0.00    +0.000 A 
ATOM     30  C   UNL     1      46.717   3.493   6.956  0.00  0.00    +0.000 A 
ATOM     31  C   UNL     1      46.834   2.109   7.047  0.00  0.00    +0.000 A 
ATOM     32  C   UNL     1      46.220   1.428   8.095  0.00  0.00    +0.000 A 
ATOM     33  C   UNL     1      45.486   2.134   9.050  0.00  0.00    +0.000 A 
ENDBRANCH  27  28
ENDBRANCH  23  27
ENDBRANCH   4  23
TORSDOF 8
ENDMDL
MODEL 9
REMARK VINA RESULT:    -6.754      2.836      3.729
REMARK INTER + INTRA:         -10.968
REMARK INTER:                  -9.792
REMARK INTRA:                  -1.176
REMARK UNBOUND:                -1.253
REMARK  Name = 
REMARK  8 active torsions:
REMARK  status: ('A' for Active; 'I' for Inactive)
REMARK    1  A    between atoms: C_2  and  C_21
REMARK    2  A    between atoms: N_3  and  C_4
REMARK    3  A    between atoms: C_4  and  C_5
REMARK    4  A    between atoms: C_8  and  C_9
REMARK    5  A    between atoms: C_9  and  C_10
REMARK    6  A    between atoms: C_9  and  C_12
REMARK    7  A    between atoms: C_10  and  O_11
REMARK    8  A    between atoms: C_12  and  C_13
REMARK                            x       y       z     vdW  Elec       q    Type
REMARK                         _______ _______ _______ _____ _____    ______ ____
ROOT
ATOM      1  C   UNL     1      46.378   7.393  12.939  0.00  0.00    +0.000 A 
ATOM      2  C   UNL     1      46.990   6.153  13.156  0.00  0.00    +0.000 A 
ATOM      3  C   UNL     1      46.428   4.982  12.637  0.00  0.00    +0.000 A 
ATOM      4  C   UNL     1      45.248   5.028  11.882  0.00  0.00    +0.000 A 
ATOM      5  C   UNL     1      44.623   6.271  11.699  0.00  0.00    +0.000 A 
ATOM      6  C   UNL     1      45.192   7.441  12.201  0.00  0.00    +0.000 A 
ENDROOT
BRANCH   1   7
ATOM      7  C   UNL     1      47.012   8.660  13.444  0.00  0.00    +0.000 C 
BRANCH   7  10
ATOM      8  O   UNL     1      47.732   9.162  16.115  0.00  0.00    +0.000 OA
ATOM      9  C   UNL     1      48.550   8.628  15.369  0.00  0.00    +0.000 C 
ATOM     10  N   UNL     1      48.293   8.390  14.046  0.00  0.00    +0.000 N 
ATOM     11  H   UNL     1      48.910   7.772  13.527  0.00  0.00    +0.000 HD
BRANCH   9  12
ATOM     12  C   UNL     1      49.893   8.267  15.844  0.00  0.00    +0.000 A 
ATOM     13  C   UNL     1      50.220   6.931  16.025  0.00  0.00    +0.000 A 
ATOM     14  S   UNL     1      51.807   6.685  16.596  0.00  0.00    +0.000 S 
ATOM     15  C   UNL     1      52.132   8.355  16.577  0.00  0.00    +0.000 A 
ATOM     16  N   UNL     1      53.356   8.831  16.929  0.00  0.00    +0.000 NA
ATOM     17  C   UNL     1      53.476  10.113  16.832  0.00  0.00    +0.000 A 
ATOM     18  N   UNL     1      52.480  10.963  16.426  0.00  0.00    +0.000 N 
ATOM     19  C   UNL     1      51.205  10.535  16.144  0.00  0.00    +0.000 A 
ATOM     20  O   UNL     1      50.298  11.335  15.936  0.00  0.00    +0.000 OA
ATOM     21  C   UNL     1      51.031   9.093  16.176  0.00  0.00    +0.000 A 
ATOM     22  H   UNL     1      52.627  11.960  16.410  0.00  0.00    +0.000 HD
ENDBRANCH   9  12
ENDBRANCH   7  10
ENDBRANCH   1   7
BRANCH   4  23
ATOM     23  C   UNL     1      44.671   3.743  11.293  0.00  0.00    +0.000 C 
BRANCH  23  24
ATOM     24  C   UNL     1      43.498   3.235  12.155  0.00  0.00    +0.000 C 
BRANCH  24  25
ATOM     25  O   UNL     1      42.905   2.056  11.616  0.00  0.00    +0.000 OA
ATOM     26  H   UNL     1      43.639   1.487  11.323  0.00  0.00    +0.000 HD
ENDBRANCH  24  25
ENDBRANCH  23  24
BRANCH  23  27
ATOM     27  C   UNL     1      44.243   3.842   9.805  0.00  0.00    +0.000 C 
BRANCH  27  28
ATOM     28  C   UNL     1      45.219   3.226   8.824  0.00  0.00    +0.000 A 
ATOM     29  C   UNL     1      45.864   4.014   7.861  0.00  0.00    +0.000 A 
ATOM     30  C   UNL     1      46.749   3.436   6.949  0.00  0.00    +0.000 A 
ATOM     31  C   UNL     1      47.004   2.068   6.991  0.00  0.00    +0.000 A 
ATOM     32  C   UNL     1      46.379   1.274   7.949  0.00  0.00    +0.000 A 
ATOM     33  C   UNL     1      45.495   1.851   8.863  0.00  0.00    +0.000 A 
ENDBRANCH  27  28
ENDBRANCH  23  27
ENDBRANCH   4  23
TORSDOF 8
ENDMDL
