MODEL 1
REMARK VINA RESULT:    -7.919      0.000      0.000
REMARK INTER + INTRA:         -12.378
REMARK INTER:                 -11.159
REMARK INTRA:                  -1.219
REMARK UNBOUND:                -1.219
REMARK  Name = 
REMARK  8 active torsions:
REMARK  status: ('A' for Active; 'I' for Inactive)
REMARK    1  A    between atoms: C_1  and  N_2
REMARK    2  A    between atoms: C_4  and  C_5
REMARK    3  A    between atoms: N_7  and  C_8
REMARK    4  A    between atoms: C_8  and  C_9
REMARK    5  A    between atoms: C_12  and  C_13
REMARK    6  A    between atoms: C_13  and  O_14
REMARK    7  A    between atoms: O_14  and  C_15
REMARK    8  A    between atoms: C_15  and  C_16
REMARK                            x       y       z     vdW  Elec       q    Type
REMARK                         _______ _______ _______ _____ _____    ______ ____
ROOT
ATOM      1  C   UNL     1      47.156   8.255  13.045  0.00  0.00    +0.000 C 
ENDROOT
BRANCH   1   2
ATOM      2  C   UNL     1      46.243   7.290  12.340  0.00  0.00    +0.000 A 
ATOM      3  C   UNL     1      46.656   6.638  11.171  0.00  0.00    +0.000 A 
ATOM      4  C   UNL     1      45.813   5.725  10.530  0.00  0.00    +0.000 A 
ATOM      5  C   UNL     1      44.537   5.452  11.037  0.00  0.00    +0.000 A 
ATOM      6  C   UNL     1      44.119   6.115  12.198  0.00  0.00    +0.000 A 
ATOM      7  C   UNL     1      44.961   7.027  12.841  0.00  0.00    +0.000 A 
BRANCH   5   8
ATOM      8  C   UNL     1      43.623   4.479  10.336  0.00  0.00    +0.000 C 
BRANCH   8   9
ATOM      9  O   UNL     1      44.230   4.049   9.121  0.00  0.00    +0.000 OA
BRANCH   9  10
ATOM     10  C   UNL     1      44.727   2.715   9.230  0.00  0.00    +0.000 C 
BRANCH  10  11
ATOM     11  C   UNL     1      45.751   2.447   8.163  0.00  0.00    +0.000 A 
ATOM     12  C   UNL     1      46.200   3.439   7.288  0.00  0.00    +0.000 A 
ATOM     13  C   UNL     1      47.173   3.140   6.340  0.00  0.00    +0.000 A 
ATOM     14  C   UNL     1      47.684   1.854   6.308  0.00  0.00    +0.000 A 
ATOM     15  N   UNL     1      47.295   0.871   7.149  0.00  0.00    +0.000 NA
ATOM     16  C   UNL     1      46.345   1.192   8.055  0.00  0.00    +0.000 A 
ENDBRANCH  10  11
ENDBRANCH   9  10
ENDBRANCH   8   9
ENDBRANCH   5   8
ENDBRANCH   1   2
BRANCH   1  19
ATOM     17  C   UNL     1      48.537   6.900  14.536  0.00  0.00    +0.000 C 
ATOM     18  O   UNL     1      49.232   6.523  13.600  0.00  0.00    +0.000 OA
ATOM     19  N   UNL     1      47.505   7.799  14.369  0.00  0.00    +0.000 N 
ATOM     20  H   UNL     1      46.885   8.006  15.138  0.00  0.00    +0.000 HD
BRANCH  17  24
ATOM     21  C   UNL     1      50.140   6.752  19.256  0.00  0.00    +0.000 C 
ATOM     22  N   UNL     1      49.484   6.387  18.022  0.00  0.00    +0.000 N 
ATOM     23  C   UNL     1      49.437   7.147  16.885  0.00  0.00    +0.000 A 
ATOM     24  C   UNL     1      48.742   6.439  15.908  0.00  0.00    +0.000 A 
ATOM     25  C   UNL     1      48.340   5.194  16.513  0.00  0.00    +0.000 A 
ATOM     26  C   UNL     1      47.628   4.038  16.194  0.00  0.00    +0.000 A 
ATOM     27 CL   UNL     1      46.865   3.854  14.692  0.00  0.00    +0.000 Cl
ATOM     28  N   UNL     1      47.440   3.040  17.077  0.00  0.00    +0.000 NA
ATOM     29  C   UNL     1      47.978   3.198  18.292  0.00  0.00    +0.000 A 
ATOM     30  N   UNL     1      48.677   4.247  18.748  0.00  0.00    +0.000 NA
ATOM     31  C   UNL     1      48.822   5.209  17.820  0.00  0.00    +0.000 A 
ENDBRANCH  17  24
ENDBRANCH   1  19
TORSDOF 7
ENDMDL
MODEL 2
REMARK VINA RESULT:    -7.645      2.089      2.750
REMARK INTER + INTRA:         -11.993
REMARK INTER:                 -10.886
REMARK INTRA:                  -1.107
REMARK UNBOUND:                -1.219
REMARK  Name = 
REMARK  8 active torsions:
REMARK  status: ('A' for Active; 'I' for Inactive)
REMARK    1  A    between atoms: C_1  and  N_2
REMARK    2  A    between atoms: C_4  and  C_5
REMARK    3  A    between atoms: N_7  and  C_8
REMARK    4  A    between atoms: C_8  and  C_9
REMARK    5  A    between atoms: C_12  and  C_13
REMARK    6  A    between atoms: C_13  and  O_14
REMARK    7  A    between atoms: O_14  and  C_15
REMARK    8  A    between atoms: C_15  and  C_16
REMARK                            x       y       z     vdW  Elec       q    Type
REMARK                         _______ _______ _______ _____ _____    ______ ____
ROOT
ATOM      1  C   UNL     1      48.226   6.606  13.738  0.00  0.00    +0.000 C 
ENDROOT
BRANCH   1   2
ATOM      2  C   UNL     1      46.993   6.122  13.025  0.00  0.00    +0.000 A 
ATOM      3  C   UNL     1      46.614   6.676  11.796  0.00  0.00    +0.000 A 
ATOM      4  C   UNL     1      45.479   6.209  11.124  0.00  0.00    +0.000 A 
ATOM      5  C   UNL     1      44.694   5.187  11.673  0.00  0.00    +0.000 A 
ATOM      6  C   UNL     1      45.066   4.644  12.910  0.00  0.00    +0.000 A 
ATOM      7  C   UNL     1      46.201   5.109  13.580  0.00  0.00    +0.000 A 
BRANCH   5   8
ATOM      8  C   UNL     1      43.462   4.696  10.956  0.00  0.00    +0.000 C 
BRANCH   8   9
ATOM      9  O   UNL     1      43.820   4.240   9.655  0.00  0.00    +0.000 OA
BRANCH   9  10
ATOM     10  C   UNL     1      44.353   2.916   9.694  0.00  0.00    +0.000 C 
BRANCH  10  11
ATOM     11  C   UNL     1      45.407   2.744   8.637  0.00  0.00    +0.000 A 
ATOM     12  C   UNL     1      45.912   3.817   7.898  0.00  0.00    +0.000 A 
ATOM     13  C   UNL     1      46.911   3.602   6.954  0.00  0.00    +0.000 A 
ATOM     14  C   UNL     1      47.390   2.313   6.789  0.00  0.00    +0.000 A 
ATOM     15  N   UNL     1      46.948   1.252   7.498  0.00  0.00    +0.000 NA
ATOM     16  C   UNL     1      45.974   1.494   8.404  0.00  0.00    +0.000 A 
ENDBRANCH  10  11
ENDBRANCH   9  10
ENDBRANCH   8   9
ENDBRANCH   5   8
ENDBRANCH   1   2
BRANCH   1  19
ATOM     17  C   UNL     1      49.165   6.520  15.991  0.00  0.00    +0.000 C 
ATOM     18  O   UNL     1      50.308   6.537  15.549  0.00  0.00    +0.000 OA
ATOM     19  N   UNL     1      48.060   6.596  15.171  0.00  0.00    +0.000 N 
ATOM     20  H   UNL     1      47.135   6.470  15.557  0.00  0.00    +0.000 HD
BRANCH  17  24
ATOM     21  C   UNL     1      48.636   4.599  20.563  0.00  0.00    +0.000 C 
ATOM     22  N   UNL     1      48.631   5.536  19.464  0.00  0.00    +0.000 N 
ATOM     23  C   UNL     1      49.072   5.283  18.194  0.00  0.00    +0.000 A 
ATOM     24  C   UNL     1      48.873   6.424  17.420  0.00  0.00    +0.000 A 
ATOM     25  C   UNL     1      48.296   7.415  18.294  0.00  0.00    +0.000 A 
ATOM     26  C   UNL     1      47.864   8.740  18.259  0.00  0.00    +0.000 A 
ATOM     27 CL   UNL     1      48.027   9.688  16.864  0.00  0.00    +0.000 Cl
ATOM     28  N   UNL     1      47.366   9.365  19.342  0.00  0.00    +0.000 NA
ATOM     29  C   UNL     1      47.293   8.652  20.472  0.00  0.00    +0.000 A 
ATOM     30  N   UNL     1      47.672   7.380  20.663  0.00  0.00    +0.000 NA
ATOM     31  C   UNL     1      48.166   6.819  19.546  0.00  0.00    +0.000 A 
ENDBRANCH  17  24
ENDBRANCH   1  19
TORSDOF 7
ENDMDL
MODEL 3
REMARK VINA RESULT:    -7.537      1.784      2.094
REMARK INTER + INTRA:         -11.841
REMARK INTER:                 -11.030
REMARK INTRA:                  -0.811
REMARK UNBOUND:                -1.219
REMARK  Name = 
REMARK  8 active torsions:
REMARK  status: ('A' for Active; 'I' for Inactive)
REMARK    1  A    between atoms: C_1  and  N_2
REMARK    2  A    between atoms: C_4  and  C_5
REMARK    3  A    between atoms: N_7  and  C_8
REMARK    4  A    between atoms: C_8  and  C_9
REMARK    5  A    between atoms: C_12  and  C_13
REMARK    6  A    between atoms: C_13  and  O_14
REMARK    7  A    between atoms: O_14  and  C_15
REMARK    8  A    between atoms: C_15  and  C_16
REMARK                            x       y       z     vdW  Elec       q    Type
REMARK                         _______ _______ _______ _____ _____    ______ ____
ROOT
ATOM      1  C   UNL     1      48.280   6.759  13.478  0.00  0.00    +0.000 C 
ENDROOT
BRANCH   1   2
ATOM      2  C   UNL     1      47.068   6.169  12.810  0.00  0.00    +0.000 A 
ATOM      3  C   UNL     1      46.395   6.871  11.801  0.00  0.00    +0.000 A 
ATOM      4  C   UNL     1      45.282   6.311  11.167  0.00  0.00    +0.000 A 
ATOM      5  C   UNL     1      44.812   5.044  11.534  0.00  0.00    +0.000 A 
ATOM      6  C   UNL     1      45.477   4.349  12.553  0.00  0.00    +0.000 A 
ATOM      7  C   UNL     1      46.591   4.907  13.187  0.00  0.00    +0.000 A 
BRANCH   5   8
ATOM      8  C   UNL     1      43.601   4.448  10.860  0.00  0.00    +0.000 C 
BRANCH   8   9
ATOM      9  O   UNL     1      44.018   3.447   9.937  0.00  0.00    +0.000 OA
BRANCH   9  10
ATOM     10  C   UNL     1      44.554   4.025   8.747  0.00  0.00    +0.000 C 
BRANCH  10  11
ATOM     11  C   UNL     1      45.541   3.089   8.108  0.00  0.00    +0.000 A 
ATOM     12  C   UNL     1      46.444   3.506   7.126  0.00  0.00    +0.000 A 
ATOM     13  C   UNL     1      47.356   2.601   6.592  0.00  0.00    +0.000 A 
ATOM     14  C   UNL     1      47.349   1.303   7.072  0.00  0.00    +0.000 A 
ATOM     15  N   UNL     1      46.510   0.863   8.034  0.00  0.00    +0.000 NA
ATOM     16  C   UNL     1      45.632   1.765   8.530  0.00  0.00    +0.000 A 
ENDBRANCH  10  11
ENDBRANCH   9  10
ENDBRANCH   8   9
ENDBRANCH   5   8
ENDBRANCH   1   2
BRANCH   1  19
ATOM     17  C   UNL     1      48.986   6.943  15.810  0.00  0.00    +0.000 C 
ATOM     18  O   UNL     1      50.110   6.542  15.533  0.00  0.00    +0.000 OA
ATOM     19  N   UNL     1      48.015   7.128  14.848  0.00  0.00    +0.000 N 
ATOM     20  H   UNL     1      47.070   7.354  15.121  0.00  0.00    +0.000 HD
BRANCH  17  24
ATOM     21  C   UNL     1      47.556   9.588  19.789  0.00  0.00    +0.000 C 
ATOM     22  N   UNL     1      47.945   8.476  18.953  0.00  0.00    +0.000 N 
ATOM     23  C   UNL     1      48.201   8.534  17.610  0.00  0.00    +0.000 A 
ATOM     24  C   UNL     1      48.576   7.266  17.175  0.00  0.00    +0.000 A 
ATOM     25  C   UNL     1      48.519   6.404  18.330  0.00  0.00    +0.000 A 
ATOM     26  C   UNL     1      48.718   5.067  18.668  0.00  0.00    +0.000 A 
ATOM     27 CL   UNL     1      49.100   3.904  17.497  0.00  0.00    +0.000 Cl
ATOM     28  N   UNL     1      48.546   4.607  19.921  0.00  0.00    +0.000 NA
ATOM     29  C   UNL     1      48.177   5.498  20.848  0.00  0.00    +0.000 A 
ATOM     30  N   UNL     1      47.942   6.807  20.677  0.00  0.00    +0.000 NA
ATOM     31  C   UNL     1      48.125   7.198  19.404  0.00  0.00    +0.000 A 
ENDBRANCH  17  24
ENDBRANCH   1  19
TORSDOF 7
ENDMDL
MODEL 4
REMARK VINA RESULT:    -6.883      3.822      5.830
REMARK INTER + INTRA:         -10.920
REMARK INTER:                  -9.722
REMARK INTRA:                  -1.197
REMARK UNBOUND:                -1.219
REMARK  Name = 
REMARK  8 active torsions:
REMARK  status: ('A' for Active; 'I' for Inactive)
REMARK    1  A    between atoms: C_1  and  N_2
REMARK    2  A    between atoms: C_4  and  C_5
REMARK    3  A    between atoms: N_7  and  C_8
REMARK    4  A    between atoms: C_8  and  C_9
REMARK    5  A    between atoms: C_12  and  C_13
REMARK    6  A    between atoms: C_13  and  O_14
REMARK    7  A    between atoms: O_14  and  C_15
REMARK    8  A    between atoms: C_15  and  C_16
REMARK                            x       y       z     vdW  Elec       q    Type
REMARK                         _______ _______ _______ _____ _____    ______ ____
ROOT
ATOM      1  C   UNL     1      48.437   6.634  13.447  0.00  0.00    +0.000 C 
ENDROOT
BRANCH   1   2
ATOM      2  C   UNL     1      47.208   6.083  12.775  0.00  0.00    +0.000 A 
ATOM      3  C   UNL     1      46.507   5.009  13.338  0.00  0.00    +0.000 A 
ATOM      4  C   UNL     1      45.353   4.512  12.723  0.00  0.00    +0.000 A 
ATOM      5  C   UNL     1      44.883   5.072  11.528  0.00  0.00    +0.000 A 
ATOM      6  C   UNL     1      45.594   6.136  10.958  0.00  0.00    +0.000 A 
ATOM      7  C   UNL     1      46.746   6.634  11.573  0.00  0.00    +0.000 A 
BRANCH   5   8
ATOM      8  C   UNL     1      43.648   4.525  10.857  0.00  0.00    +0.000 C 
BRANCH   8   9
ATOM      9  O   UNL     1      43.965   4.138   9.524  0.00  0.00    +0.000 OA
BRANCH   9  10
ATOM     10  C   UNL     1      44.392   2.777   9.463  0.00  0.00    +0.000 C 
BRANCH  10  11
ATOM     11  C   UNL     1      45.471   2.611   8.431  0.00  0.00    +0.000 A 
ATOM     12  C   UNL     1      45.931   3.673   7.648  0.00  0.00    +0.000 A 
ATOM     13  C   UNL     1      46.956   3.467   6.730  0.00  0.00    +0.000 A 
ATOM     14  C   UNL     1      47.504   2.199   6.634  0.00  0.00    +0.000 A 
ATOM     15  N   UNL     1      47.106   1.151   7.386  0.00  0.00    +0.000 NA
ATOM     16  C   UNL     1      46.106   1.383   8.266  0.00  0.00    +0.000 A 
ENDBRANCH  10  11
ENDBRANCH   9  10
ENDBRANCH   8   9
ENDBRANCH   5   8
ENDBRANCH   1   2
BRANCH   1  19
ATOM     17  C   UNL     1      50.294   8.149  12.976  0.00  0.00    +0.000 C 
ATOM     18  O   UNL     1      50.518   8.296  14.172  0.00  0.00    +0.000 OA
ATOM     19  N   UNL     1      49.307   7.306  12.512  0.00  0.00    +0.000 N 
ATOM     20  H   UNL     1      49.077   7.290  11.530  0.00  0.00    +0.000 HD
BRANCH  17  24
ATOM     21  C   UNL     1      54.094   9.513  10.048  0.00  0.00    +0.000 C 
ATOM     22  N   UNL     1      52.779   9.450  10.643  0.00  0.00    +0.000 N 
ATOM     23  C   UNL     1      52.376   8.565  11.605  0.00  0.00    +0.000 A 
ATOM     24  C   UNL     1      51.054   8.845  11.940  0.00  0.00    +0.000 A 
ATOM     25  C   UNL     1      50.648   9.953  11.111  0.00  0.00    +0.000 A 
ATOM     26  C   UNL     1      49.524  10.738  10.863  0.00  0.00    +0.000 A 
ATOM     27 CL   UNL     1      48.044  10.433  11.630  0.00  0.00    +0.000 Cl
ATOM     28  N   UNL     1      49.522  11.729   9.953  0.00  0.00    +0.000 NA
ATOM     29  C   UNL     1      50.664  11.941   9.287  0.00  0.00    +0.000 A 
ATOM     30  N   UNL     1      51.818  11.270   9.407  0.00  0.00    +0.000 NA
ATOM     31  C   UNL     1      51.749  10.291  10.327  0.00  0.00    +0.000 A 
ENDBRANCH  17  24
ENDBRANCH   1  19
TORSDOF 7
ENDMDL
MODEL 5
REMARK VINA RESULT:    -6.881      2.526      3.496
REMARK INTER + INTRA:         -10.916
REMARK INTER:                  -9.937
REMARK INTRA:                  -0.980
REMARK UNBOUND:                -1.219
REMARK  Name = 
REMARK  8 active torsions:
REMARK  status: ('A' for Active; 'I' for Inactive)
REMARK    1  A    between atoms: C_1  and  N_2
REMARK    2  A    between atoms: C_4  and  C_5
REMARK    3  A    between atoms: N_7  and  C_8
REMARK    4  A    between atoms: C_8  and  C_9
REMARK    5  A    between atoms: C_12  and  C_13
REMARK    6  A    between atoms: C_13  and  O_14
REMARK    7  A    between atoms: O_14  and  C_15
REMARK    8  A    between atoms: C_15  and  C_16
REMARK                            x       y       z     vdW  Elec       q    Type
REMARK                         _______ _______ _______ _____ _____    ______ ____
ROOT
ATOM      1  C   UNL     1      47.680   5.006  14.787  0.00  0.00    +0.000 C 
ENDROOT
BRANCH   1   2
ATOM      2  C   UNL     1      46.644   4.889  13.702  0.00  0.00    +0.000 A 
ATOM      3  C   UNL     1      46.095   6.034  13.111  0.00  0.00    +0.000 A 
ATOM      4  C   UNL     1      45.148   5.923  12.088  0.00  0.00    +0.000 A 
ATOM      5  C   UNL     1      44.722   4.665  11.643  0.00  0.00    +0.000 A 
ATOM      6  C   UNL     1      45.261   3.520  12.245  0.00  0.00    +0.000 A 
ATOM      7  C   UNL     1      46.208   3.631  13.266  0.00  0.00    +0.000 A 
BRANCH   5   8
ATOM      8  C   UNL     1      43.689   4.546  10.551  0.00  0.00    +0.000 C 
BRANCH   8   9
ATOM      9  O   UNL     1      44.048   3.484   9.671  0.00  0.00    +0.000 OA
BRANCH   9  10
ATOM     10  C   UNL     1      44.612   3.981   8.457  0.00  0.00    +0.000 C 
BRANCH  10  11
ATOM     11  C   UNL     1      45.703   3.069   7.974  0.00  0.00    +0.000 A 
ATOM     12  C   UNL     1      45.754   1.713   8.310  0.00  0.00    +0.000 A 
ATOM     13  C   UNL     1      46.772   0.910   7.807  0.00  0.00    +0.000 A 
ATOM     14  C   UNL     1      47.705   1.487   6.963  0.00  0.00    +0.000 A 
ATOM     15  N   UNL     1      47.681   2.785   6.593  0.00  0.00    +0.000 NA
ATOM     16  C   UNL     1      46.682   3.540   7.103  0.00  0.00    +0.000 A 
ENDBRANCH  10  11
ENDBRANCH   9  10
ENDBRANCH   8   9
ENDBRANCH   5   8
ENDBRANCH   1   2
BRANCH   1  19
ATOM     17  C   UNL     1      48.939   6.759  15.932  0.00  0.00    +0.000 C 
ATOM     18  O   UNL     1      49.917   6.029  16.038  0.00  0.00    +0.000 OA
ATOM     19  N   UNL     1      47.790   6.356  15.285  0.00  0.00    +0.000 N 
ATOM     20  H   UNL     1      46.966   6.938  15.309  0.00  0.00    +0.000 HD
BRANCH  17  24
ATOM     21  C   UNL     1      49.706  11.667  16.371  0.00  0.00    +0.000 C 
ATOM     22  N   UNL     1      49.270  10.320  16.655  0.00  0.00    +0.000 N 
ATOM     23  C   UNL     1      49.422   9.237  15.832  0.00  0.00    +0.000 A 
ATOM     24  C   UNL     1      48.903   8.116  16.473  0.00  0.00    +0.000 A 
ATOM     25  C   UNL     1      48.397   8.569  17.745  0.00  0.00    +0.000 A 
ATOM     26  C   UNL     1      47.746   8.066  18.870  0.00  0.00    +0.000 A 
ATOM     27 CL   UNL     1      47.252   6.448  18.958  0.00  0.00    +0.000 Cl
ATOM     28  N   UNL     1      47.405   8.844  19.914  0.00  0.00    +0.000 NA
ATOM     29  C   UNL     1      47.727  10.141  19.833  0.00  0.00    +0.000 A 
ATOM     30  N   UNL     1      48.342  10.770  18.822  0.00  0.00    +0.000 NA
ATOM     31  C   UNL     1      48.648   9.938  17.811  0.00  0.00    +0.000 A 
ENDBRANCH  17  24
ENDBRANCH   1  19
TORSDOF 7
ENDMDL
MODEL 6
REMARK VINA RESULT:    -6.678      2.237      2.619
REMARK INTER + INTRA:         -10.630
REMARK INTER:                  -9.612
REMARK INTRA:                  -1.018
REMARK UNBOUND:                -1.219
REMARK  Name = 
REMARK  8 active torsions:
REMARK  status: ('A' for Active; 'I' for Inactive)
REMARK    1  A    between atoms: C_1  and  N_2
REMARK    2  A    between atoms: C_4  and  C_5
REMARK    3  A    between atoms: N_7  and  C_8
REMARK    4  A    between atoms: C_8  and  C_9
REMARK    5  A    between atoms: C_12  and  C_13
REMARK    6  A    between atoms: C_13  and  O_14
REMARK    7  A    between atoms: O_14  and  C_15
REMARK    8  A    between atoms: C_15  and  C_16
REMARK                            x       y       z     vdW  Elec       q    Type
REMARK                         _______ _______ _______ _____ _____    ______ ____
ROOT
ATOM      1  C   UNL     1      48.176   8.080  13.207  0.00  0.00    +0.000 C 
ENDROOT
BRANCH   1   2
ATOM      2  C   UNL     1      47.074   7.115  12.864  0.00  0.00    +0.000 A 
ATOM      3  C   UNL     1      45.855   7.577  12.351  0.00  0.00    +0.000 A 
ATOM      4  C   UNL     1      44.839   6.676  12.012  0.00  0.00    +0.000 A 
ATOM      5  C   UNL     1      45.017   5.299  12.189  0.00  0.00    +0.000 A 
ATOM      6  C   UNL     1      46.231   4.839  12.716  0.00  0.00    +0.000 A 
ATOM      7  C   UNL     1      47.247   5.738  13.053  0.00  0.00    +0.000 A 
BRANCH   5   8
ATOM      8  C   UNL     1      43.916   4.330  11.839  0.00  0.00    +0.000 C 
BRANCH   8   9
ATOM      9  O   UNL     1      44.484   3.075  11.479  0.00  0.00    +0.000 OA
BRANCH   9  10
ATOM     10  C   UNL     1      43.993   2.622  10.217  0.00  0.00    +0.000 C 
BRANCH  10  11
ATOM     11  C   UNL     1      45.022   2.842   9.144  0.00  0.00    +0.000 A 
ATOM     12  C   UNL     1      45.758   1.794   8.583  0.00  0.00    +0.000 A 
ATOM     13  C   UNL     1      46.675   2.054   7.570  0.00  0.00    +0.000 A 
ATOM     14  C   UNL     1      46.817   3.361   7.134  0.00  0.00    +0.000 A 
ATOM     15  N   UNL     1      46.110   4.398   7.631  0.00  0.00    +0.000 NA
ATOM     16  C   UNL     1      45.231   4.114   8.617  0.00  0.00    +0.000 A 
ENDBRANCH  10  11
ENDBRANCH   9  10
ENDBRANCH   8   9
ENDBRANCH   5   8
ENDBRANCH   1   2
BRANCH   1  19
ATOM     17  C   UNL     1      49.351   7.580  15.290  0.00  0.00    +0.000 C 
ATOM     18  O   UNL     1      48.506   8.177  15.946  0.00  0.00    +0.000 OA
ATOM     19  N   UNL     1      49.252   7.437  13.923  0.00  0.00    +0.000 N 
ATOM     20  H   UNL     1      50.016   7.035  13.400  0.00  0.00    +0.000 HD
BRANCH  17  24
ATOM     21  C   UNL     1      54.125   6.577  16.324  0.00  0.00    +0.000 C 
ATOM     22  N   UNL     1      52.682   6.521  16.336  0.00  0.00    +0.000 N 
ATOM     23  C   UNL     1      51.842   7.358  15.654  0.00  0.00    +0.000 A 
ATOM     24  C   UNL     1      50.529   6.962  15.895  0.00  0.00    +0.000 A 
ATOM     25  C   UNL     1      50.600   5.833  16.790  0.00  0.00    +0.000 A 
ATOM     26  C   UNL     1      49.752   4.958  17.465  0.00  0.00    +0.000 A 
ATOM     27 CL   UNL     1      48.067   5.127  17.396  0.00  0.00    +0.000 Cl
ATOM     28  N   UNL     1      50.214   3.980  18.266  0.00  0.00    +0.000 NA
ATOM     29  C   UNL     1      51.542   3.874  18.387  0.00  0.00    +0.000 A 
ATOM     30  N   UNL     1      52.480   4.640  17.812  0.00  0.00    +0.000 NA
ATOM     31  C   UNL     1      51.952   5.599  17.032  0.00  0.00    +0.000 A 
ENDBRANCH  17  24
ENDBRANCH   1  19
TORSDOF 7
ENDMDL
MODEL 7
REMARK VINA RESULT:    -6.586      2.210      3.465
REMARK INTER + INTRA:         -10.500
REMARK INTER:                  -9.609
REMARK INTRA:                  -0.891
REMARK UNBOUND:                -1.219
REMARK  Name = 
REMARK  8 active torsions:
REMARK  status: ('A' for Active; 'I' for Inactive)
REMARK    1  A    between atoms: C_1  and  N_2
REMARK    2  A    between atoms: C_4  and  C_5
REMARK    3  A    between atoms: N_7  and  C_8
REMARK    4  A    between atoms: C_8  and  C_9
REMARK    5  A    between atoms: C_12  and  C_13
REMARK    6  A    between atoms: C_13  and  O_14
REMARK    7  A    between atoms: O_14  and  C_15
REMARK    8  A    between atoms: C_15  and  C_16
REMARK                            x       y       z     vdW  Elec       q    Type
REMARK                         _______ _______ _______ _____ _____    ______ ____
ROOT
ATOM      1  C   UNL     1      47.263   3.876  15.417  0.00  0.00    +0.000 C 
ENDROOT
BRANCH   1   2
ATOM      2  C   UNL     1      46.742   4.341  14.084  0.00  0.00    +0.000 A 
ATOM      3  C   UNL     1      47.020   5.632  13.619  0.00  0.00    +0.000 A 
ATOM      4  C   UNL     1      46.552   6.054  12.370  0.00  0.00    +0.000 A 
ATOM      5  C   UNL     1      45.788   5.198  11.566  0.00  0.00    +0.000 A 
ATOM      6  C   UNL     1      45.498   3.912  12.040  0.00  0.00    +0.000 A 
ATOM      7  C   UNL     1      45.967   3.489  13.286  0.00  0.00    +0.000 A 
BRANCH   5   8
ATOM      8  C   UNL     1      45.270   5.660  10.227  0.00  0.00    +0.000 C 
BRANCH   8   9
ATOM      9  O   UNL     1      45.069   4.531   9.382  0.00  0.00    +0.000 OA
BRANCH   9  10
ATOM     10  C   UNL     1      45.913   4.583   8.232  0.00  0.00    +0.000 C 
BRANCH  10  11
ATOM     11  C   UNL     1      46.319   3.197   7.817  0.00  0.00    +0.000 A 
ATOM     12  C   UNL     1      47.207   2.958   6.764  0.00  0.00    +0.000 A 
ATOM     13  C   UNL     1      47.572   1.654   6.445  0.00  0.00    +0.000 A 
ATOM     14  C   UNL     1      47.046   0.622   7.204  0.00  0.00    +0.000 A 
ATOM     15  N   UNL     1      46.204   0.809   8.243  0.00  0.00    +0.000 NA
ATOM     16  C   UNL     1      45.865   2.087   8.525  0.00  0.00    +0.000 A 
ENDBRANCH  10  11
ENDBRANCH   9  10
ENDBRANCH   8   9
ENDBRANCH   5   8
ENDBRANCH   1   2
BRANCH   1  19
ATOM     17  C   UNL     1      48.705   5.088  16.973  0.00  0.00    +0.000 C 
ATOM     18  O   UNL     1      49.634   4.318  16.759  0.00  0.00    +0.000 OA
ATOM     19  N   UNL     1      47.496   4.978  16.319  0.00  0.00    +0.000 N 
ATOM     20  H   UNL     1      46.718   5.558  16.595  0.00  0.00    +0.000 HD
BRANCH  17  24
ATOM     21  C   UNL     1      47.572   8.135  20.755  0.00  0.00    +0.000 C 
ATOM     22  N   UNL     1      48.260   7.552  19.626  0.00  0.00    +0.000 N 
ATOM     23  C   UNL     1      47.907   6.399  18.981  0.00  0.00    +0.000 A 
ATOM     24  C   UNL     1      48.796   6.189  17.930  0.00  0.00    +0.000 A 
ATOM     25  C   UNL     1      49.741   7.277  17.970  0.00  0.00    +0.000 A 
ATOM     26  C   UNL     1      50.876   7.723  17.296  0.00  0.00    +0.000 A 
ATOM     27 CL   UNL     1      51.566   6.828  16.033  0.00  0.00    +0.000 Cl
ATOM     28  N   UNL     1      51.533   8.842  17.652  0.00  0.00    +0.000 NA
ATOM     29  C   UNL     1      51.042   9.527  18.692  0.00  0.00    +0.000 A 
ATOM     30  N   UNL     1      49.972   9.224  19.440  0.00  0.00    +0.000 NA
ATOM     31  C   UNL     1      49.368   8.093  19.035  0.00  0.00    +0.000 A 
ENDBRANCH  17  24
ENDBRANCH   1  19
TORSDOF 7
ENDMDL
MODEL 8
REMARK VINA RESULT:    -6.566      1.830      2.524
REMARK INTER + INTRA:         -10.472
REMARK INTER:                  -9.341
REMARK INTRA:                  -1.131
REMARK UNBOUND:                -1.219
REMARK  Name = 
REMARK  8 active torsions:
REMARK  status: ('A' for Active; 'I' for Inactive)
REMARK    1  A    between atoms: C_1  and  N_2
REMARK    2  A    between atoms: C_4  and  C_5
REMARK    3  A    between atoms: N_7  and  C_8
REMARK    4  A    between atoms: C_8  and  C_9
REMARK    5  A    between atoms: C_12  and  C_13
REMARK    6  A    between atoms: C_13  and  O_14
REMARK    7  A    between atoms: O_14  and  C_15
REMARK    8  A    between atoms: C_15  and  C_16
REMARK                            x       y       z     vdW  Elec       q    Type
REMARK                         _______ _______ _______ _____ _____    ______ ____
ROOT
ATOM      1  C   UNL     1      48.913   7.098  13.799  0.00  0.00    +0.000 C 
ENDROOT
BRANCH   1   2
ATOM      2  C   UNL     1      47.572   6.485  13.503  0.00  0.00    +0.000 A 
ATOM      3  C   UNL     1      47.320   5.139  13.801  0.00  0.00    +0.000 A 
ATOM      4  C   UNL     1      46.065   4.577  13.545  0.00  0.00    +0.000 A 
ATOM      5  C   UNL     1      45.040   5.344  12.978  0.00  0.00    +0.000 A 
ATOM      6  C   UNL     1      45.298   6.686  12.667  0.00  0.00    +0.000 A 
ATOM      7  C   UNL     1      46.551   7.249  12.924  0.00  0.00    +0.000 A 
BRANCH   5   8
ATOM      8  C   UNL     1      43.693   4.733  12.687  0.00  0.00    +0.000 C 
BRANCH   8   9
ATOM      9  O   UNL     1      43.829   3.748  11.667  0.00  0.00    +0.000 OA
BRANCH   9  10
ATOM     10  C   UNL     1      43.696   4.322  10.367  0.00  0.00    +0.000 C 
BRANCH  10  11
ATOM     11  C   UNL     1      44.687   3.709   9.419  0.00  0.00    +0.000 A 
ATOM     12  C   UNL     1      44.908   2.331   9.349  0.00  0.00    +0.000 A 
ATOM     13  C   UNL     1      45.816   1.818   8.429  0.00  0.00    +0.000 A 
ATOM     14  C   UNL     1      46.469   2.704   7.589  0.00  0.00    +0.000 A 
ATOM     15  N   UNL     1      46.270   4.039   7.606  0.00  0.00    +0.000 NA
ATOM     16  C   UNL     1      45.384   4.507   8.515  0.00  0.00    +0.000 A 
ENDBRANCH  10  11
ENDBRANCH   9  10
ENDBRANCH   8   9
ENDBRANCH   5   8
ENDBRANCH   1   2
BRANCH   1  19
ATOM     17  C   UNL     1      48.879   7.805  16.137  0.00  0.00    +0.000 C 
ATOM     18  O   UNL     1      48.112   8.725  15.880  0.00  0.00    +0.000 OA
ATOM     19  N   UNL     1      49.301   6.911  15.176  0.00  0.00    +0.000 N 
ATOM     20  H   UNL     1      50.015   6.232  15.396  0.00  0.00    +0.000 HD
BRANCH  17  24
ATOM     21  C   UNL     1      51.510   8.415  20.330  0.00  0.00    +0.000 C 
ATOM     22  N   UNL     1      50.608   7.856  19.350  0.00  0.00    +0.000 N 
ATOM     23  C   UNL     1      50.274   8.425  18.151  0.00  0.00    +0.000 A 
ATOM     24  C   UNL     1      49.407   7.568  17.479  0.00  0.00    +0.000 A 
ATOM     25  C   UNL     1      49.203   6.432  18.344  0.00  0.00    +0.000 A 
ATOM     26  C   UNL     1      48.486   5.238  18.378  0.00  0.00    +0.000 A 
ATOM     27 CL   UNL     1      47.412   4.813  17.137  0.00  0.00    +0.000 Cl
ATOM     28  N   UNL     1      48.543   4.391  19.422  0.00  0.00    +0.000 NA
ATOM     29  C   UNL     1      49.334   4.743  20.443  0.00  0.00    +0.000 A 
ATOM     30  N   UNL     1      50.074   5.854  20.560  0.00  0.00    +0.000 NA
ATOM     31  C   UNL     1      49.966   6.657  19.487  0.00  0.00    +0.000 A 
ENDBRANCH  17  24
ENDBRANCH   1  19
TORSDOF 7
ENDMDL
MODEL 9
REMARK VINA RESULT:    -6.425      4.794      6.651
REMARK INTER + INTRA:         -10.274
REMARK INTER:                  -9.233
REMARK INTRA:                  -1.041
REMARK UNBOUND:                -1.219
REMARK  Name = 
REMARK  8 active torsions:
REMARK  status: ('A' for Active; 'I' for Inactive)
REMARK    1  A    between atoms: C_1  and  N_2
REMARK    2  A    between atoms: C_4  and  C_5
REMARK    3  A    between atoms: N_7  and  C_8
REMARK    4  A    between atoms: C_8  and  C_9
REMARK    5  A    between atoms: C_12  and  C_13
REMARK    6  A    between atoms: C_13  and  O_14
REMARK    7  A    between atoms: O_14  and  C_15
REMARK    8  A    between atoms: C_15  and  C_16
REMARK                            x       y       z     vdW  Elec       q    Type
REMARK                         _______ _______ _______ _____ _____    ______ ____
ROOT
ATOM      1  C   UNL     1      48.716   7.709  12.888  0.00  0.00    +0.000 C 
ENDROOT
BRANCH   1   2
ATOM      2  C   UNL     1      47.524   6.816  12.673  0.00  0.00    +0.000 A 
ATOM      3  C   UNL     1      47.400   5.609  13.373  0.00  0.00    +0.000 A 
ATOM      4  C   UNL     1      46.281   4.791  13.188  0.00  0.00    +0.000 A 
ATOM      5  C   UNL     1      45.269   5.157  12.291  0.00  0.00    +0.000 A 
ATOM      6  C   UNL     1      45.401   6.357  11.580  0.00  0.00    +0.000 A 
ATOM      7  C   UNL     1      46.519   7.176  11.767  0.00  0.00    +0.000 A 
BRANCH   5   8
ATOM      8  C   UNL     1      44.071   4.266  12.079  0.00  0.00    +0.000 C 
BRANCH   8   9
ATOM      9  O   UNL     1      43.815   4.139  10.684  0.00  0.00    +0.000 OA
BRANCH   9  10
ATOM     10  C   UNL     1      44.147   2.834  10.209  0.00  0.00    +0.000 C 
BRANCH  10  11
ATOM     11  C   UNL     1      45.156   2.920   9.099  0.00  0.00    +0.000 A 
ATOM     12  C   UNL     1      45.796   1.793   8.577  0.00  0.00    +0.000 A 
ATOM     13  C   UNL     1      46.698   1.931   7.527  0.00  0.00    +0.000 A 
ATOM     14  C   UNL     1      46.922   3.199   7.017  0.00  0.00    +0.000 A 
ATOM     15  N   UNL     1      46.308   4.311   7.475  0.00  0.00    +0.000 NA
ATOM     16  C   UNL     1      45.441   4.144   8.499  0.00  0.00    +0.000 A 
ENDBRANCH  10  11
ENDBRANCH   9  10
ENDBRANCH   8   9
ENDBRANCH   5   8
ENDBRANCH   1   2
BRANCH   1  19
ATOM     17  C   UNL     1      50.918   8.135  11.920  0.00  0.00    +0.000 C 
ATOM     18  O   UNL     1      51.353   8.515  13.000  0.00  0.00    +0.000 OA
ATOM     19  N   UNL     1      49.628   7.670  11.771  0.00  0.00    +0.000 N 
ATOM     20  H   UNL     1      49.267   7.467  10.851  0.00  0.00    +0.000 HD
BRANCH  17  24
ATOM     21  C   UNL     1      53.716   6.482   8.137  0.00  0.00    +0.000 C 
ATOM     22  N   UNL     1      52.988   7.368   9.015  0.00  0.00    +0.000 N 
ATOM     23  C   UNL     1      52.236   6.989  10.093  0.00  0.00    +0.000 A 
ATOM     24  C   UNL     1      51.723   8.132  10.700  0.00  0.00    +0.000 A 
ATOM     25  C   UNL     1      52.187   9.253   9.920  0.00  0.00    +0.000 A 
ATOM     26  C   UNL     1      52.077  10.642   9.887  0.00  0.00    +0.000 A 
ATOM     27 CL   UNL     1      51.094  11.480  10.983  0.00  0.00    +0.000 Cl
ATOM     28  N   UNL     1      52.678  11.390   8.944  0.00  0.00    +0.000 NA
ATOM     29  C   UNL     1      53.405  10.739   8.027  0.00  0.00    +0.000 A 
ATOM     30  N   UNL     1      53.598   9.417   7.924  0.00  0.00    +0.000 NA
ATOM     31  C   UNL     1      52.965   8.729   8.891  0.00  0.00    +0.000 A 
ENDBRANCH  17  24
ENDBRANCH   1  19
TORSDOF 7
ENDMDL
