MODEL 1
REMARK VINA RESULT:    -8.098      0.000      0.000
REMARK INTER + INTRA:         -13.383
REMARK INTER:                 -12.122
REMARK INTRA:                  -1.261
REMARK UNBOUND:                -1.261
REMARK  Name = 
REMARK  9 active torsions:
REMARK  status: ('A' for Active; 'I' for Inactive)
REMARK    1  A    between atoms: C_2  and  C_22
REMARK    2  A    between atoms: N_3  and  C_4
REMARK    3  A    between atoms: C_4  and  C_5
REMARK    4  A    between atoms: C_9  and  C_10
REMARK    5  A    between atoms: C_10  and  N_11
REMARK    6  A    between atoms: N_11  and  CA_12
REMARK    7  A    between atoms: CA_12  and  C_13
REMARK    8  A    between atoms: CA_12  and  C_15
REMARK    9  A    between atoms: C_13  and  O_14
REMARK                            x       y       z     vdW  Elec       q    Type
REMARK                         _______ _______ _______ _____ _____    ______ ____
ROOT
ATOM      1  C   UNL     1      46.430   7.674  12.339  0.00  0.00    +0.000 A 
ATOM      2  C   UNL     1      46.145   9.012  12.156  0.00  0.00    +0.000 A 
ATOM      3  C   UNL     1      44.908   9.301  11.628  0.00  0.00    +0.000 A 
ATOM      4  N   UNL     1      43.989   8.365  11.331  0.00  0.00    +0.000 NA
ATOM      5  C   UNL     1      44.341   7.087  11.567  0.00  0.00    +0.000 A 
ATOM      6  N   UNL     1      45.530   6.701  12.074  0.00  0.00    +0.000 NA
ENDROOT
BRANCH   1   7
ATOM      7  C   UNL     1      47.756   7.248  12.922  0.00  0.00    +0.000 C 
BRANCH   7  10
ATOM      8  O   UNL     1      49.953   6.927  14.590  0.00  0.00    +0.000 OA
ATOM      9  C   UNL     1      48.830   6.943  15.088  0.00  0.00    +0.000 C 
ATOM     10  N   UNL     1      47.724   7.290  14.360  0.00  0.00    +0.000 N 
ATOM     11  H   UNL     1      46.803   7.245  14.784  0.00  0.00    +0.000 HD
BRANCH   9  12
ATOM     12  C   UNL     1      48.597   6.469  16.454  0.00  0.00    +0.000 A 
ATOM     13  C   UNL     1      49.025   7.201  17.552  0.00  0.00    +0.000 A 
ATOM     14  S   UNL     1      49.112   6.261  18.979  0.00  0.00    +0.000 S 
ATOM     15  C   UNL     1      48.484   4.894  18.174  0.00  0.00    +0.000 A 
ATOM     16  N   UNL     1      48.455   3.670  18.761  0.00  0.00    +0.000 NA
ATOM     17  C   UNL     1      47.946   2.743  18.016  0.00  0.00    +0.000 A 
ATOM     18  N   UNL     1      47.399   2.952  16.774  0.00  0.00    +0.000 N 
ATOM     19  C   UNL     1      47.336   4.181  16.171  0.00  0.00    +0.000 A 
ATOM     20  O   UNL     1      46.722   4.367  15.131  0.00  0.00    +0.000 OA
ATOM     21  C   UNL     1      48.068   5.204  16.896  0.00  0.00    +0.000 A 
ATOM     22  H   UNL     1      46.952   2.192  16.288  0.00  0.00    +0.000 HD
ENDBRANCH   9  12
ENDBRANCH   7  10
ENDBRANCH   1   7
BRANCH   5  23
ATOM     23  C   UNL     1      43.301   6.004  11.337  0.00  0.00    +0.000 C 
BRANCH  23  24
ATOM     24  N   UNL     1      43.581   5.093  10.202  0.00  0.00    +0.000 NA
ATOM     25  H   UNL     1      44.168   5.634   9.559  0.00  0.00    +0.000 HD
BRANCH  24  26
ATOM     26  CA  UNL     1      44.363   3.887  10.574  0.00  0.00    +0.000 C 
BRANCH  26  27
ATOM     27  C   UNL     1      45.163   3.383   9.365  0.00  0.00    +0.000 A 
ATOM     28  C   UNL     1      45.702   4.297   8.443  0.00  0.00    +0.000 A 
ATOM     29  C   UNL     1      46.437   3.846   7.339  0.00  0.00    +0.000 A 
ATOM     30  C   UNL     1      46.644   2.481   7.144  0.00  0.00    +0.000 A 
ATOM     31  C   UNL     1      46.133   1.565   8.058  0.00  0.00    +0.000 A 
ATOM     32  C   UNL     1      45.406   2.013   9.162  0.00  0.00    +0.000 A 
ENDBRANCH  26  27
BRANCH  26  33
ATOM     33  C   UNL     1      43.481   2.740  11.137  0.00  0.00    +0.000 C 
BRANCH  33  34
ATOM     34  O   UNL     1      43.827   2.414  12.485  0.00  0.00    +0.000 OA
ATOM     35  H   UNL     1      43.023   2.024  12.875  0.00  0.00    +0.000 HD
ENDBRANCH  33  34
ENDBRANCH  26  33
ENDBRANCH  24  26
ENDBRANCH  23  24
ENDBRANCH   5  23
TORSDOF 9
ENDMDL
MODEL 2
REMARK VINA RESULT:    -7.906      1.797      2.967
REMARK INTER + INTRA:         -13.095
REMARK INTER:                 -12.223
REMARK INTRA:                  -0.872
REMARK UNBOUND:                -1.261
REMARK  Name = 
REMARK  9 active torsions:
REMARK  status: ('A' for Active; 'I' for Inactive)
REMARK    1  A    between atoms: C_2  and  C_22
REMARK    2  A    between atoms: N_3  and  C_4
REMARK    3  A    between atoms: C_4  and  C_5
REMARK    4  A    between atoms: C_9  and  C_10
REMARK    5  A    between atoms: C_10  and  N_11
REMARK    6  A    between atoms: N_11  and  CA_12
REMARK    7  A    between atoms: CA_12  and  C_13
REMARK    8  A    between atoms: CA_12  and  C_15
REMARK    9  A    between atoms: C_13  and  O_14
REMARK                            x       y       z     vdW  Elec       q    Type
REMARK                         _______ _______ _______ _____ _____    ______ ____
ROOT
ATOM      1  C   UNL     1      46.470   5.270  13.659  0.00  0.00    +0.000 A 
ATOM      2  C   UNL     1      47.459   6.206  13.436  0.00  0.00    +0.000 A 
ATOM      3  C   UNL     1      47.227   7.103  12.420  0.00  0.00    +0.000 A 
ATOM      4  N   UNL     1      46.098   7.123  11.688  0.00  0.00    +0.000 NA
ATOM      5  C   UNL     1      45.174   6.191  11.992  0.00  0.00    +0.000 A 
ATOM      6  N   UNL     1      45.310   5.265  12.964  0.00  0.00    +0.000 NA
ENDROOT
BRANCH   1   7
ATOM      7  C   UNL     1      46.619   4.246  14.758  0.00  0.00    +0.000 C 
BRANCH   7  10
ATOM      8  O   UNL     1      46.624   3.404  17.405  0.00  0.00    +0.000 OA
ATOM      9  C   UNL     1      47.319   4.366  17.089  0.00  0.00    +0.000 C 
ATOM     10  N   UNL     1      47.518   4.713  15.780  0.00  0.00    +0.000 N 
ATOM     11  H   UNL     1      48.055   5.543  15.551  0.00  0.00    +0.000 HD
BRANCH   9  12
ATOM     12  C   UNL     1      47.870   5.271  18.101  0.00  0.00    +0.000 A 
ATOM     13  C   UNL     1      47.068   5.805  19.099  0.00  0.00    +0.000 A 
ATOM     14  S   UNL     1      47.762   7.186  19.835  0.00  0.00    +0.000 S 
ATOM     15  C   UNL     1      49.182   7.029  18.902  0.00  0.00    +0.000 A 
ATOM     16  N   UNL     1      50.142   7.989  18.893  0.00  0.00    +0.000 NA
ATOM     17  C   UNL     1      51.153   7.713  18.136  0.00  0.00    +0.000 A 
ATOM     18  N   UNL     1      51.318   6.534  17.451  0.00  0.00    +0.000 N 
ATOM     19  C   UNL     1      50.414   5.504  17.489  0.00  0.00    +0.000 A 
ATOM     20  O   UNL     1      50.646   4.414  16.988  0.00  0.00    +0.000 OA
ATOM     21  C   UNL     1      49.183   5.857  18.174  0.00  0.00    +0.000 A 
ATOM     22  H   UNL     1      52.171   6.363  16.944  0.00  0.00    +0.000 HD
ENDBRANCH   9  12
ENDBRANCH   7  10
ENDBRANCH   1   7
BRANCH   5  23
ATOM     23  C   UNL     1      43.845   6.236  11.258  0.00  0.00    +0.000 C 
BRANCH  23  24
ATOM     24  N   UNL     1      43.614   5.124  10.306  0.00  0.00    +0.000 NA
ATOM     25  H   UNL     1      43.968   5.461   9.405  0.00  0.00    +0.000 HD
BRANCH  24  26
ATOM     26  CA  UNL     1      44.375   3.889  10.623  0.00  0.00    +0.000 C 
BRANCH  26  27
ATOM     27  C   UNL     1      45.152   3.416   9.387  0.00  0.00    +0.000 A 
ATOM     28  C   UNL     1      45.384   2.045   9.179  0.00  0.00    +0.000 A 
ATOM     29  C   UNL     1      46.088   1.604   8.052  0.00  0.00    +0.000 A 
ATOM     30  C   UNL     1      46.566   2.524   7.119  0.00  0.00    +0.000 A 
ATOM     31  C   UNL     1      46.329   3.883   7.301  0.00  0.00    +0.000 A 
ATOM     32  C   UNL     1      45.622   4.323   8.421  0.00  0.00    +0.000 A 
ENDBRANCH  26  27
BRANCH  26  33
ATOM     33  C   UNL     1      43.476   2.739  11.150  0.00  0.00    +0.000 C 
BRANCH  33  34
ATOM     34  O   UNL     1      43.780   2.401  12.505  0.00  0.00    +0.000 OA
ATOM     35  H   UNL     1      42.919   2.315  12.954  0.00  0.00    +0.000 HD
ENDBRANCH  33  34
ENDBRANCH  26  33
ENDBRANCH  24  26
ENDBRANCH  23  24
ENDBRANCH   5  23
TORSDOF 9
ENDMDL
MODEL 3
REMARK VINA RESULT:    -7.897      2.144      2.947
REMARK INTER + INTRA:         -13.082
REMARK INTER:                 -12.142
REMARK INTRA:                  -0.939
REMARK UNBOUND:                -1.261
REMARK  Name = 
REMARK  9 active torsions:
REMARK  status: ('A' for Active; 'I' for Inactive)
REMARK    1  A    between atoms: C_2  and  C_22
REMARK    2  A    between atoms: N_3  and  C_4
REMARK    3  A    between atoms: C_4  and  C_5
REMARK    4  A    between atoms: C_9  and  C_10
REMARK    5  A    between atoms: C_10  and  N_11
REMARK    6  A    between atoms: N_11  and  CA_12
REMARK    7  A    between atoms: CA_12  and  C_13
REMARK    8  A    between atoms: CA_12  and  C_15
REMARK    9  A    between atoms: C_13  and  O_14
REMARK                            x       y       z     vdW  Elec       q    Type
REMARK                         _______ _______ _______ _____ _____    ______ ____
ROOT
ATOM      1  C   UNL     1      46.418   5.253  13.178  0.00  0.00    +0.000 A 
ATOM      2  C   UNL     1      47.357   6.264  13.180  0.00  0.00    +0.000 A 
ATOM      3  C   UNL     1      47.472   6.987  12.015  0.00  0.00    +0.000 A 
ATOM      4  N   UNL     1      46.706   6.775  10.929  0.00  0.00    +0.000 NA
ATOM      5  C   UNL     1      45.797   5.786  11.024  0.00  0.00    +0.000 A 
ATOM      6  N   UNL     1      45.612   5.018  12.117  0.00  0.00    +0.000 NA
ENDROOT
BRANCH   1   7
ATOM      7  C   UNL     1      46.202   4.406  14.409  0.00  0.00    +0.000 C 
BRANCH   7  10
ATOM      8  O   UNL     1      47.960   2.545  15.487  0.00  0.00    +0.000 OA
ATOM      9  C   UNL     1      47.893   3.660  15.997  0.00  0.00    +0.000 C 
ATOM     10  N   UNL     1      47.201   4.683  15.407  0.00  0.00    +0.000 N 
ATOM     11  H   UNL     1      47.120   5.579  15.877  0.00  0.00    +0.000 HD
BRANCH   9  12
ATOM     12  C   UNL     1      48.443   3.921  17.330  0.00  0.00    +0.000 A 
ATOM     13  C   UNL     1      47.751   4.688  18.256  0.00  0.00    +0.000 A 
ATOM     14  S   UNL     1      48.757   5.278  19.507  0.00  0.00    +0.000 S 
ATOM     15  C   UNL     1      50.105   4.438  18.886  0.00  0.00    +0.000 A 
ATOM     16  N   UNL     1      51.358   4.635  19.373  0.00  0.00    +0.000 NA
ATOM     17  C   UNL     1      52.265   3.918  18.793  0.00  0.00    +0.000 A 
ATOM     18  N   UNL     1      52.015   2.973  17.829  0.00  0.00    +0.000 N 
ATOM     19  C   UNL     1      50.761   2.683  17.359  0.00  0.00    +0.000 A 
ATOM     20  O   UNL     1      50.546   1.745  16.606  0.00  0.00    +0.000 OA
ATOM     21  C   UNL     1      49.748   3.601  17.849  0.00  0.00    +0.000 A 
ATOM     22  H   UNL     1      52.767   2.400  17.482  0.00  0.00    +0.000 HD
ENDBRANCH   9  12
ENDBRANCH   7  10
ENDBRANCH   1   7
BRANCH   5  23
ATOM     23  C   UNL     1      44.847   5.575   9.859  0.00  0.00    +0.000 C 
BRANCH  23  24
ATOM     24  N   UNL     1      45.413   4.825   8.712  0.00  0.00    +0.000 NA
ATOM     25  H   UNL     1      46.333   5.244   8.543  0.00  0.00    +0.000 HD
BRANCH  24  26
ATOM     26  CA  UNL     1      45.651   3.386   8.990  0.00  0.00    +0.000 C 
BRANCH  26  27
ATOM     27  C   UNL     1      46.252   2.702   7.755  0.00  0.00    +0.000 A 
ATOM     28  C   UNL     1      46.460   3.434   6.572  0.00  0.00    +0.000 A 
ATOM     29  C   UNL     1      47.011   2.820   5.441  0.00  0.00    +0.000 A 
ATOM     30  C   UNL     1      47.366   1.472   5.477  0.00  0.00    +0.000 A 
ATOM     31  C   UNL     1      47.185   0.739   6.646  0.00  0.00    +0.000 A 
ATOM     32  C   UNL     1      46.641   1.351   7.776  0.00  0.00    +0.000 A 
ENDBRANCH  26  27
BRANCH  26  33
ATOM     33  C   UNL     1      44.368   2.633   9.435  0.00  0.00    +0.000 C 
BRANCH  33  34
ATOM     34  O   UNL     1      44.363   2.374  10.841  0.00  0.00    +0.000 OA
ATOM     35  H   UNL     1      43.758   3.035  11.227  0.00  0.00    +0.000 HD
ENDBRANCH  33  34
ENDBRANCH  26  33
ENDBRANCH  24  26
ENDBRANCH  23  24
ENDBRANCH   5  23
TORSDOF 9
ENDMDL
MODEL 4
REMARK VINA RESULT:    -7.868      1.657      2.361
REMARK INTER + INTRA:         -13.039
REMARK INTER:                 -11.920
REMARK INTRA:                  -1.119
REMARK UNBOUND:                -1.261
REMARK  Name = 
REMARK  9 active torsions:
REMARK  status: ('A' for Active; 'I' for Inactive)
REMARK    1  A    between atoms: C_2  and  C_22
REMARK    2  A    between atoms: N_3  and  C_4
REMARK    3  A    between atoms: C_4  and  C_5
REMARK    4  A    between atoms: C_9  and  C_10
REMARK    5  A    between atoms: C_10  and  N_11
REMARK    6  A    between atoms: N_11  and  CA_12
REMARK    7  A    between atoms: CA_12  and  C_13
REMARK    8  A    between atoms: CA_12  and  C_15
REMARK    9  A    between atoms: C_13  and  O_14
REMARK                            x       y       z     vdW  Elec       q    Type
REMARK                         _______ _______ _______ _____ _____    ______ ____
ROOT
ATOM      1  C   UNL     1      45.301   5.927  12.316  0.00  0.00    +0.000 A 
ATOM      2  C   UNL     1      44.174   6.349  12.992  0.00  0.00    +0.000 A 
ATOM      3  C   UNL     1      43.088   5.506  12.946  0.00  0.00    +0.000 A 
ATOM      4  N   UNL     1      43.097   4.314  12.320  0.00  0.00    +0.000 NA
ATOM      5  C   UNL     1      44.247   3.970  11.710  0.00  0.00    +0.000 A 
ATOM      6  N   UNL     1      45.362   4.728  11.692  0.00  0.00    +0.000 NA
ENDROOT
BRANCH   1   7
ATOM      7  C   UNL     1      46.552   6.771  12.312  0.00  0.00    +0.000 C 
BRANCH   7  10
ATOM      8  O   UNL     1      49.168   6.495  13.202  0.00  0.00    +0.000 OA
ATOM      9  C   UNL     1      48.280   6.686  14.028  0.00  0.00    +0.000 C 
ATOM     10  N   UNL     1      47.008   7.024  13.654  0.00  0.00    +0.000 N 
ATOM     11  H   UNL     1      46.282   7.125  14.356  0.00  0.00    +0.000 HD
BRANCH   9  12
ATOM     12  C   UNL     1      48.502   6.438  15.455  0.00  0.00    +0.000 A 
ATOM     13  C   UNL     1      49.240   7.319  16.231  0.00  0.00    +0.000 A 
ATOM     14  S   UNL     1      49.795   6.611  17.686  0.00  0.00    +0.000 S 
ATOM     15  C   UNL     1      48.974   5.154  17.347  0.00  0.00    +0.000 A 
ATOM     16  N   UNL     1      49.157   4.038  18.098  0.00  0.00    +0.000 NA
ATOM     17  C   UNL     1      48.458   3.022  17.708  0.00  0.00    +0.000 A 
ATOM     18  N   UNL     1      47.542   3.051  16.686  0.00  0.00    +0.000 N 
ATOM     19  C   UNL     1      47.265   4.173  15.949  0.00  0.00    +0.000 A 
ATOM     20  O   UNL     1      46.349   4.213  15.141  0.00  0.00    +0.000 OA
ATOM     21  C   UNL     1      48.167   5.274  16.234  0.00  0.00    +0.000 A 
ATOM     22  H   UNL     1      46.980   2.238  16.493  0.00  0.00    +0.000 HD
ENDBRANCH   9  12
ENDBRANCH   7  10
ENDBRANCH   1   7
BRANCH   5  23
ATOM     23  C   UNL     1      44.333   2.594  11.073  0.00  0.00    +0.000 C 
BRANCH  23  24
ATOM     24  N   UNL     1      45.351   2.457  10.004  0.00  0.00    +0.000 NA
ATOM     25  H   UNL     1      45.608   1.465  10.001  0.00  0.00    +0.000 HD
BRANCH  24  26
ATOM     26  CA  UNL     1      44.842   2.765   8.644  0.00  0.00    +0.000 C 
BRANCH  26  27
ATOM     27  C   UNL     1      45.884   2.370   7.589  0.00  0.00    +0.000 A 
ATOM     28  C   UNL     1      46.108   3.194   6.472  0.00  0.00    +0.000 A 
ATOM     29  C   UNL     1      47.060   2.844   5.506  0.00  0.00    +0.000 A 
ATOM     30  C   UNL     1      47.801   1.672   5.645  0.00  0.00    +0.000 A 
ATOM     31  C   UNL     1      47.605   0.855   6.754  0.00  0.00    +0.000 A 
ATOM     32  C   UNL     1      46.661   1.205   7.720  0.00  0.00    +0.000 A 
ENDBRANCH  26  27
BRANCH  26  33
ATOM     33  C   UNL     1      44.452   4.257   8.464  0.00  0.00    +0.000 C 
BRANCH  33  34
ATOM     34  O   UNL     1      45.519   5.135   8.831  0.00  0.00    +0.000 OA
ATOM     35  H   UNL     1      46.262   4.554   9.079  0.00  0.00    +0.000 HD
ENDBRANCH  33  34
ENDBRANCH  26  33
ENDBRANCH  24  26
ENDBRANCH  23  24
ENDBRANCH   5  23
TORSDOF 9
ENDMDL
MODEL 5
REMARK VINA RESULT:    -7.753      1.905      2.602
REMARK INTER + INTRA:         -12.866
REMARK INTER:                 -11.650
REMARK INTRA:                  -1.216
REMARK UNBOUND:                -1.261
REMARK  Name = 
REMARK  9 active torsions:
REMARK  status: ('A' for Active; 'I' for Inactive)
REMARK    1  A    between atoms: C_2  and  C_22
REMARK    2  A    between atoms: N_3  and  C_4
REMARK    3  A    between atoms: C_4  and  C_5
REMARK    4  A    between atoms: C_9  and  C_10
REMARK    5  A    between atoms: C_10  and  N_11
REMARK    6  A    between atoms: N_11  and  CA_12
REMARK    7  A    between atoms: CA_12  and  C_13
REMARK    8  A    between atoms: CA_12  and  C_15
REMARK    9  A    between atoms: C_13  and  O_14
REMARK                            x       y       z     vdW  Elec       q    Type
REMARK                         _______ _______ _______ _____ _____    ______ ____
ROOT
ATOM      1  C   UNL     1      46.631   5.404  13.850  0.00  0.00    +0.000 A 
ATOM      2  C   UNL     1      47.698   6.143  13.383  0.00  0.00    +0.000 A 
ATOM      3  C   UNL     1      47.498   6.816  12.200  0.00  0.00    +0.000 A 
ATOM      4  N   UNL     1      46.332   6.808  11.528  0.00  0.00    +0.000 NA
ATOM      5  C   UNL     1      45.336   6.083  12.070  0.00  0.00    +0.000 A 
ATOM      6  N   UNL     1      45.434   5.384  13.220  0.00  0.00    +0.000 NA
ENDROOT
BRANCH   1   7
ATOM      7  C   UNL     1      46.740   4.637  15.146  0.00  0.00    +0.000 C 
BRANCH   7  10
ATOM      8  O   UNL     1      48.601   2.949  16.331  0.00  0.00    +0.000 OA
ATOM      9  C   UNL     1      48.640   4.149  16.591  0.00  0.00    +0.000 C 
ATOM     10  N   UNL     1      47.889   5.061  15.902  0.00  0.00    +0.000 N 
ATOM     11  H   UNL     1      47.904   6.039  16.173  0.00  0.00    +0.000 HD
BRANCH   9  12
ATOM     12  C   UNL     1      49.398   4.653  17.739  0.00  0.00    +0.000 A 
ATOM     13  C   UNL     1      50.786   4.651  17.740  0.00  0.00    +0.000 A 
ATOM     14  S   UNL     1      51.443   4.792  19.314  0.00  0.00    +0.000 S 
ATOM     15  C   UNL     1      49.891   4.959  20.001  0.00  0.00    +0.000 A 
ATOM     16  N   UNL     1      49.698   4.945  21.345  0.00  0.00    +0.000 NA
ATOM     17  C   UNL     1      48.462   5.086  21.699  0.00  0.00    +0.000 A 
ATOM     18  N   UNL     1      47.422   5.314  20.832  0.00  0.00    +0.000 N 
ATOM     19  C   UNL     1      47.576   5.412  19.473  0.00  0.00    +0.000 A 
ATOM     20  O   UNL     1      46.664   5.754  18.736  0.00  0.00    +0.000 OA
ATOM     21  C   UNL     1      48.917   5.070  19.030  0.00  0.00    +0.000 A 
ATOM     22  H   UNL     1      46.499   5.490  21.191  0.00  0.00    +0.000 HD
ENDBRANCH   9  12
ENDBRANCH   7  10
ENDBRANCH   1   7
BRANCH   5  23
ATOM     23  C   UNL     1      43.975   6.123  11.398  0.00  0.00    +0.000 C 
BRANCH  23  24
ATOM     24  N   UNL     1      43.745   5.071  10.378  0.00  0.00    +0.000 NA
ATOM     25  H   UNL     1      44.113   5.457   9.504  0.00  0.00    +0.000 HD
BRANCH  24  26
ATOM     26  CA  UNL     1      44.490   3.812  10.631  0.00  0.00    +0.000 C 
BRANCH  26  27
ATOM     27  C   UNL     1      45.209   3.360   9.353  0.00  0.00    +0.000 A 
ATOM     28  C   UNL     1      45.667   4.311   8.424  0.00  0.00    +0.000 A 
ATOM     29  C   UNL     1      46.328   3.908   7.257  0.00  0.00    +0.000 A 
ATOM     30  C   UNL     1      46.543   2.554   7.006  0.00  0.00    +0.000 A 
ATOM     31  C   UNL     1      46.113   1.601   7.924  0.00  0.00    +0.000 A 
ATOM     32  C   UNL     1      45.459   2.002   9.090  0.00  0.00    +0.000 A 
ENDBRANCH  26  27
BRANCH  26  33
ATOM     33  C   UNL     1      43.586   2.666  11.159  0.00  0.00    +0.000 C 
BRANCH  33  34
ATOM     34  O   UNL     1      43.784   2.432  12.556  0.00  0.00    +0.000 OA
ATOM     35  H   UNL     1      44.164   3.258  12.908  0.00  0.00    +0.000 HD
ENDBRANCH  33  34
ENDBRANCH  26  33
ENDBRANCH  24  26
ENDBRANCH  23  24
ENDBRANCH   5  23
TORSDOF 9
ENDMDL
MODEL 6
REMARK VINA RESULT:    -7.643      2.772      5.589
REMARK INTER + INTRA:         -12.702
REMARK INTER:                 -10.723
REMARK INTRA:                  -1.979
REMARK UNBOUND:                -1.261
REMARK  Name = 
REMARK  9 active torsions:
REMARK  status: ('A' for Active; 'I' for Inactive)
REMARK    1  A    between atoms: C_2  and  C_22
REMARK    2  A    between atoms: N_3  and  C_4
REMARK    3  A    between atoms: C_4  and  C_5
REMARK    4  A    between atoms: C_9  and  C_10
REMARK    5  A    between atoms: C_10  and  N_11
REMARK    6  A    between atoms: N_11  and  CA_12
REMARK    7  A    between atoms: CA_12  and  C_13
REMARK    8  A    between atoms: CA_12  and  C_15
REMARK    9  A    between atoms: C_13  and  O_14
REMARK                            x       y       z     vdW  Elec       q    Type
REMARK                         _______ _______ _______ _____ _____    ______ ____
ROOT
ATOM      1  C   UNL     1      48.367   6.195  15.219  0.00  0.00    +0.000 A 
ATOM      2  C   UNL     1      48.409   5.447  16.378  0.00  0.00    +0.000 A 
ATOM      3  C   UNL     1      47.610   4.328  16.407  0.00  0.00    +0.000 A 
ATOM      4  N   UNL     1      46.846   3.932  15.373  0.00  0.00    +0.000 NA
ATOM      5  C   UNL     1      46.887   4.705  14.271  0.00  0.00    +0.000 A 
ATOM      6  N   UNL     1      47.631   5.823  14.146  0.00  0.00    +0.000 NA
ENDROOT
BRANCH   1   7
ATOM      7  C   UNL     1      49.215   7.436  15.077  0.00  0.00    +0.000 C 
BRANCH   7  10
ATOM      8  O   UNL     1      49.576  10.115  14.442  0.00  0.00    +0.000 OA
ATOM      9  C   UNL     1      49.103   9.364  13.593  0.00  0.00    +0.000 C 
ATOM     10  N   UNL     1      49.078   8.007  13.763  0.00  0.00    +0.000 N 
ATOM     11  H   UNL     1      48.635   7.416  13.068  0.00  0.00    +0.000 HD
BRANCH   9  12
ATOM     12  C   UNL     1      48.423   9.891  12.406  0.00  0.00    +0.000 A 
ATOM     13  C   UNL     1      49.123  10.571  11.420  0.00  0.00    +0.000 A 
ATOM     14  S   UNL     1      48.104  11.514  10.419  0.00  0.00    +0.000 S 
ATOM     15  C   UNL     1      46.710  10.949  11.224  0.00  0.00    +0.000 A 
ATOM     16  N   UNL     1      45.484  11.485  10.993  0.00  0.00    +0.000 NA
ATOM     17  C   UNL     1      44.535  10.941  11.682  0.00  0.00    +0.000 A 
ATOM     18  N   UNL     1      44.696   9.864  12.519  0.00  0.00    +0.000 N 
ATOM     19  C   UNL     1      45.898   9.239  12.727  0.00  0.00    +0.000 A 
ATOM     20  O   UNL     1      45.992   8.201  13.363  0.00  0.00    +0.000 OA
ATOM     21  C   UNL     1      47.013   9.943  12.118  0.00  0.00    +0.000 A 
ATOM     22  H   UNL     1      43.893   9.448  12.962  0.00  0.00    +0.000 HD
ENDBRANCH   9  12
ENDBRANCH   7  10
ENDBRANCH   1   7
BRANCH   5  23
ATOM     23  C   UNL     1      46.116   4.245  13.046  0.00  0.00    +0.000 C 
BRANCH  23  24
ATOM     24  N   UNL     1      45.300   5.292  12.385  0.00  0.00    +0.000 NA
ATOM     25  H   UNL     1      45.924   5.730  11.701  0.00  0.00    +0.000 HD
BRANCH  24  26
ATOM     26  CA  UNL     1      44.143   4.761  11.621  0.00  0.00    +0.000 C 
BRANCH  26  27
ATOM     27  C   UNL     1      44.625   4.108  10.319  0.00  0.00    +0.000 A 
ATOM     28  C   UNL     1      45.380   4.850   9.393  0.00  0.00    +0.000 A 
ATOM     29  C   UNL     1      45.828   4.262   8.204  0.00  0.00    +0.000 A 
ATOM     30  C   UNL     1      45.533   2.928   7.927  0.00  0.00    +0.000 A 
ATOM     31  C   UNL     1      44.804   2.174   8.842  0.00  0.00    +0.000 A 
ATOM     32  C   UNL     1      44.362   2.758  10.029  0.00  0.00    +0.000 A 
ENDBRANCH  26  27
BRANCH  26  33
ATOM     33  C   UNL     1      43.077   5.845  11.302  0.00  0.00    +0.000 C 
BRANCH  33  34
ATOM     34  O   UNL     1      43.630   7.162  11.334  0.00  0.00    +0.000 OA
ATOM     35  H   UNL     1      44.549   7.053  11.642  0.00  0.00    +0.000 HD
ENDBRANCH  33  34
ENDBRANCH  26  33
ENDBRANCH  24  26
ENDBRANCH  23  24
ENDBRANCH   5  23
TORSDOF 9
ENDMDL
MODEL 7
REMARK VINA RESULT:    -7.349      3.141      7.670
REMARK INTER + INTRA:         -12.261
REMARK INTER:                 -11.117
REMARK INTRA:                  -1.145
REMARK UNBOUND:                -1.261
REMARK  Name = 
REMARK  9 active torsions:
REMARK  status: ('A' for Active; 'I' for Inactive)
REMARK    1  A    between atoms: C_2  and  C_22
REMARK    2  A    between atoms: N_3  and  C_4
REMARK    3  A    between atoms: C_4  and  C_5
REMARK    4  A    between atoms: C_9  and  C_10
REMARK    5  A    between atoms: C_10  and  N_11
REMARK    6  A    between atoms: N_11  and  CA_12
REMARK    7  A    between atoms: CA_12  and  C_13
REMARK    8  A    between atoms: CA_12  and  C_15
REMARK    9  A    between atoms: C_13  and  O_14
REMARK                            x       y       z     vdW  Elec       q    Type
REMARK                         _______ _______ _______ _____ _____    ______ ____
ROOT
ATOM      1  C   UNL     1      48.329   8.083  13.374  0.00  0.00    +0.000 A 
ATOM      2  C   UNL     1      49.651   8.345  13.079  0.00  0.00    +0.000 A 
ATOM      3  C   UNL     1      50.579   7.855  13.968  0.00  0.00    +0.000 A 
ATOM      4  N   UNL     1      50.258   7.127  15.053  0.00  0.00    +0.000 NA
ATOM      5  C   UNL     1      48.946   6.895  15.249  0.00  0.00    +0.000 A 
ATOM      6  N   UNL     1      47.961   7.337  14.441  0.00  0.00    +0.000 NA
ENDROOT
BRANCH   1   7
ATOM      7  C   UNL     1      47.230   8.566  12.458  0.00  0.00    +0.000 C 
BRANCH   7  10
ATOM      8  O   UNL     1      44.692   7.595  11.885  0.00  0.00    +0.000 OA
ATOM      9  C   UNL     1      45.665   7.041  11.380  0.00  0.00    +0.000 C 
ATOM     10  N   UNL     1      46.921   7.578  11.458  0.00  0.00    +0.000 N 
ATOM     11  H   UNL     1      47.714   7.072  11.075  0.00  0.00    +0.000 HD
BRANCH   9  12
ATOM     12  C   UNL     1      45.554   5.711  10.776  0.00  0.00    +0.000 A 
ATOM     13  C   UNL     1      45.848   5.504   9.436  0.00  0.00    +0.000 A 
ATOM     14  S   UNL     1      45.183   4.047   8.832  0.00  0.00    +0.000 S 
ATOM     15  C   UNL     1      44.581   3.627  10.372  0.00  0.00    +0.000 A 
ATOM     16  N   UNL     1      43.746   2.571  10.550  0.00  0.00    +0.000 NA
ATOM     17  C   UNL     1      43.385   2.389  11.778  0.00  0.00    +0.000 A 
ATOM     18  N   UNL     1      43.846   3.120  12.845  0.00  0.00    +0.000 N 
ATOM     19  C   UNL     1      44.748   4.146  12.726  0.00  0.00    +0.000 A 
ATOM     20  O   UNL     1      45.250   4.689  13.699  0.00  0.00    +0.000 OA
ATOM     21  C   UNL     1      45.025   4.499  11.345  0.00  0.00    +0.000 A 
ATOM     22  H   UNL     1      43.578   2.866  13.781  0.00  0.00    +0.000 HD
ENDBRANCH   9  12
ENDBRANCH   7  10
ENDBRANCH   1   7
BRANCH   5  23
ATOM     23  C   UNL     1      48.544   5.998  16.406  0.00  0.00    +0.000 C 
BRANCH  23  24
ATOM     24  N   UNL     1      48.734   4.546  16.173  0.00  0.00    +0.000 NA
ATOM     25  H   UNL     1      49.648   4.463  15.717  0.00  0.00    +0.000 HD
BRANCH  24  26
ATOM     26  CA  UNL     1      48.809   3.740  17.418  0.00  0.00    +0.000 C 
BRANCH  26  27
ATOM     27  C   UNL     1      50.220   3.160  17.586  0.00  0.00    +0.000 A 
ATOM     28  C   UNL     1      50.470   1.809  17.287  0.00  0.00    +0.000 A 
ATOM     29  C   UNL     1      51.754   1.272  17.433  0.00  0.00    +0.000 A 
ATOM     30  C   UNL     1      52.804   2.075  17.875  0.00  0.00    +0.000 A 
ATOM     31  C   UNL     1      52.578   3.418  18.158  0.00  0.00    +0.000 A 
ATOM     32  C   UNL     1      51.299   3.957  18.007  0.00  0.00    +0.000 A 
ENDBRANCH  26  27
BRANCH  26  33
ATOM     33  C   UNL     1      47.761   2.596  17.466  0.00  0.00    +0.000 C 
BRANCH  33  34
ATOM     34  O   UNL     1      46.439   3.093  17.686  0.00  0.00    +0.000 OA
ATOM     35  H   UNL     1      46.482   4.047  17.491  0.00  0.00    +0.000 HD
ENDBRANCH  33  34
ENDBRANCH  26  33
ENDBRANCH  24  26
ENDBRANCH  23  24
ENDBRANCH   5  23
TORSDOF 9
ENDMDL
MODEL 8
REMARK VINA RESULT:    -7.166      1.477      2.369
REMARK INTER + INTRA:         -11.988
REMARK INTER:                 -10.623
REMARK INTRA:                  -1.365
REMARK UNBOUND:                -1.261
REMARK  Name = 
REMARK  9 active torsions:
REMARK  status: ('A' for Active; 'I' for Inactive)
REMARK    1  A    between atoms: C_2  and  C_22
REMARK    2  A    between atoms: N_3  and  C_4
REMARK    3  A    between atoms: C_4  and  C_5
REMARK    4  A    between atoms: C_9  and  C_10
REMARK    5  A    between atoms: C_10  and  N_11
REMARK    6  A    between atoms: N_11  and  CA_12
REMARK    7  A    between atoms: CA_12  and  C_13
REMARK    8  A    between atoms: CA_12  and  C_15
REMARK    9  A    between atoms: C_13  and  O_14
REMARK                            x       y       z     vdW  Elec       q    Type
REMARK                         _______ _______ _______ _____ _____    ______ ____
ROOT
ATOM      1  C   UNL     1      48.130   8.552  13.877  0.00  0.00    +0.000 A 
ATOM      2  C   UNL     1      49.105   7.878  13.170  0.00  0.00    +0.000 A 
ATOM      3  C   UNL     1      48.662   7.073  12.146  0.00  0.00    +0.000 A 
ATOM      4  N   UNL     1      47.368   6.952  11.801  0.00  0.00    +0.000 NA
ATOM      5  C   UNL     1      46.487   7.666  12.527  0.00  0.00    +0.000 A 
ATOM      6  N   UNL     1      46.819   8.477  13.552  0.00  0.00    +0.000 NA
ENDROOT
BRANCH   1   7
ATOM      7  C   UNL     1      48.507   9.472  15.014  0.00  0.00    +0.000 C 
BRANCH   7  10
ATOM      8  O   UNL     1      50.232   8.125  16.724  0.00  0.00    +0.000 OA
ATOM      9  C   UNL     1      49.028   8.104  16.962  0.00  0.00    +0.000 C 
ATOM     10  N   UNL     1      48.145   8.899  16.283  0.00  0.00    +0.000 N 
ATOM     11  H   UNL     1      47.149   8.823  16.466  0.00  0.00    +0.000 HD
BRANCH   9  12
ATOM     12  C   UNL     1      48.454   7.135  17.899  0.00  0.00    +0.000 A 
ATOM     13  C   UNL     1      48.130   7.496  19.198  0.00  0.00    +0.000 A 
ATOM     14  S   UNL     1      47.967   6.146  20.237  0.00  0.00    +0.000 S 
ATOM     15  C   UNL     1      48.226   5.061  18.947  0.00  0.00    +0.000 A 
ATOM     16  N   UNL     1      48.395   3.729  19.155  0.00  0.00    +0.000 NA
ATOM     17  C   UNL     1      48.578   3.048  18.071  0.00  0.00    +0.000 A 
ATOM     18  N   UNL     1      48.531   3.571  16.802  0.00  0.00    +0.000 N 
ATOM     19  C   UNL     1      48.289   4.894  16.537  0.00  0.00    +0.000 A 
ATOM     20  O   UNL     1      48.113   5.310  15.402  0.00  0.00    +0.000 OA
ATOM     21  C   UNL     1      48.269   5.716  17.734  0.00  0.00    +0.000 A 
ATOM     22  H   UNL     1      48.607   2.961  16.005  0.00  0.00    +0.000 HD
ENDBRANCH   9  12
ENDBRANCH   7  10
ENDBRANCH   1   7
BRANCH   5  23
ATOM     23  C   UNL     1      45.027   7.635  12.112  0.00  0.00    +0.000 C 
BRANCH  23  24
ATOM     24  N   UNL     1      44.720   6.766  10.951  0.00  0.00    +0.000 NA
ATOM     25  H   UNL     1      45.602   6.681  10.436  0.00  0.00    +0.000 HD
BRANCH  24  26
ATOM     26  CA  UNL     1      44.312   5.387  11.320  0.00  0.00    +0.000 C 
BRANCH  26  27
ATOM     27  C   UNL     1      44.727   4.402  10.218  0.00  0.00    +0.000 A 
ATOM     28  C   UNL     1      44.332   3.054  10.289  0.00  0.00    +0.000 A 
ATOM     29  C   UNL     1      44.702   2.149   9.287  0.00  0.00    +0.000 A 
ATOM     30  C   UNL     1      45.465   2.577   8.202  0.00  0.00    +0.000 A 
ATOM     31  C   UNL     1      45.848   3.912   8.107  0.00  0.00    +0.000 A 
ATOM     32  C   UNL     1      45.475   4.816   9.103  0.00  0.00    +0.000 A 
ENDBRANCH  26  27
BRANCH  26  33
ATOM     33  C   UNL     1      42.790   5.256  11.596  0.00  0.00    +0.000 C 
BRANCH  33  34
ATOM     34  O   UNL     1      42.485   5.409  12.984  0.00  0.00    +0.000 OA
ATOM     35  H   UNL     1      41.767   4.775  13.166  0.00  0.00    +0.000 HD
ENDBRANCH  33  34
ENDBRANCH  26  33
ENDBRANCH  24  26
ENDBRANCH  23  24
ENDBRANCH   5  23
TORSDOF 9
ENDMDL
MODEL 9
REMARK VINA RESULT:    -7.061      2.648      3.374
REMARK INTER + INTRA:         -11.831
REMARK INTER:                 -10.856
REMARK INTRA:                  -0.975
REMARK UNBOUND:                -1.261
REMARK  Name = 
REMARK  9 active torsions:
REMARK  status: ('A' for Active; 'I' for Inactive)
REMARK    1  A    between atoms: C_2  and  C_22
REMARK    2  A    between atoms: N_3  and  C_4
REMARK    3  A    between atoms: C_4  and  C_5
REMARK    4  A    between atoms: C_9  and  C_10
REMARK    5  A    between atoms: C_10  and  N_11
REMARK    6  A    between atoms: N_11  and  CA_12
REMARK    7  A    between atoms: CA_12  and  C_13
REMARK    8  A    between atoms: CA_12  and  C_15
REMARK    9  A    between atoms: C_13  and  O_14
REMARK                            x       y       z     vdW  Elec       q    Type
REMARK                         _______ _______ _______ _____ _____    ______ ____
ROOT
ATOM      1  C   UNL     1      49.250   7.347  14.212  0.00  0.00    +0.000 A 
ATOM      2  C   UNL     1      49.704   7.968  13.066  0.00  0.00    +0.000 A 
ATOM      3  C   UNL     1      49.011   7.691  11.911  0.00  0.00    +0.000 A 
ATOM      4  N   UNL     1      47.927   6.896  11.866  0.00  0.00    +0.000 NA
ATOM      5  C   UNL     1      47.536   6.353  13.035  0.00  0.00    +0.000 A 
ATOM      6  N   UNL     1      48.151   6.557  14.218  0.00  0.00    +0.000 NA
ENDROOT
BRANCH   1   7
ATOM      7  C   UNL     1      49.931   7.591  15.536  0.00  0.00    +0.000 C 
BRANCH   7  10
ATOM      8  O   UNL     1      48.783   5.972  17.479  0.00  0.00    +0.000 OA
ATOM      9  C   UNL     1      49.941   5.752  17.134  0.00  0.00    +0.000 C 
ATOM     10  N   UNL     1      50.503   6.376  16.054  0.00  0.00    +0.000 N 
ATOM     11  H   UNL     1      51.478   6.212  15.824  0.00  0.00    +0.000 HD
BRANCH   9  12
ATOM     12  C   UNL     1      50.825   4.903  17.937  0.00  0.00    +0.000 A 
ATOM     13  C   UNL     1      51.743   5.454  18.820  0.00  0.00    +0.000 A 
ATOM     14  S   UNL     1      52.981   4.356  19.254  0.00  0.00    +0.000 S 
ATOM     15  C   UNL     1      52.254   3.103  18.353  0.00  0.00    +0.000 A 
ATOM     16  N   UNL     1      52.880   1.918  18.140  0.00  0.00    +0.000 NA
ATOM     17  C   UNL     1      52.190   1.078  17.440  0.00  0.00    +0.000 A 
ATOM     18  N   UNL     1      50.906   1.294  17.003  0.00  0.00    +0.000 N 
ATOM     19  C   UNL     1      50.203   2.442  17.258  0.00  0.00    +0.000 A 
ATOM     20  O   UNL     1      49.019   2.557  16.982  0.00  0.00    +0.000 OA
ATOM     21  C   UNL     1      51.015   3.477  17.874  0.00  0.00    +0.000 A 
ATOM     22  H   UNL     1      50.408   0.559  16.529  0.00  0.00    +0.000 HD
ENDBRANCH   9  12
ENDBRANCH   7  10
ENDBRANCH   1   7
BRANCH   5  23
ATOM     23  C   UNL     1      46.262   5.527  13.049  0.00  0.00    +0.000 C 
BRANCH  23  24
ATOM     24  N   UNL     1      45.173   6.032  12.180  0.00  0.00    +0.000 NA
ATOM     25  H   UNL     1      45.632   6.314  11.308  0.00  0.00    +0.000 HD
BRANCH  24  26
ATOM     26  CA  UNL     1      44.167   5.004  11.813  0.00  0.00    +0.000 C 
BRANCH  26  27
ATOM     27  C   UNL     1      44.593   4.284  10.526  0.00  0.00    +0.000 A 
ATOM     28  C   UNL     1      45.336   4.967   9.546  0.00  0.00    +0.000 A 
ATOM     29  C   UNL     1      45.732   4.318   8.371  0.00  0.00    +0.000 A 
ATOM     30  C   UNL     1      45.397   2.981   8.161  0.00  0.00    +0.000 A 
ATOM     31  C   UNL     1      44.679   2.286   9.129  0.00  0.00    +0.000 A 
ATOM     32  C   UNL     1      44.288   2.930  10.303  0.00  0.00    +0.000 A 
ENDBRANCH  26  27
BRANCH  26  33
ATOM     33  C   UNL     1      42.738   5.585  11.641  0.00  0.00    +0.000 C 
BRANCH  33  34
ATOM     34  O   UNL     1      42.763   6.916  11.120  0.00  0.00    +0.000 OA
ATOM     35  H   UNL     1      42.906   6.819  10.160  0.00  0.00    +0.000 HD
ENDBRANCH  33  34
ENDBRANCH  26  33
ENDBRANCH  24  26
ENDBRANCH  23  24
ENDBRANCH   5  23
TORSDOF 9
ENDMDL
