MODEL 1
REMARK VINA RESULT:    -8.266      0.000      0.000
REMARK INTER + INTRA:         -12.294
REMARK INTER:                 -11.166
REMARK INTRA:                  -1.128
REMARK UNBOUND:                -1.128
REMARK  Name = 
REMARK  7 active torsions:
REMARK  status: ('A' for Active; 'I' for Inactive)
REMARK    1  A    between atoms: C_1  and  C_2
REMARK    2  A    between atoms: C_5  and  C_6
REMARK    3  A    between atoms: C_6  and  N_7
REMARK    4  A    between atoms: N_7  and  C_8
REMARK    5  A    between atoms: C_11  and  C_12
REMARK    6  A    between atoms: C_12  and  N_13
REMARK    7  A    between atoms: C_14  and  C_16
REMARK                            x       y       z     vdW  Elec       q    Type
REMARK                         _______ _______ _______ _____ _____    ______ ____
ROOT
ATOM      1  C   UNL     1      44.650   5.243  10.687  0.00  0.00    +0.000 A 
ATOM      2  C   UNL     1      44.273   5.430  12.025  0.00  0.00    +0.000 A 
ATOM      3  C   UNL     1      45.006   6.268  12.879  0.00  0.00    +0.000 A 
ATOM      4  C   UNL     1      46.153   6.924  12.418  0.00  0.00    +0.000 A 
ATOM      5  C   UNL     1      46.588   6.662  11.118  0.00  0.00    +0.000 A 
ATOM      6  C   UNL     1      45.852   5.825  10.272  0.00  0.00    +0.000 A 
ENDROOT
BRANCH   1   7
ATOM      7  N   UNL     1      43.892   4.383   9.868  0.00  0.00    +0.000 N 
ATOM      8  H   UNL     1      43.794   4.771   8.932  0.00  0.00    +0.000 HD
BRANCH   7   9
ATOM      9  C   UNL     1      44.318   2.982   9.817  0.00  0.00    +0.000 C 
BRANCH   9  14
ATOM     10  C   UNL     1      47.788   1.633   5.419  0.00  0.00    +0.000 C 
ATOM     11  C   UNL     1      46.879   2.040   6.538  0.00  0.00    +0.000 A 
ATOM     12  C   UNL     1      46.254   3.283   6.539  0.00  0.00    +0.000 A 
ATOM     13  C   UNL     1      45.426   3.621   7.610  0.00  0.00    +0.000 A 
ATOM     14  C   UNL     1      45.250   2.722   8.663  0.00  0.00    +0.000 A 
ATOM     15  C   UNL     1      45.895   1.495   8.558  0.00  0.00    +0.000 A 
ATOM     16  N   UNL     1      46.703   1.140   7.533  0.00  0.00    +0.000 NA
ENDBRANCH   9  14
ENDBRANCH   7   9
ENDBRANCH   1   7
BRANCH   4  17
ATOM     17  C   UNL     1      46.935   7.862  13.297  0.00  0.00    +0.000 C 
BRANCH  17  18
ATOM     18  N   UNL     1      47.392   7.212  14.497  0.00  0.00    +0.000 N 
ATOM     19  C   UNL     1      48.682   6.758  14.602  0.00  0.00    +0.000 C 
ATOM     20  O   UNL     1      49.501   6.915  13.700  0.00  0.00    +0.000 OA
ATOM     21  H   UNL     1      46.683   6.862  15.135  0.00  0.00    +0.000 HD
BRANCH  19  22
ATOM     22  C   UNL     1      49.057   6.134  15.875  0.00  0.00    +0.000 A 
ATOM     23  C   UNL     1      50.123   6.647  16.604  0.00  0.00    +0.000 A 
ATOM     24  S   UNL     1      50.377   5.857  18.093  0.00  0.00    +0.000 S 
ATOM     25  C   UNL     1      49.108   4.765  17.791  0.00  0.00    +0.000 A 
ATOM     26  N   UNL     1      48.799   3.788  18.687  0.00  0.00    +0.000 NA
ATOM     27  C   UNL     1      47.840   3.007  18.311  0.00  0.00    +0.000 A 
ATOM     28  N   UNL     1      47.162   3.115  17.126  0.00  0.00    +0.000 N 
ATOM     29  C   UNL     1      47.423   4.101  16.203  0.00  0.00    +0.000 A 
ATOM     30  O   UNL     1      46.778   4.189  15.163  0.00  0.00    +0.000 OA
ATOM     31  C   UNL     1      48.494   5.005  16.575  0.00  0.00    +0.000 A 
ATOM     32  H   UNL     1      46.419   2.472  16.894  0.00  0.00    +0.000 HD
ENDBRANCH  19  22
ENDBRANCH  17  18
ENDBRANCH   4  17
TORSDOF 6
ENDMDL
MODEL 2
REMARK VINA RESULT:    -8.003      1.975      2.322
REMARK INTER + INTRA:         -11.938
REMARK INTER:                 -10.976
REMARK INTRA:                  -0.961
REMARK UNBOUND:                -1.128
REMARK  Name = 
REMARK  7 active torsions:
REMARK  status: ('A' for Active; 'I' for Inactive)
REMARK    1  A    between atoms: C_1  and  C_2
REMARK    2  A    between atoms: C_5  and  C_6
REMARK    3  A    between atoms: C_6  and  N_7
REMARK    4  A    between atoms: N_7  and  C_8
REMARK    5  A    between atoms: C_11  and  C_12
REMARK    6  A    between atoms: C_12  and  N_13
REMARK    7  A    between atoms: C_14  and  C_16
REMARK                            x       y       z     vdW  Elec       q    Type
REMARK                         _______ _______ _______ _____ _____    ______ ____
ROOT
ATOM      1  C   UNL     1      45.156   4.652  11.996  0.00  0.00    +0.000 A 
ATOM      2  C   UNL     1      45.439   5.990  11.686  0.00  0.00    +0.000 A 
ATOM      3  C   UNL     1      46.484   6.680  12.320  0.00  0.00    +0.000 A 
ATOM      4  C   UNL     1      47.259   6.050  13.301  0.00  0.00    +0.000 A 
ATOM      5  C   UNL     1      46.916   4.752  13.683  0.00  0.00    +0.000 A 
ATOM      6  C   UNL     1      45.873   4.071  13.046  0.00  0.00    +0.000 A 
ENDROOT
BRANCH   1   7
ATOM      7  N   UNL     1      44.089   4.002  11.342  0.00  0.00    +0.000 N 
ATOM      8  H   UNL     1      43.216   4.150  11.846  0.00  0.00    +0.000 HD
BRANCH   7   9
ATOM      9  C   UNL     1      43.929   4.281   9.914  0.00  0.00    +0.000 C 
BRANCH   9  14
ATOM     10  C   UNL     1      47.579   1.156   6.734  0.00  0.00    +0.000 C 
ATOM     11  C   UNL     1      46.651   2.019   7.533  0.00  0.00    +0.000 A 
ATOM     12  C   UNL     1      46.566   3.388   7.301  0.00  0.00    +0.000 A 
ATOM     13  C   UNL     1      45.697   4.152   8.079  0.00  0.00    +0.000 A 
ATOM     14  C   UNL     1      44.942   3.540   9.081  0.00  0.00    +0.000 A 
ATOM     15  C   UNL     1      45.076   2.163   9.218  0.00  0.00    +0.000 A 
ATOM     16  N   UNL     1      45.910   1.397   8.478  0.00  0.00    +0.000 NA
ENDBRANCH   9  14
ENDBRANCH   7   9
ENDBRANCH   1   7
BRANCH   4  17
ATOM     17  C   UNL     1      48.413   6.749  13.967  0.00  0.00    +0.000 C 
BRANCH  17  18
ATOM     18  N   UNL     1      48.184   6.932  15.376  0.00  0.00    +0.000 N 
ATOM     19  C   UNL     1      49.139   6.574  16.294  0.00  0.00    +0.000 C 
ATOM     20  O   UNL     1      50.229   6.122  15.955  0.00  0.00    +0.000 OA
ATOM     21  H   UNL     1      47.224   7.068  15.678  0.00  0.00    +0.000 HD
BRANCH  19  22
ATOM     22  C   UNL     1      48.821   6.826  17.704  0.00  0.00    +0.000 A 
ATOM     23  C   UNL     1      48.572   8.125  18.131  0.00  0.00    +0.000 A 
ATOM     24  S   UNL     1      48.143   8.232  19.777  0.00  0.00    +0.000 S 
ATOM     25  C   UNL     1      48.330   6.555  19.992  0.00  0.00    +0.000 A 
ATOM     26  N   UNL     1      48.126   5.978  21.207  0.00  0.00    +0.000 NA
ATOM     27  C   UNL     1      48.340   4.704  21.234  0.00  0.00    +0.000 A 
ATOM     28  N   UNL     1      48.739   3.956  20.158  0.00  0.00    +0.000 N 
ATOM     29  C   UNL     1      48.933   4.490  18.907  0.00  0.00    +0.000 A 
ATOM     30  O   UNL     1      49.262   3.788  17.956  0.00  0.00    +0.000 OA
ATOM     31  C   UNL     1      48.707   5.921  18.822  0.00  0.00    +0.000 A 
ATOM     32  H   UNL     1      48.887   2.961  20.247  0.00  0.00    +0.000 HD
ENDBRANCH  19  22
ENDBRANCH  17  18
ENDBRANCH   4  17
TORSDOF 6
ENDMDL
MODEL 3
REMARK VINA RESULT:    -7.719      2.535      3.078
REMARK INTER + INTRA:         -11.554
REMARK INTER:                 -10.431
REMARK INTRA:                  -1.123
REMARK UNBOUND:                -1.128
REMARK  Name = 
REMARK  7 active torsions:
REMARK  status: ('A' for Active; 'I' for Inactive)
REMARK    1  A    between atoms: C_1  and  C_2
REMARK    2  A    between atoms: C_5  and  C_6
REMARK    3  A    between atoms: C_6  and  N_7
REMARK    4  A    between atoms: N_7  and  C_8
REMARK    5  A    between atoms: C_11  and  C_12
REMARK    6  A    between atoms: C_12  and  N_13
REMARK    7  A    between atoms: C_14  and  C_16
REMARK                            x       y       z     vdW  Elec       q    Type
REMARK                         _______ _______ _______ _____ _____    ______ ____
ROOT
ATOM      1  C   UNL     1      45.078   4.628  11.941  0.00  0.00    +0.000 A 
ATOM      2  C   UNL     1      45.387   5.970  11.672  0.00  0.00    +0.000 A 
ATOM      3  C   UNL     1      46.408   6.636  12.367  0.00  0.00    +0.000 A 
ATOM      4  C   UNL     1      47.133   5.979  13.368  0.00  0.00    +0.000 A 
ATOM      5  C   UNL     1      46.761   4.677  13.707  0.00  0.00    +0.000 A 
ATOM      6  C   UNL     1      45.742   4.019  13.010  0.00  0.00    +0.000 A 
ENDROOT
BRANCH   1   7
ATOM      7  N   UNL     1      44.037   4.003  11.227  0.00  0.00    +0.000 N 
ATOM      8  H   UNL     1      43.142   4.153  11.691  0.00  0.00    +0.000 HD
BRANCH   7   9
ATOM      9  C   UNL     1      43.948   4.306   9.797  0.00  0.00    +0.000 C 
BRANCH   9  14
ATOM     10  C   UNL     1      47.613   1.074   6.743  0.00  0.00    +0.000 C 
ATOM     11  C   UNL     1      46.682   1.964   7.508  0.00  0.00    +0.000 A 
ATOM     12  C   UNL     1      46.618   3.329   7.247  0.00  0.00    +0.000 A 
ATOM     13  C   UNL     1      45.744   4.119   7.995  0.00  0.00    +0.000 A 
ATOM     14  C   UNL     1      44.965   3.537   8.997  0.00  0.00    +0.000 A 
ATOM     15  C   UNL     1      45.081   2.161   9.164  0.00  0.00    +0.000 A 
ATOM     16  N   UNL     1      45.918   1.371   8.454  0.00  0.00    +0.000 NA
ENDBRANCH   9  14
ENDBRANCH   7   9
ENDBRANCH   1   7
BRANCH   4  17
ATOM     17  C   UNL     1      48.262   6.653  14.100  0.00  0.00    +0.000 C 
BRANCH  17  18
ATOM     18  N   UNL     1      48.037   6.677  15.521  0.00  0.00    +0.000 N 
ATOM     19  C   UNL     1      49.053   6.392  16.397  0.00  0.00    +0.000 C 
ATOM     20  O   UNL     1      50.193   6.143  16.012  0.00  0.00    +0.000 OA
ATOM     21  H   UNL     1      47.073   6.638  15.840  0.00  0.00    +0.000 HD
BRANCH  19  22
ATOM     22  C   UNL     1      48.730   6.471  17.826  0.00  0.00    +0.000 A 
ATOM     23  C   UNL     1      48.920   5.358  18.636  0.00  0.00    +0.000 A 
ATOM     24  S   UNL     1      48.570   5.642  20.280  0.00  0.00    +0.000 S 
ATOM     25  C   UNL     1      48.096   7.243  19.959  0.00  0.00    +0.000 A 
ATOM     26  N   UNL     1      47.656   8.056  20.958  0.00  0.00    +0.000 NA
ATOM     27  C   UNL     1      47.294   9.232  20.565  0.00  0.00    +0.000 A 
ATOM     28  N   UNL     1      47.332   9.671  19.268  0.00  0.00    +0.000 N 
ATOM     29  C   UNL     1      47.793   8.894  18.230  0.00  0.00    +0.000 A 
ATOM     30  O   UNL     1      47.843   9.326  17.084  0.00  0.00    +0.000 OA
ATOM     31  C   UNL     1      48.212   7.560  18.617  0.00  0.00    +0.000 A 
ATOM     32  H   UNL     1      47.036  10.606  19.028  0.00  0.00    +0.000 HD
ENDBRANCH  19  22
ENDBRANCH  17  18
ENDBRANCH   4  17
TORSDOF 6
ENDMDL
MODEL 4
REMARK VINA RESULT:    -7.481      2.625      3.005
REMARK INTER + INTRA:         -11.233
REMARK INTER:                 -10.128
REMARK INTRA:                  -1.105
REMARK UNBOUND:                -1.128
REMARK  Name = 
REMARK  7 active torsions:
REMARK  status: ('A' for Active; 'I' for Inactive)
REMARK    1  A    between atoms: C_1  and  C_2
REMARK    2  A    between atoms: C_5  and  C_6
REMARK    3  A    between atoms: C_6  and  N_7
REMARK    4  A    between atoms: N_7  and  C_8
REMARK    5  A    between atoms: C_11  and  C_12
REMARK    6  A    between atoms: C_12  and  N_13
REMARK    7  A    between atoms: C_14  and  C_16
REMARK                            x       y       z     vdW  Elec       q    Type
REMARK                         _______ _______ _______ _____ _____    ______ ____
ROOT
ATOM      1  C   UNL     1      45.349   5.394  11.640  0.00  0.00    +0.000 A 
ATOM      2  C   UNL     1      45.024   4.303  12.459  0.00  0.00    +0.000 A 
ATOM      3  C   UNL     1      45.778   3.999  13.602  0.00  0.00    +0.000 A 
ATOM      4  C   UNL     1      46.895   4.770  13.942  0.00  0.00    +0.000 A 
ATOM      5  C   UNL     1      47.281   5.794  13.076  0.00  0.00    +0.000 A 
ATOM      6  C   UNL     1      46.523   6.091  11.938  0.00  0.00    +0.000 A 
ENDROOT
BRANCH   1   7
ATOM      7  N   UNL     1      44.570   5.656  10.495  0.00  0.00    +0.000 N 
ATOM      8  H   UNL     1      45.096   6.211   9.822  0.00  0.00    +0.000 HD
BRANCH   7   9
ATOM      9  C   UNL     1      43.943   4.499   9.851  0.00  0.00    +0.000 C 
BRANCH   9  14
ATOM     10  C   UNL     1      47.516   1.107   6.863  0.00  0.00    +0.000 C 
ATOM     11  C   UNL     1      46.611   2.038   7.611  0.00  0.00    +0.000 A 
ATOM     12  C   UNL     1      46.599   3.401   7.336  0.00  0.00    +0.000 A 
ATOM     13  C   UNL     1      45.748   4.229   8.068  0.00  0.00    +0.000 A 
ATOM     14  C   UNL     1      44.939   3.686   9.068  0.00  0.00    +0.000 A 
ATOM     15  C   UNL     1      45.004   2.308   9.249  0.00  0.00    +0.000 A 
ATOM     16  N   UNL     1      45.818   1.482   8.554  0.00  0.00    +0.000 NA
ENDBRANCH   9  14
ENDBRANCH   7   9
ENDBRANCH   1   7
BRANCH   4  17
ATOM     17  C   UNL     1      47.698   4.495  15.185  0.00  0.00    +0.000 C 
BRANCH  17  18
ATOM     18  N   UNL     1      47.626   5.587  16.119  0.00  0.00    +0.000 N 
ATOM     19  C   UNL     1      48.746   6.308  16.444  0.00  0.00    +0.000 C 
ATOM     20  O   UNL     1      49.839   6.077  15.932  0.00  0.00    +0.000 OA
ATOM     21  H   UNL     1      46.809   5.631  16.721  0.00  0.00    +0.000 HD
BRANCH  19  22
ATOM     22  C   UNL     1      48.563   7.419  17.384  0.00  0.00    +0.000 A 
ATOM     23  C   UNL     1      48.815   8.720  16.969  0.00  0.00    +0.000 A 
ATOM     24  S   UNL     1      48.478   9.895  18.157  0.00  0.00    +0.000 S 
ATOM     25  C   UNL     1      48.039   8.703  19.288  0.00  0.00    +0.000 A 
ATOM     26  N   UNL     1      47.653   9.043  20.548  0.00  0.00    +0.000 NA
ATOM     27  C   UNL     1      47.384   8.036  21.312  0.00  0.00    +0.000 A 
ATOM     28  N   UNL     1      47.464   6.723  20.931  0.00  0.00    +0.000 N 
ATOM     29  C   UNL     1      47.825   6.333  19.663  0.00  0.00    +0.000 A 
ATOM     30  O   UNL     1      47.858   5.149  19.344  0.00  0.00    +0.000 OA
ATOM     31  C   UNL     1      48.139   7.427  18.764  0.00  0.00    +0.000 A 
ATOM     32  H   UNL     1      47.237   5.982  21.578  0.00  0.00    +0.000 HD
ENDBRANCH  19  22
ENDBRANCH  17  18
ENDBRANCH   4  17
TORSDOF 6
ENDMDL
MODEL 5
REMARK VINA RESULT:    -7.107      2.000      2.430
REMARK INTER + INTRA:         -10.728
REMARK INTER:                  -9.922
REMARK INTRA:                  -0.806
REMARK UNBOUND:                -1.128
REMARK  Name = 
REMARK  7 active torsions:
REMARK  status: ('A' for Active; 'I' for Inactive)
REMARK    1  A    between atoms: C_1  and  C_2
REMARK    2  A    between atoms: C_5  and  C_6
REMARK    3  A    between atoms: C_6  and  N_7
REMARK    4  A    between atoms: N_7  and  C_8
REMARK    5  A    between atoms: C_11  and  C_12
REMARK    6  A    between atoms: C_12  and  N_13
REMARK    7  A    between atoms: C_14  and  C_16
REMARK                            x       y       z     vdW  Elec       q    Type
REMARK                         _______ _______ _______ _____ _____    ______ ____
ROOT
ATOM      1  C   UNL     1      45.049   6.674  11.385  0.00  0.00    +0.000 A 
ATOM      2  C   UNL     1      46.287   6.189  11.831  0.00  0.00    +0.000 A 
ATOM      3  C   UNL     1      47.151   6.989  12.593  0.00  0.00    +0.000 A 
ATOM      4  C   UNL     1      46.806   8.308  12.909  0.00  0.00    +0.000 A 
ATOM      5  C   UNL     1      45.621   8.826  12.382  0.00  0.00    +0.000 A 
ATOM      6  C   UNL     1      44.765   8.022  11.623  0.00  0.00    +0.000 A 
ENDROOT
BRANCH   1   7
ATOM      7  N   UNL     1      44.217   5.839  10.611  0.00  0.00    +0.000 N 
ATOM      8  H   UNL     1      44.254   6.106   9.628  0.00  0.00    +0.000 HD
BRANCH   7   9
ATOM      9  C   UNL     1      44.405   4.396  10.774  0.00  0.00    +0.000 C 
BRANCH   9  14
ATOM     10  C   UNL     1      47.040   2.289   6.102  0.00  0.00    +0.000 C 
ATOM     11  C   UNL     1      46.341   2.779   7.334  0.00  0.00    +0.000 A 
ATOM     12  C   UNL     1      45.835   1.888   8.274  0.00  0.00    +0.000 A 
ATOM     13  C   UNL     1      45.181   2.392   9.399  0.00  0.00    +0.000 A 
ATOM     14  C   UNL     1      45.032   3.772   9.556  0.00  0.00    +0.000 A 
ATOM     15  C   UNL     1      45.596   4.581   8.575  0.00  0.00    +0.000 A 
ATOM     16  N   UNL     1      46.235   4.120   7.476  0.00  0.00    +0.000 NA
ENDBRANCH   9  14
ENDBRANCH   7   9
ENDBRANCH   1   7
BRANCH   4  17
ATOM     17  C   UNL     1      47.692   9.176  13.761  0.00  0.00    +0.000 C 
BRANCH  17  18
ATOM     18  N   UNL     1      47.580   8.845  15.157  0.00  0.00    +0.000 N 
ATOM     19  C   UNL     1      48.678   8.439  15.872  0.00  0.00    +0.000 C 
ATOM     20  O   UNL     1      49.796   8.375  15.366  0.00  0.00    +0.000 OA
ATOM     21  H   UNL     1      46.649   8.658  15.518  0.00  0.00    +0.000 HD
BRANCH  19  22
ATOM     22  C   UNL     1      48.466   8.151  17.294  0.00  0.00    +0.000 A 
ATOM     23  C   UNL     1      48.156   9.186  18.167  0.00  0.00    +0.000 A 
ATOM     24  S   UNL     1      47.866   8.670  19.765  0.00  0.00    +0.000 S 
ATOM     25  C   UNL     1      48.200   7.052  19.361  0.00  0.00    +0.000 A 
ATOM     26  N   UNL     1      48.147   6.071  20.302  0.00  0.00    +0.000 NA
ATOM     27  C   UNL     1      48.461   4.896  19.864  0.00  0.00    +0.000 A 
ATOM     28  N   UNL     1      48.821   4.613  18.573  0.00  0.00    +0.000 N 
ATOM     29  C   UNL     1      48.863   5.567  17.583  0.00  0.00    +0.000 A 
ATOM     30  O   UNL     1      49.160   5.277  16.429  0.00  0.00    +0.000 OA
ATOM     31  C   UNL     1      48.521   6.906  18.023  0.00  0.00    +0.000 A 
ATOM     32  H   UNL     1      49.052   3.671  18.295  0.00  0.00    +0.000 HD
ENDBRANCH  19  22
ENDBRANCH  17  18
ENDBRANCH   4  17
TORSDOF 6
ENDMDL
MODEL 6
REMARK VINA RESULT:    -6.770      4.892      7.367
REMARK INTER + INTRA:         -10.272
REMARK INTER:                  -9.212
REMARK INTRA:                  -1.060
REMARK UNBOUND:                -1.128
REMARK  Name = 
REMARK  7 active torsions:
REMARK  status: ('A' for Active; 'I' for Inactive)
REMARK    1  A    between atoms: C_1  and  C_2
REMARK    2  A    between atoms: C_5  and  C_6
REMARK    3  A    between atoms: C_6  and  N_7
REMARK    4  A    between atoms: N_7  and  C_8
REMARK    5  A    between atoms: C_11  and  C_12
REMARK    6  A    between atoms: C_12  and  N_13
REMARK    7  A    between atoms: C_14  and  C_16
REMARK                            x       y       z     vdW  Elec       q    Type
REMARK                         _______ _______ _______ _____ _____    ______ ____
ROOT
ATOM      1  C   UNL     1      50.969   8.681  11.331  0.00  0.00    +0.000 A 
ATOM      2  C   UNL     1      50.161   9.827  11.358  0.00  0.00    +0.000 A 
ATOM      3  C   UNL     1      48.813   9.760  11.745  0.00  0.00    +0.000 A 
ATOM      4  C   UNL     1      48.234   8.534  12.092  0.00  0.00    +0.000 A 
ATOM      5  C   UNL     1      49.007   7.378  11.970  0.00  0.00    +0.000 A 
ATOM      6  C   UNL     1      50.349   7.453  11.584  0.00  0.00    +0.000 A 
ENDROOT
BRANCH   1   7
ATOM      7  N   UNL     1      52.314   8.793  10.925  0.00  0.00    +0.000 N 
ATOM      8  H   UNL     1      52.867   8.022  11.296  0.00  0.00    +0.000 HD
BRANCH   7   9
ATOM      9  C   UNL     1      52.552   8.972   9.491  0.00  0.00    +0.000 C 
BRANCH   9  14
ATOM     10  C   UNL     1      53.716   4.154   6.552  0.00  0.00    +0.000 C 
ATOM     11  C   UNL     1      53.433   5.379   7.368  0.00  0.00    +0.000 A 
ATOM     12  C   UNL     1      53.754   5.430   8.720  0.00  0.00    +0.000 A 
ATOM     13  C   UNL     1      53.459   6.588   9.440  0.00  0.00    +0.000 A 
ATOM     14  C   UNL     1      52.837   7.663   8.803  0.00  0.00    +0.000 A 
ATOM     15  C   UNL     1      52.580   7.526   7.443  0.00  0.00    +0.000 A 
ATOM     16  N   UNL     1      52.856   6.417   6.720  0.00  0.00    +0.000 NA
ENDBRANCH   9  14
ENDBRANCH   7   9
ENDBRANCH   1   7
BRANCH   4  17
ATOM     17  C   UNL     1      46.804   8.437  12.552  0.00  0.00    +0.000 C 
BRANCH  17  18
ATOM     18  N   UNL     1      46.289   7.101  12.413  0.00  0.00    +0.000 N 
ATOM     19  C   UNL     1      45.130   6.865  11.718  0.00  0.00    +0.000 C 
ATOM     20  O   UNL     1      44.509   7.768  11.163  0.00  0.00    +0.000 OA
ATOM     21  H   UNL     1      46.642   6.397  13.054  0.00  0.00    +0.000 HD
BRANCH  19  22
ATOM     22  C   UNL     1      44.703   5.466  11.609  0.00  0.00    +0.000 A 
ATOM     23  C   UNL     1      44.045   4.863  12.674  0.00  0.00    +0.000 A 
ATOM     24  S   UNL     1      43.550   3.263  12.354  0.00  0.00    +0.000 S 
ATOM     25  C   UNL     1      44.249   3.299  10.804  0.00  0.00    +0.000 A 
ATOM     26  N   UNL     1      44.197   2.211   9.988  0.00  0.00    +0.000 NA
ATOM     27  C   UNL     1      44.800   2.366   8.856  0.00  0.00    +0.000 A 
ATOM     28  N   UNL     1      45.449   3.508   8.466  0.00  0.00    +0.000 N 
ATOM     29  C   UNL     1      45.506   4.639   9.245  0.00  0.00    +0.000 A 
ATOM     30  O   UNL     1      46.069   5.656   8.855  0.00  0.00    +0.000 OA
ATOM     31  C   UNL     1      44.844   4.517  10.530  0.00  0.00    +0.000 A 
ATOM     32  H   UNL     1      45.900   3.564   7.564  0.00  0.00    +0.000 HD
ENDBRANCH  19  22
ENDBRANCH  17  18
ENDBRANCH   4  17
TORSDOF 6
ENDMDL
MODEL 7
REMARK VINA RESULT:    -6.738      2.943      8.277
REMARK INTER + INTRA:         -10.229
REMARK INTER:                  -8.899
REMARK INTRA:                  -1.330
REMARK UNBOUND:                -1.128
REMARK  Name = 
REMARK  7 active torsions:
REMARK  status: ('A' for Active; 'I' for Inactive)
REMARK    1  A    between atoms: C_1  and  C_2
REMARK    2  A    between atoms: C_5  and  C_6
REMARK    3  A    between atoms: C_6  and  N_7
REMARK    4  A    between atoms: N_7  and  C_8
REMARK    5  A    between atoms: C_11  and  C_12
REMARK    6  A    between atoms: C_12  and  N_13
REMARK    7  A    between atoms: C_14  and  C_16
REMARK                            x       y       z     vdW  Elec       q    Type
REMARK                         _______ _______ _______ _____ _____    ______ ____
ROOT
ATOM      1  C   UNL     1      49.554   8.301  15.547  0.00  0.00    +0.000 A 
ATOM      2  C   UNL     1      48.398   9.048  15.282  0.00  0.00    +0.000 A 
ATOM      3  C   UNL     1      47.743   8.965  14.044  0.00  0.00    +0.000 A 
ATOM      4  C   UNL     1      48.247   8.146  13.027  0.00  0.00    +0.000 A 
ATOM      5  C   UNL     1      49.453   7.479  13.252  0.00  0.00    +0.000 A 
ATOM      6  C   UNL     1      50.099   7.566  14.489  0.00  0.00    +0.000 A 
ENDROOT
BRANCH   1   7
ATOM      7  N   UNL     1      50.185   8.424  16.801  0.00  0.00    +0.000 N 
ATOM      8  H   UNL     1      50.306   9.405  17.048  0.00  0.00    +0.000 HD
BRANCH   7   9
ATOM      9  C   UNL     1      49.594   7.670  17.909  0.00  0.00    +0.000 C 
BRANCH   9  14
ATOM     10  C   UNL     1      49.723   1.982  16.997  0.00  0.00    +0.000 C 
ATOM     11  C   UNL     1      49.628   3.459  17.230  0.00  0.00    +0.000 A 
ATOM     12  C   UNL     1      48.393   4.088  17.352  0.00  0.00    +0.000 A 
ATOM     13  C   UNL     1      48.356   5.467  17.556  0.00  0.00    +0.000 A 
ATOM     14  C   UNL     1      49.547   6.193  17.619  0.00  0.00    +0.000 A 
ATOM     15  C   UNL     1      50.730   5.470  17.513  0.00  0.00    +0.000 A 
ATOM     16  N   UNL     1      50.797   4.134  17.316  0.00  0.00    +0.000 NA
ENDBRANCH   9  14
ENDBRANCH   7   9
ENDBRANCH   1   7
BRANCH   4  17
ATOM     17  C   UNL     1      47.544   8.003  11.704  0.00  0.00    +0.000 C 
BRANCH  17  18
ATOM     18  N   UNL     1      46.889   6.728  11.584  0.00  0.00    +0.000 N 
ATOM     19  C   UNL     1      45.531   6.619  11.745  0.00  0.00    +0.000 C 
ATOM     20  O   UNL     1      44.822   7.598  11.962  0.00  0.00    +0.000 OA
ATOM     21  H   UNL     1      47.470   5.898  11.649  0.00  0.00    +0.000 HD
BRANCH  19  22
ATOM     22  C   UNL     1      44.955   5.281  11.575  0.00  0.00    +0.000 A 
ATOM     23  C   UNL     1      44.304   4.672  12.640  0.00  0.00    +0.000 A 
ATOM     24  S   UNL     1      43.626   3.157  12.252  0.00  0.00    +0.000 S 
ATOM     25  C   UNL     1      44.228   3.234  10.663  0.00  0.00    +0.000 A 
ATOM     26  N   UNL     1      44.013   2.218   9.783  0.00  0.00    +0.000 NA
ATOM     27  C   UNL     1      44.559   2.393   8.626  0.00  0.00    +0.000 A 
ATOM     28  N   UNL     1      45.298   3.489   8.267  0.00  0.00    +0.000 N 
ATOM     29  C   UNL     1      45.520   4.550   9.113  0.00  0.00    +0.000 A 
ATOM     30  O   UNL     1      46.161   5.531   8.752  0.00  0.00    +0.000 OA
ATOM     31  C   UNL     1      44.929   4.403  10.429  0.00  0.00    +0.000 A 
ATOM     32  H   UNL     1      45.696   3.565   7.342  0.00  0.00    +0.000 HD
ENDBRANCH  19  22
ENDBRANCH  17  18
ENDBRANCH   4  17
TORSDOF 6
ENDMDL
MODEL 8
REMARK VINA RESULT:    -6.725      3.838      5.715
REMARK INTER + INTRA:         -10.211
REMARK INTER:                  -9.163
REMARK INTRA:                  -1.048
REMARK UNBOUND:                -1.128
REMARK  Name = 
REMARK  7 active torsions:
REMARK  status: ('A' for Active; 'I' for Inactive)
REMARK    1  A    between atoms: C_1  and  C_2
REMARK    2  A    between atoms: C_5  and  C_6
REMARK    3  A    between atoms: C_6  and  N_7
REMARK    4  A    between atoms: N_7  and  C_8
REMARK    5  A    between atoms: C_11  and  C_12
REMARK    6  A    between atoms: C_12  and  N_13
REMARK    7  A    between atoms: C_14  and  C_16
REMARK                            x       y       z     vdW  Elec       q    Type
REMARK                         _______ _______ _______ _____ _____    ______ ____
ROOT
ATOM      1  C   UNL     1      45.305   4.596  11.978  0.00  0.00    +0.000 A 
ATOM      2  C   UNL     1      45.509   5.862  11.411  0.00  0.00    +0.000 A 
ATOM      3  C   UNL     1      46.411   6.777  11.975  0.00  0.00    +0.000 A 
ATOM      4  C   UNL     1      47.117   6.454  13.140  0.00  0.00    +0.000 A 
ATOM      5  C   UNL     1      46.841   5.235  13.763  0.00  0.00    +0.000 A 
ATOM      6  C   UNL     1      45.940   4.328  13.195  0.00  0.00    +0.000 A 
ENDROOT
BRANCH   1   7
ATOM      7  N   UNL     1      44.380   3.713  11.385  0.00  0.00    +0.000 N 
ATOM      8  H   UNL     1      43.539   3.638  11.955  0.00  0.00    +0.000 HD
BRANCH   7   9
ATOM      9  C   UNL     1      44.047   3.961   9.981  0.00  0.00    +0.000 C 
BRANCH   9  14
ATOM     10  C   UNL     1      47.670   1.252   6.412  0.00  0.00    +0.000 C 
ATOM     11  C   UNL     1      46.744   2.010   7.314  0.00  0.00    +0.000 A 
ATOM     12  C   UNL     1      46.567   3.382   7.170  0.00  0.00    +0.000 A 
ATOM     13  C   UNL     1      45.704   4.046   8.042  0.00  0.00    +0.000 A 
ATOM     14  C   UNL     1      45.048   3.333   9.048  0.00  0.00    +0.000 A 
ATOM     15  C   UNL     1      45.269   1.961   9.093  0.00  0.00    +0.000 A 
ATOM     16  N   UNL     1      46.099   1.291   8.261  0.00  0.00    +0.000 NA
ENDBRANCH   9  14
ENDBRANCH   7   9
ENDBRANCH   1   7
BRANCH   4  17
ATOM     17  C   UNL     1      48.122   7.397  13.744  0.00  0.00    +0.000 C 
BRANCH  17  18
ATOM     18  N   UNL     1      48.976   7.979  12.742  0.00  0.00    +0.000 N 
ATOM     19  C   UNL     1      50.294   8.245  13.012  0.00  0.00    +0.000 C 
ATOM     20  O   UNL     1      50.804   7.970  14.096  0.00  0.00    +0.000 OA
ATOM     21  H   UNL     1      48.525   8.428  11.950  0.00  0.00    +0.000 HD
BRANCH  19  22
ATOM     22  C   UNL     1      51.087   8.812  11.917  0.00  0.00    +0.000 A 
ATOM     23  C   UNL     1      52.308   8.239  11.583  0.00  0.00    +0.000 A 
ATOM     24  S   UNL     1      53.062   8.970  10.241  0.00  0.00    +0.000 S 
ATOM     25  C   UNL     1      51.813  10.115  10.093  0.00  0.00    +0.000 A 
ATOM     26  N   UNL     1      51.852  11.072   9.126  0.00  0.00    +0.000 NA
ATOM     27  C   UNL     1      50.858  11.897   9.154  0.00  0.00    +0.000 A 
ATOM     28  N   UNL     1      49.830  11.852  10.059  0.00  0.00    +0.000 N 
ATOM     29  C   UNL     1      49.736  10.889  11.036  0.00  0.00    +0.000 A 
ATOM     30  O   UNL     1      48.787  10.858  11.812  0.00  0.00    +0.000 OA
ATOM     31  C   UNL     1      50.830   9.937  11.049  0.00  0.00    +0.000 A 
ATOM     32  H   UNL     1      49.081  12.528  10.024  0.00  0.00    +0.000 HD
ENDBRANCH  19  22
ENDBRANCH  17  18
ENDBRANCH   4  17
TORSDOF 6
ENDMDL
MODEL 9
REMARK VINA RESULT:    -6.604      3.270      4.508
REMARK INTER + INTRA:         -10.048
REMARK INTER:                  -8.980
REMARK INTRA:                  -1.068
REMARK UNBOUND:                -1.128
REMARK  Name = 
REMARK  7 active torsions:
REMARK  status: ('A' for Active; 'I' for Inactive)
REMARK    1  A    between atoms: C_1  and  C_2
REMARK    2  A    between atoms: C_5  and  C_6
REMARK    3  A    between atoms: C_6  and  N_7
REMARK    4  A    between atoms: N_7  and  C_8
REMARK    5  A    between atoms: C_11  and  C_12
REMARK    6  A    between atoms: C_12  and  N_13
REMARK    7  A    between atoms: C_14  and  C_16
REMARK                            x       y       z     vdW  Elec       q    Type
REMARK                         _______ _______ _______ _____ _____    ______ ____
ROOT
ATOM      1  C   UNL     1      46.261   5.793  12.944  0.00  0.00    +0.000 A 
ATOM      2  C   UNL     1      46.105   4.676  13.777  0.00  0.00    +0.000 A 
ATOM      3  C   UNL     1      46.890   4.508  14.927  0.00  0.00    +0.000 A 
ATOM      4  C   UNL     1      47.872   5.448  15.260  0.00  0.00    +0.000 A 
ATOM      5  C   UNL     1      48.099   6.508  14.380  0.00  0.00    +0.000 A 
ATOM      6  C   UNL     1      47.311   6.668  13.235  0.00  0.00    +0.000 A 
ENDROOT
BRANCH   1   7
ATOM      7  N   UNL     1      45.458   5.914  11.792  0.00  0.00    +0.000 N 
ATOM      8  H   UNL     1      46.005   6.265  11.008  0.00  0.00    +0.000 HD
BRANCH   7   9
ATOM      9  C   UNL     1      44.682   4.733  11.407  0.00  0.00    +0.000 C 
BRANCH   9  14
ATOM     10  C   UNL     1      46.547   2.950   6.255  0.00  0.00    +0.000 C 
ATOM     11  C   UNL     1      46.040   3.357   7.605  0.00  0.00    +0.000 A 
ATOM     12  C   UNL     1      45.460   2.429   8.463  0.00  0.00    +0.000 A 
ATOM     13  C   UNL     1      44.992   2.858   9.705  0.00  0.00    +0.000 A 
ATOM     14  C   UNL     1      45.096   4.205  10.060  0.00  0.00    +0.000 A 
ATOM     15  C   UNL     1      45.715   5.050   9.145  0.00  0.00    +0.000 A 
ATOM     16  N   UNL     1      46.179   4.662   7.935  0.00  0.00    +0.000 NA
ENDBRANCH   9  14
ENDBRANCH   7   9
ENDBRANCH   1   7
BRANCH   4  17
ATOM     17  C   UNL     1      48.701   5.319  16.510  0.00  0.00    +0.000 C 
BRANCH  17  18
ATOM     18  N   UNL     1      48.552   6.463  17.370  0.00  0.00    +0.000 N 
ATOM     19  C   UNL     1      47.650   6.452  18.403  0.00  0.00    +0.000 C 
ATOM     20  O   UNL     1      46.965   5.464  18.657  0.00  0.00    +0.000 OA
ATOM     21  H   UNL     1      48.919   7.349  17.033  0.00  0.00    +0.000 HD
BRANCH  19  22
ATOM     22  C   UNL     1      47.594   7.656  19.238  0.00  0.00    +0.000 A 
ATOM     23  C   UNL     1      47.466   7.532  20.616  0.00  0.00    +0.000 A 
ATOM     24  S   UNL     1      47.494   9.022  21.443  0.00  0.00    +0.000 S 
ATOM     25  C   UNL     1      47.619   9.890  19.985  0.00  0.00    +0.000 A 
ATOM     26  N   UNL     1      47.670  11.250  19.983  0.00  0.00    +0.000 NA
ATOM     27  C   UNL     1      47.726  11.778  18.805  0.00  0.00    +0.000 A 
ATOM     28  N   UNL     1      47.737  11.072  17.631  0.00  0.00    +0.000 N 
ATOM     29  C   UNL     1      47.712   9.698  17.585  0.00  0.00    +0.000 A 
ATOM     30  O   UNL     1      47.753   9.093  16.519  0.00  0.00    +0.000 OA
ATOM     31  C   UNL     1      47.648   9.054  18.884  0.00  0.00    +0.000 A 
ATOM     32  H   UNL     1      47.784  11.547  16.742  0.00  0.00    +0.000 HD
ENDBRANCH  19  22
ENDBRANCH  17  18
ENDBRANCH   4  17
TORSDOF 6
ENDMDL
