MODEL 1
REMARK VINA RESULT:    -7.634      0.000      0.000
REMARK INTER + INTRA:         -11.841
REMARK INTER:                 -10.758
REMARK INTRA:                  -1.083
REMARK UNBOUND:                -1.083
REMARK  Name = 
REMARK  8 active torsions:
REMARK  status: ('A' for Active; 'I' for Inactive)
REMARK    1  A    between atoms: C_1  and  C_2
REMARK    2  A    between atoms: C_2  and  C_3
REMARK    3  A    between atoms: C_2  and  C_14
REMARK    4  A    between atoms: C_3  and  O_4
REMARK    5  A    between atoms: O_4  and  C_5
REMARK    6  A    between atoms: C_8  and  C_9
REMARK    7  A    between atoms: C_20  and  O_21
REMARK    8  A    between atoms: O_21  and  C_22
REMARK                            x       y       z     vdW  Elec       q    Type
REMARK                         _______ _______ _______ _____ _____    ______ ____
ROOT
ATOM      1  C   UNL     1      42.810   5.106  13.192  0.00  0.00    +0.000 C 
ATOM      2  C   UNL     1      43.772   5.315  12.004  0.00  0.00    +0.000 C 
ENDROOT
BRANCH   2   3
ATOM      3  C   UNL     1      45.248   5.512  12.398  0.00  0.00    +0.000 A 
ATOM      4  C   UNL     1      45.881   4.591  13.256  0.00  0.00    +0.000 A 
ATOM      5  C   UNL     1      47.205   4.756  13.649  0.00  0.00    +0.000 A 
ATOM      6  C   UNL     1      47.933   5.833  13.167  0.00  0.00    +0.000 A 
ATOM      7  C   UNL     1      47.349   6.760  12.292  0.00  0.00    +0.000 A 
ATOM      8 CL   UNL     1      48.429   7.972  11.700  0.00  0.00    +0.000 Cl
ATOM      9  C   UNL     1      46.001   6.626  11.916  0.00  0.00    +0.000 A 
BRANCH   9  10
ATOM     10  O   UNL     1      45.308   7.421  11.030  0.00  0.00    +0.000 OA
BRANCH  10  11
ATOM     11  C   UNL     1      45.173   8.852  11.171  0.00  0.00    +0.000 C 
ATOM     12  C   UNL     1      45.054   9.452  12.583  0.00  0.00    +0.000 C 
ATOM     13  N   UNL     1      43.796  10.121  12.218  0.00  0.00    +0.000 NA
ATOM     14  C   UNL     1      43.732   9.370  10.960  0.00  0.00    +0.000 C 
ATOM     15  H   UNL     1      43.879  11.130  12.094  0.00  0.00    +0.000 HD
ENDBRANCH  10  11
ENDBRANCH   9  10
ENDBRANCH   2   3
BRANCH   2  16
ATOM     16  C   UNL     1      43.600   4.151  11.006  0.00  0.00    +0.000 C 
BRANCH  16  17
ATOM     17  O   UNL     1      43.734   4.626   9.656  0.00  0.00    +0.000 OA
BRANCH  17  18
ATOM     18  C   UNL     1      44.696   3.933   8.955  0.00  0.00    +0.000 A 
ATOM     19  C   UNL     1      44.751   2.561   9.142  0.00  0.00    +0.000 A 
ATOM     20  C   UNL     1      45.711   1.839   8.434  0.00  0.00    +0.000 A 
ATOM     21  C   UNL     1      46.578   2.506   7.561  0.00  0.00    +0.000 A 
ATOM     22  C   UNL     1      46.436   3.879   7.446  0.00  0.00    +0.000 A 
ATOM     23  N   UNL     1      45.521   4.605   8.125  0.00  0.00    +0.000 NA
BRANCH  21  24
ATOM     24  C   UNL     1      47.596   1.735   6.807  0.00  0.00    +0.000 C 
ATOM     25  N   UNL     1      48.718   2.374   6.365  0.00  0.00    +0.000 N 
ATOM     26  O   UNL     1      47.441   0.539   6.583  0.00  0.00    +0.000 OA
ATOM     27  H   UNL     1      48.948   3.345   6.495  0.00  0.00    +0.000 HD
ATOM     28  H   UNL     1      49.389   1.805   5.858  0.00  0.00    +0.000 HD
ENDBRANCH  21  24
ENDBRANCH  17  18
ENDBRANCH  16  17
ENDBRANCH   2  16
TORSDOF 7
ENDMDL
MODEL 2
REMARK VINA RESULT:    -6.506      4.748      6.919
REMARK INTER + INTRA:         -10.251
REMARK INTER:                  -8.848
REMARK INTRA:                  -1.403
REMARK UNBOUND:                -1.083
REMARK  Name = 
REMARK  8 active torsions:
REMARK  status: ('A' for Active; 'I' for Inactive)
REMARK    1  A    between atoms: C_1  and  C_2
REMARK    2  A    between atoms: C_2  and  C_3
REMARK    3  A    between atoms: C_2  and  C_14
REMARK    4  A    between atoms: C_3  and  O_4
REMARK    5  A    between atoms: O_4  and  C_5
REMARK    6  A    between atoms: C_8  and  C_9
REMARK    7  A    between atoms: C_20  and  O_21
REMARK    8  A    between atoms: O_21  and  C_22
REMARK                            x       y       z     vdW  Elec       q    Type
REMARK                         _______ _______ _______ _____ _____    ______ ____
ROOT
ATOM      1  C   UNL     1      50.585   7.725  14.878  0.00  0.00    +0.000 C 
ATOM      2  C   UNL     1      49.461   6.892  15.528  0.00  0.00    +0.000 C 
ENDROOT
BRANCH   2   3
ATOM      3  C   UNL     1      48.842   7.520  16.792  0.00  0.00    +0.000 A 
ATOM      4  C   UNL     1      48.315   8.827  16.747  0.00  0.00    +0.000 A 
ATOM      5  C   UNL     1      47.773   9.429  17.877  0.00  0.00    +0.000 A 
ATOM      6  C   UNL     1      47.721   8.725  19.071  0.00  0.00    +0.000 A 
ATOM      7  C   UNL     1      48.212   7.414  19.153  0.00  0.00    +0.000 A 
ATOM      8 CL   UNL     1      47.965   6.646  20.680  0.00  0.00    +0.000 Cl
ATOM      9  C   UNL     1      48.797   6.806  18.027  0.00  0.00    +0.000 A 
BRANCH   9  10
ATOM     10  O   UNL     1      49.273   5.516  17.940  0.00  0.00    +0.000 OA
BRANCH  10  11
ATOM     11  C   UNL     1      48.456   4.344  18.145  0.00  0.00    +0.000 C 
ATOM     12  C   UNL     1      48.646   3.133  17.214  0.00  0.00    +0.000 C 
ATOM     13  N   UNL     1      47.217   3.149  16.864  0.00  0.00    +0.000 NA
ATOM     14  C   UNL     1      47.044   4.446  17.527  0.00  0.00    +0.000 C 
ATOM     15  H   UNL     1      46.674   2.395  17.283  0.00  0.00    +0.000 HD
ENDBRANCH  10  11
ENDBRANCH   9  10
ENDBRANCH   2   3
BRANCH   2  16
ATOM     16  C   UNL     1      48.388   6.577  14.465  0.00  0.00    +0.000 C 
BRANCH  16  17
ATOM     17  O   UNL     1      48.025   5.188  14.517  0.00  0.00    +0.000 OA
BRANCH  17  18
ATOM     18  C   UNL     1      47.027   4.878  13.619  0.00  0.00    +0.000 A 
ATOM     19  C   UNL     1      46.597   5.889  12.776  0.00  0.00    +0.000 A 
ATOM     20  C   UNL     1      45.595   5.594  11.852  0.00  0.00    +0.000 A 
ATOM     21  C   UNL     1      45.060   4.302  11.797  0.00  0.00    +0.000 A 
ATOM     22  C   UNL     1      45.563   3.364  12.684  0.00  0.00    +0.000 A 
ATOM     23  N   UNL     1      46.527   3.624  13.593  0.00  0.00    +0.000 NA
BRANCH  21  24
ATOM     24  C   UNL     1      43.996   3.990  10.812  0.00  0.00    +0.000 C 
ATOM     25  N   UNL     1      43.900   4.744   9.678  0.00  0.00    +0.000 N 
ATOM     26  O   UNL     1      43.212   3.067  11.004  0.00  0.00    +0.000 OA
ATOM     27  H   UNL     1      44.489   5.519   9.419  0.00  0.00    +0.000 HD
ATOM     28  H   UNL     1      43.159   4.491   9.031  0.00  0.00    +0.000 HD
ENDBRANCH  21  24
ENDBRANCH  17  18
ENDBRANCH  16  17
ENDBRANCH   2  16
TORSDOF 7
ENDMDL
MODEL 3
REMARK VINA RESULT:    -6.370      5.235      7.230
REMARK INTER + INTRA:         -10.060
REMARK INTER:                  -9.085
REMARK INTRA:                  -0.976
REMARK UNBOUND:                -1.083
REMARK  Name = 
REMARK  8 active torsions:
REMARK  status: ('A' for Active; 'I' for Inactive)
REMARK    1  A    between atoms: C_1  and  C_2
REMARK    2  A    between atoms: C_2  and  C_3
REMARK    3  A    between atoms: C_2  and  C_14
REMARK    4  A    between atoms: C_3  and  O_4
REMARK    5  A    between atoms: O_4  and  C_5
REMARK    6  A    between atoms: C_8  and  C_9
REMARK    7  A    between atoms: C_20  and  O_21
REMARK    8  A    between atoms: O_21  and  C_22
REMARK                            x       y       z     vdW  Elec       q    Type
REMARK                         _______ _______ _______ _____ _____    ______ ____
ROOT
ATOM      1  C   UNL     1      46.974   2.748  17.774  0.00  0.00    +0.000 C 
ATOM      2  C   UNL     1      47.993   3.521  16.912  0.00  0.00    +0.000 C 
ENDROOT
BRANCH   2   3
ATOM      3  C   UNL     1      49.469   3.250  17.261  0.00  0.00    +0.000 A 
ATOM      4  C   UNL     1      50.044   1.994  16.977  0.00  0.00    +0.000 A 
ATOM      5  C   UNL     1      51.365   1.711  17.303  0.00  0.00    +0.000 A 
ATOM      6  C   UNL     1      52.150   2.690  17.896  0.00  0.00    +0.000 A 
ATOM      7  C   UNL     1      51.624   3.960  18.174  0.00  0.00    +0.000 A 
ATOM      8 CL   UNL     1      52.767   5.091  18.805  0.00  0.00    +0.000 Cl
ATOM      9  C   UNL     1      50.279   4.248  17.883  0.00  0.00    +0.000 A 
BRANCH   9  10
ATOM     10  O   UNL     1      49.639   5.456  18.050  0.00  0.00    +0.000 OA
BRANCH  10  11
ATOM     11  C   UNL     1      49.139   5.933  19.318  0.00  0.00    +0.000 C 
ATOM     12  C   UNL     1      48.782   4.908  20.409  0.00  0.00    +0.000 C 
ATOM     13  N   UNL     1      47.422   5.460  20.515  0.00  0.00    +0.000 NA
ATOM     14  C   UNL     1      47.632   6.272  19.312  0.00  0.00    +0.000 C 
ATOM     15  H   UNL     1      47.256   6.006  21.359  0.00  0.00    +0.000 HD
ENDBRANCH  10  11
ENDBRANCH   9  10
ENDBRANCH   2   3
BRANCH   2  16
ATOM     16  C   UNL     1      47.701   3.250  15.422  0.00  0.00    +0.000 C 
BRANCH  16  17
ATOM     17  O   UNL     1      47.730   4.478  14.675  0.00  0.00    +0.000 OA
BRANCH  17  18
ATOM     18  C   UNL     1      46.731   4.532  13.728  0.00  0.00    +0.000 A 
ATOM     19  C   UNL     1      46.341   5.787  13.290  0.00  0.00    +0.000 A 
ATOM     20  C   UNL     1      45.338   5.864  12.323  0.00  0.00    +0.000 A 
ATOM     21  C   UNL     1      44.764   4.690  11.823  0.00  0.00    +0.000 A 
ATOM     22  C   UNL     1      45.230   3.486  12.327  0.00  0.00    +0.000 A 
ATOM     23  N   UNL     1      46.193   3.383  13.268  0.00  0.00    +0.000 NA
BRANCH  21  24
ATOM     24  C   UNL     1      43.700   4.774  10.793  0.00  0.00    +0.000 C 
ATOM     25  N   UNL     1      44.026   4.564   9.485  0.00  0.00    +0.000 N 
ATOM     26  O   UNL     1      42.541   5.026  11.106  0.00  0.00    +0.000 OA
ATOM     27  H   UNL     1      44.938   4.348   9.119  0.00  0.00    +0.000 HD
ATOM     28  H   UNL     1      43.264   4.627   8.816  0.00  0.00    +0.000 HD
ENDBRANCH  21  24
ENDBRANCH  17  18
ENDBRANCH  16  17
ENDBRANCH   2  16
TORSDOF 7
ENDMDL
MODEL 4
REMARK VINA RESULT:    -5.722      3.942      6.040
REMARK INTER + INTRA:          -9.148
REMARK INTER:                  -8.158
REMARK INTRA:                  -0.990
REMARK UNBOUND:                -1.083
REMARK  Name = 
REMARK  8 active torsions:
REMARK  status: ('A' for Active; 'I' for Inactive)
REMARK    1  A    between atoms: C_1  and  C_2
REMARK    2  A    between atoms: C_2  and  C_3
REMARK    3  A    between atoms: C_2  and  C_14
REMARK    4  A    between atoms: C_3  and  O_4
REMARK    5  A    between atoms: O_4  and  C_5
REMARK    6  A    between atoms: C_8  and  C_9
REMARK    7  A    between atoms: C_20  and  O_21
REMARK    8  A    between atoms: O_21  and  C_22
REMARK                            x       y       z     vdW  Elec       q    Type
REMARK                         _______ _______ _______ _____ _____    ______ ____
ROOT
ATOM      1  C   UNL     1      49.124   7.970  12.190  0.00  0.00    +0.000 C 
ATOM      2  C   UNL     1      48.675   7.295  13.502  0.00  0.00    +0.000 C 
ENDROOT
BRANCH   2   3
ATOM      3  C   UNL     1      49.438   7.756  14.758  0.00  0.00    +0.000 A 
ATOM      4  C   UNL     1      49.907   9.081  14.855  0.00  0.00    +0.000 A 
ATOM      5  C   UNL     1      50.620   9.520  15.965  0.00  0.00    +0.000 A 
ATOM      6  C   UNL     1      50.854   8.646  17.017  0.00  0.00    +0.000 A 
ATOM      7  C   UNL     1      50.385   7.326  16.972  0.00  0.00    +0.000 A 
ATOM      8 CL   UNL     1      50.665   6.412  18.411  0.00  0.00    +0.000 Cl
ATOM      9  C   UNL     1      49.694   6.859  15.839  0.00  0.00    +0.000 A 
BRANCH   9  10
ATOM     10  O   UNL     1      49.131   5.613  15.672  0.00  0.00    +0.000 OA
BRANCH  10  11
ATOM     11  C   UNL     1      47.961   5.158  16.384  0.00  0.00    +0.000 C 
ATOM     12  C   UNL     1      48.139   4.182  17.561  0.00  0.00    +0.000 C 
ATOM     13  N   UNL     1      47.213   3.225  16.938  0.00  0.00    +0.000 NA
ATOM     14  C   UNL     1      47.215   3.996  15.690  0.00  0.00    +0.000 C 
ATOM     15  H   UNL     1      46.300   3.171  17.389  0.00  0.00    +0.000 HD
ENDBRANCH  10  11
ENDBRANCH   9  10
ENDBRANCH   2   3
BRANCH   2  16
ATOM     16  C   UNL     1      47.151   7.473  13.664  0.00  0.00    +0.000 C 
BRANCH  16  17
ATOM     17  O   UNL     1      46.518   7.559  12.376  0.00  0.00    +0.000 OA
BRANCH  17  18
ATOM     18  C   UNL     1      45.871   6.391  12.037  0.00  0.00    +0.000 A 
ATOM     19  C   UNL     1      45.768   6.092  10.688  0.00  0.00    +0.000 A 
ATOM     20  C   UNL     1      45.125   4.909  10.324  0.00  0.00    +0.000 A 
ATOM     21  C   UNL     1      44.613   4.063  11.315  0.00  0.00    +0.000 A 
ATOM     22  C   UNL     1      44.771   4.456  12.634  0.00  0.00    +0.000 A 
ATOM     23  N   UNL     1      45.382   5.599  13.015  0.00  0.00    +0.000 NA
BRANCH  21  24
ATOM     24  C   UNL     1      43.932   2.805  10.925  0.00  0.00    +0.000 C 
ATOM     25  N   UNL     1      44.430   2.077   9.883  0.00  0.00    +0.000 N 
ATOM     26  O   UNL     1      42.937   2.415  11.527  0.00  0.00    +0.000 OA
ATOM     27  H   UNL     1      45.237   2.300   9.324  0.00  0.00    +0.000 HD
ATOM     28  H   UNL     1      43.934   1.221   9.655  0.00  0.00    +0.000 HD
ENDBRANCH  21  24
ENDBRANCH  17  18
ENDBRANCH  16  17
ENDBRANCH   2  16
TORSDOF 7
ENDMDL
MODEL 5
REMARK VINA RESULT:    -5.607      4.369      6.734
REMARK INTER + INTRA:          -8.985
REMARK INTER:                  -7.434
REMARK INTRA:                  -1.552
REMARK UNBOUND:                -1.083
REMARK  Name = 
REMARK  8 active torsions:
REMARK  status: ('A' for Active; 'I' for Inactive)
REMARK    1  A    between atoms: C_1  and  C_2
REMARK    2  A    between atoms: C_2  and  C_3
REMARK    3  A    between atoms: C_2  and  C_14
REMARK    4  A    between atoms: C_3  and  O_4
REMARK    5  A    between atoms: O_4  and  C_5
REMARK    6  A    between atoms: C_8  and  C_9
REMARK    7  A    between atoms: C_20  and  O_21
REMARK    8  A    between atoms: O_21  and  C_22
REMARK                            x       y       z     vdW  Elec       q    Type
REMARK                         _______ _______ _______ _____ _____    ______ ____
ROOT
ATOM      1  C   UNL     1      51.407   8.497  11.031  0.00  0.00    +0.000 C 
ATOM      2  C   UNL     1      50.263   8.524  12.065  0.00  0.00    +0.000 C 
ENDROOT
BRANCH   2   3
ATOM      3  C   UNL     1      49.578   9.894  12.232  0.00  0.00    +0.000 A 
ATOM      4  C   UNL     1      48.878  10.471  11.153  0.00  0.00    +0.000 A 
ATOM      5  C   UNL     1      48.270  11.717  11.265  0.00  0.00    +0.000 A 
ATOM      6  C   UNL     1      48.326  12.400  12.472  0.00  0.00    +0.000 A 
ATOM      7  C   UNL     1      48.992  11.851  13.577  0.00  0.00    +0.000 A 
ATOM      8 CL   UNL     1      48.867  12.779  15.028  0.00  0.00    +0.000 Cl
ATOM      9  C   UNL     1      49.642  10.609  13.466  0.00  0.00    +0.000 A 
BRANCH   9  10
ATOM     10  O   UNL     1      50.288   9.923  14.471  0.00  0.00    +0.000 OA
BRANCH  10  11
ATOM     11  C   UNL     1      49.614   9.341  15.607  0.00  0.00    +0.000 C 
ATOM     12  C   UNL     1      49.878   7.864  15.953  0.00  0.00    +0.000 C 
ATOM     13  N   UNL     1      48.438   7.569  15.894  0.00  0.00    +0.000 NA
ATOM     14  C   UNL     1      48.166   8.889  15.315  0.00  0.00    +0.000 C 
ATOM     15  H   UNL     1      48.003   7.420  16.804  0.00  0.00    +0.000 HD
ENDBRANCH  10  11
ENDBRANCH   9  10
ENDBRANCH   2   3
BRANCH   2  16
ATOM     16  C   UNL     1      49.246   7.417  11.719  0.00  0.00    +0.000 C 
BRANCH  16  17
ATOM     17  O   UNL     1      49.067   6.535  12.840  0.00  0.00    +0.000 OA
BRANCH  17  18
ATOM     18  C   UNL     1      47.779   6.054  12.921  0.00  0.00    +0.000 A 
ATOM     19  C   UNL     1      46.873   6.504  11.974  0.00  0.00    +0.000 A 
ATOM     20  C   UNL     1      45.566   6.021  12.032  0.00  0.00    +0.000 A 
ATOM     21  C   UNL     1      45.208   5.103  13.026  0.00  0.00    +0.000 A 
ATOM     22  C   UNL     1      46.191   4.717  13.923  0.00  0.00    +0.000 A 
ATOM     23  N   UNL     1      47.462   5.174  13.895  0.00  0.00    +0.000 NA
BRANCH  21  24
ATOM     24  C   UNL     1      43.818   4.590  13.084  0.00  0.00    +0.000 C 
ATOM     25  N   UNL     1      42.782   5.479  13.087  0.00  0.00    +0.000 N 
ATOM     26  O   UNL     1      43.594   3.384  13.126  0.00  0.00    +0.000 OA
ATOM     27  H   UNL     1      42.851   6.482  13.052  0.00  0.00    +0.000 HD
ATOM     28  H   UNL     1      41.848   5.081  13.123  0.00  0.00    +0.000 HD
ENDBRANCH  21  24
ENDBRANCH  17  18
ENDBRANCH  16  17
ENDBRANCH   2  16
TORSDOF 7
ENDMDL
MODEL 6
REMARK VINA RESULT:    -5.433      1.867      2.399
REMARK INTER + INTRA:          -8.739
REMARK INTER:                  -7.914
REMARK INTRA:                  -0.826
REMARK UNBOUND:                -1.083
REMARK  Name = 
REMARK  8 active torsions:
REMARK  status: ('A' for Active; 'I' for Inactive)
REMARK    1  A    between atoms: C_1  and  C_2
REMARK    2  A    between atoms: C_2  and  C_3
REMARK    3  A    between atoms: C_2  and  C_14
REMARK    4  A    between atoms: C_3  and  O_4
REMARK    5  A    between atoms: O_4  and  C_5
REMARK    6  A    between atoms: C_8  and  C_9
REMARK    7  A    between atoms: C_20  and  O_21
REMARK    8  A    between atoms: O_21  and  C_22
REMARK                            x       y       z     vdW  Elec       q    Type
REMARK                         _______ _______ _______ _____ _____    ______ ____
ROOT
ATOM      1  C   UNL     1      43.189   2.853  11.658  0.00  0.00    +0.000 C 
ATOM      2  C   UNL     1      44.419   3.575  11.069  0.00  0.00    +0.000 C 
ENDROOT
BRANCH   2   3
ATOM      3  C   UNL     1      45.440   4.064  12.113  0.00  0.00    +0.000 A 
ATOM      4  C   UNL     1      46.123   3.135  12.925  0.00  0.00    +0.000 A 
ATOM      5  C   UNL     1      47.031   3.548  13.893  0.00  0.00    +0.000 A 
ATOM      6  C   UNL     1      47.299   4.900  14.049  0.00  0.00    +0.000 A 
ATOM      7  C   UNL     1      46.660   5.856  13.246  0.00  0.00    +0.000 A 
ATOM      8 CL   UNL     1      47.193   7.480  13.496  0.00  0.00    +0.000 Cl
ATOM      9  C   UNL     1      45.711   5.455  12.289  0.00  0.00    +0.000 A 
BRANCH   9  10
ATOM     10  O   UNL     1      45.044   6.266  11.397  0.00  0.00    +0.000 OA
BRANCH  10  11
ATOM     11  C   UNL     1      44.171   7.346  11.792  0.00  0.00    +0.000 C 
ATOM     12  C   UNL     1      42.823   7.515  11.071  0.00  0.00    +0.000 C 
ATOM     13  N   UNL     1      43.155   8.906  10.726  0.00  0.00    +0.000 NA
ATOM     14  C   UNL     1      44.540   8.712  11.169  0.00  0.00    +0.000 C 
ATOM     15  H   UNL     1      42.643   9.605  11.263  0.00  0.00    +0.000 HD
ENDBRANCH  10  11
ENDBRANCH   9  10
ENDBRANCH   2   3
BRANCH   2  16
ATOM     16  C   UNL     1      45.077   2.665  10.010  0.00  0.00    +0.000 C 
BRANCH  16  17
ATOM     17  O   UNL     1      45.878   3.446   9.108  0.00  0.00    +0.000 OA
BRANCH  17  18
ATOM     18  C   UNL     1      46.209   2.746   7.969  0.00  0.00    +0.000 A 
ATOM     19  C   UNL     1      46.198   3.442   6.771  0.00  0.00    +0.000 A 
ATOM     20  C   UNL     1      46.541   2.753   5.608  0.00  0.00    +0.000 A 
ATOM     21  C   UNL     1      46.886   1.399   5.677  0.00  0.00    +0.000 A 
ATOM     22  C   UNL     1      46.867   0.799   6.926  0.00  0.00    +0.000 A 
ATOM     23  N   UNL     1      46.532   1.439   8.068  0.00  0.00    +0.000 NA
BRANCH  21  24
ATOM     24  C   UNL     1      47.252   0.670   4.439  0.00  0.00    +0.000 C 
ATOM     25  N   UNL     1      46.858  -0.628   4.293  0.00  0.00    +0.000 N 
ATOM     26  O   UNL     1      47.897   1.220   3.552  0.00  0.00    +0.000 OA
ATOM     27  H   UNL     1      46.326  -1.174   4.951  0.00  0.00    +0.000 HD
ATOM     28  H   UNL     1      47.127  -1.086   3.427  0.00  0.00    +0.000 HD
ENDBRANCH  21  24
ENDBRANCH  17  18
ENDBRANCH  16  17
ENDBRANCH   2  16
TORSDOF 7
ENDMDL
MODEL 7
REMARK VINA RESULT:    -5.385      5.745      7.855
REMARK INTER + INTRA:          -8.673
REMARK INTER:                  -7.801
REMARK INTRA:                  -0.871
REMARK UNBOUND:                -1.083
REMARK  Name = 
REMARK  8 active torsions:
REMARK  status: ('A' for Active; 'I' for Inactive)
REMARK    1  A    between atoms: C_1  and  C_2
REMARK    2  A    between atoms: C_2  and  C_3
REMARK    3  A    between atoms: C_2  and  C_14
REMARK    4  A    between atoms: C_3  and  O_4
REMARK    5  A    between atoms: O_4  and  C_5
REMARK    6  A    between atoms: C_8  and  C_9
REMARK    7  A    between atoms: C_20  and  O_21
REMARK    8  A    between atoms: O_21  and  C_22
REMARK                            x       y       z     vdW  Elec       q    Type
REMARK                         _______ _______ _______ _____ _____    ______ ____
ROOT
ATOM      1  C   UNL     1      48.835   6.697  15.990  0.00  0.00    +0.000 C 
ATOM      2  C   UNL     1      48.641   5.344  16.704  0.00  0.00    +0.000 C 
ENDROOT
BRANCH   2   3
ATOM      3  C   UNL     1      48.578   5.428  18.241  0.00  0.00    +0.000 A 
ATOM      4  C   UNL     1      47.370   5.770  18.882  0.00  0.00    +0.000 A 
ATOM      5  C   UNL     1      47.288   5.879  20.265  0.00  0.00    +0.000 A 
ATOM      6  C   UNL     1      48.409   5.619  21.040  0.00  0.00    +0.000 A 
ATOM      7  C   UNL     1      49.624   5.253  20.445  0.00  0.00    +0.000 A 
ATOM      8 CL   UNL     1      50.883   4.855  21.559  0.00  0.00    +0.000 Cl
ATOM      9  C   UNL     1      49.730   5.175  19.044  0.00  0.00    +0.000 A 
BRANCH   9  10
ATOM     10  O   UNL     1      50.835   4.781  18.321  0.00  0.00    +0.000 OA
BRANCH  10  11
ATOM     11  C   UNL     1      52.035   5.573  18.191  0.00  0.00    +0.000 C 
ATOM     12  C   UNL     1      52.466   6.047  16.792  0.00  0.00    +0.000 C 
ATOM     13  N   UNL     1      53.789   5.429  16.964  0.00  0.00    +0.000 NA
ATOM     14  C   UNL     1      53.338   4.743  18.180  0.00  0.00    +0.000 C 
ATOM     15  H   UNL     1      54.545   6.094  17.122  0.00  0.00    +0.000 HD
ENDBRANCH  10  11
ENDBRANCH   9  10
ENDBRANCH   2   3
BRANCH   2  16
ATOM     16  C   UNL     1      47.397   4.641  16.121  0.00  0.00    +0.000 C 
BRANCH  16  17
ATOM     17  O   UNL     1      47.712   4.037  14.855  0.00  0.00    +0.000 OA
BRANCH  17  18
ATOM     18  C   UNL     1      46.756   4.306  13.900  0.00  0.00    +0.000 A 
ATOM     19  C   UNL     1      46.425   5.635  13.692  0.00  0.00    +0.000 A 
ATOM     20  C   UNL     1      45.467   5.929  12.722  0.00  0.00    +0.000 A 
ATOM     21  C   UNL     1      44.877   4.892  11.990  0.00  0.00    +0.000 A 
ATOM     22  C   UNL     1      45.282   3.599  12.276  0.00  0.00    +0.000 A 
ATOM     23  N   UNL     1      46.201   3.284  13.214  0.00  0.00    +0.000 NA
BRANCH  21  24
ATOM     24  C   UNL     1      43.860   5.209  10.958  0.00  0.00    +0.000 C 
ATOM     25  N   UNL     1      43.868   4.511   9.785  0.00  0.00    +0.000 N 
ATOM     26  O   UNL     1      43.020   6.081  11.149  0.00  0.00    +0.000 OA
ATOM     27  H   UNL     1      44.506   3.777   9.525  0.00  0.00    +0.000 HD
ATOM     28  H   UNL     1      43.151   4.759   9.109  0.00  0.00    +0.000 HD
ENDBRANCH  21  24
ENDBRANCH  17  18
ENDBRANCH  16  17
ENDBRANCH   2  16
TORSDOF 7
ENDMDL
MODEL 8
REMARK VINA RESULT:    -5.382      5.100      7.656
REMARK INTER + INTRA:          -8.668
REMARK INTER:                  -7.507
REMARK INTRA:                  -1.162
REMARK UNBOUND:                -1.083
REMARK  Name = 
REMARK  8 active torsions:
REMARK  status: ('A' for Active; 'I' for Inactive)
REMARK    1  A    between atoms: C_1  and  C_2
REMARK    2  A    between atoms: C_2  and  C_3
REMARK    3  A    between atoms: C_2  and  C_14
REMARK    4  A    between atoms: C_3  and  O_4
REMARK    5  A    between atoms: O_4  and  C_5
REMARK    6  A    between atoms: C_8  and  C_9
REMARK    7  A    between atoms: C_20  and  O_21
REMARK    8  A    between atoms: O_21  and  C_22
REMARK                            x       y       z     vdW  Elec       q    Type
REMARK                         _______ _______ _______ _____ _____    ______ ____
ROOT
ATOM      1  C   UNL     1      48.993   7.957  17.651  0.00  0.00    +0.000 C 
ATOM      2  C   UNL     1      49.251   6.887  16.571  0.00  0.00    +0.000 C 
ENDROOT
BRANCH   2   3
ATOM      3  C   UNL     1      48.889   5.449  16.988  0.00  0.00    +0.000 A 
ATOM      4  C   UNL     1      47.554   5.116  17.294  0.00  0.00    +0.000 A 
ATOM      5  C   UNL     1      47.200   3.833  17.698  0.00  0.00    +0.000 A 
ATOM      6  C   UNL     1      48.172   2.847  17.777  0.00  0.00    +0.000 A 
ATOM      7  C   UNL     1      49.508   3.130  17.459  0.00  0.00    +0.000 A 
ATOM      8 CL   UNL     1      50.564   1.763  17.500  0.00  0.00    +0.000 Cl
ATOM      9  C   UNL     1      49.886   4.432  17.085  0.00  0.00    +0.000 A 
BRANCH   9  10
ATOM     10  O   UNL     1      51.141   4.848  16.696  0.00  0.00    +0.000 OA
BRANCH  10  11
ATOM     11  C   UNL     1      52.267   4.949  17.594  0.00  0.00    +0.000 C 
ATOM     12  C   UNL     1      52.139   5.825  18.853  0.00  0.00    +0.000 C 
ATOM     13  N   UNL     1      53.331   6.595  18.467  0.00  0.00    +0.000 NA
ATOM     14  C   UNL     1      53.340   5.966  17.142  0.00  0.00    +0.000 C 
ATOM     15  H   UNL     1      54.159   6.393  19.026  0.00  0.00    +0.000 HD
ENDBRANCH  10  11
ENDBRANCH   9  10
ENDBRANCH   2   3
BRANCH   2  16
ATOM     16  C   UNL     1      48.532   7.301  15.270  0.00  0.00    +0.000 C 
BRANCH  16  17
ATOM     17  O   UNL     1      48.497   6.200  14.346  0.00  0.00    +0.000 OA
BRANCH  17  18
ATOM     18  C   UNL     1      47.253   6.040  13.777  0.00  0.00    +0.000 A 
ATOM     19  C   UNL     1      46.680   4.781  13.849  0.00  0.00    +0.000 A 
ATOM     20  C   UNL     1      45.416   4.600  13.287  0.00  0.00    +0.000 A 
ATOM     21  C   UNL     1      44.765   5.680  12.680  0.00  0.00    +0.000 A 
ATOM     22  C   UNL     1      45.426   6.897  12.664  0.00  0.00    +0.000 A 
ATOM     23  N   UNL     1      46.653   7.099  13.193  0.00  0.00    +0.000 NA
BRANCH  21  24
ATOM     24  C   UNL     1      43.420   5.485  12.086  0.00  0.00    +0.000 C 
ATOM     25  N   UNL     1      43.253   5.683  10.746  0.00  0.00    +0.000 N 
ATOM     26  O   UNL     1      42.468   5.149  12.781  0.00  0.00    +0.000 OA
ATOM     27  H   UNL     1      43.961   5.956  10.084  0.00  0.00    +0.000 HD
ATOM     28  H   UNL     1      42.316   5.534  10.383  0.00  0.00    +0.000 HD
ENDBRANCH  21  24
ENDBRANCH  17  18
ENDBRANCH  16  17
ENDBRANCH   2  16
TORSDOF 7
ENDMDL
MODEL 9
REMARK VINA RESULT:    -5.318      5.487      7.784
REMARK INTER + INTRA:          -8.577
REMARK INTER:                  -8.145
REMARK INTRA:                  -0.432
REMARK UNBOUND:                -1.083
REMARK  Name = 
REMARK  8 active torsions:
REMARK  status: ('A' for Active; 'I' for Inactive)
REMARK    1  A    between atoms: C_1  and  C_2
REMARK    2  A    between atoms: C_2  and  C_3
REMARK    3  A    between atoms: C_2  and  C_14
REMARK    4  A    between atoms: C_3  and  O_4
REMARK    5  A    between atoms: O_4  and  C_5
REMARK    6  A    between atoms: C_8  and  C_9
REMARK    7  A    between atoms: C_20  and  O_21
REMARK    8  A    between atoms: O_21  and  C_22
REMARK                            x       y       z     vdW  Elec       q    Type
REMARK                         _______ _______ _______ _____ _____    ______ ____
ROOT
ATOM      1  C   UNL     1      48.988   7.952  15.454  0.00  0.00    +0.000 C 
ATOM      2  C   UNL     1      48.942   6.587  16.169  0.00  0.00    +0.000 C 
ENDROOT
BRANCH   2   3
ATOM      3  C   UNL     1      48.607   6.657  17.671  0.00  0.00    +0.000 A 
ATOM      4  C   UNL     1      48.029   7.822  18.214  0.00  0.00    +0.000 A 
ATOM      5  C   UNL     1      47.738   7.925  19.569  0.00  0.00    +0.000 A 
ATOM      6  C   UNL     1      47.995   6.850  20.408  0.00  0.00    +0.000 A 
ATOM      7  C   UNL     1      48.547   5.663  19.906  0.00  0.00    +0.000 A 
ATOM      8 CL   UNL     1      48.694   4.390  21.063  0.00  0.00    +0.000 Cl
ATOM      9  C   UNL     1      48.880   5.560  18.543  0.00  0.00    +0.000 A 
BRANCH   9  10
ATOM     10  O   UNL     1      49.378   4.449  17.897  0.00  0.00    +0.000 OA
BRANCH  10  11
ATOM     11  C   UNL     1      50.784   4.218  17.664  0.00  0.00    +0.000 C 
ATOM     12  C   UNL     1      51.300   2.770  17.602  0.00  0.00    +0.000 C 
ATOM     13  N   UNL     1      52.287   3.052  18.656  0.00  0.00    +0.000 NA
ATOM     14  C   UNL     1      51.661   4.351  18.929  0.00  0.00    +0.000 C 
ATOM     15  H   UNL     1      53.248   3.119  18.323  0.00  0.00    +0.000 HD
ENDBRANCH  10  11
ENDBRANCH   9  10
ENDBRANCH   2   3
BRANCH   2  16
ATOM     16  C   UNL     1      47.973   5.654  15.413  0.00  0.00    +0.000 C 
BRANCH  16  17
ATOM     17  O   UNL     1      48.180   5.763  13.994  0.00  0.00    +0.000 OA
BRANCH  17  18
ATOM     18  C   UNL     1      46.997   5.713  13.292  0.00  0.00    +0.000 A 
ATOM     19  C   UNL     1      46.039   4.812  13.728  0.00  0.00    +0.000 A 
ATOM     20  C   UNL     1      44.829   4.754  13.036  0.00  0.00    +0.000 A 
ATOM     21  C   UNL     1      44.613   5.596  11.940  0.00  0.00    +0.000 A 
ATOM     22  C   UNL     1      45.637   6.462  11.589  0.00  0.00    +0.000 A 
ATOM     23  N   UNL     1      46.820   6.535  12.235  0.00  0.00    +0.000 NA
BRANCH  21  24
ATOM     24  C   UNL     1      43.325   5.533  11.208  0.00  0.00    +0.000 C 
ATOM     25  N   UNL     1      42.233   6.163  11.733  0.00  0.00    +0.000 N 
ATOM     26  O   UNL     1      43.234   4.929  10.145  0.00  0.00    +0.000 OA
ATOM     27  H   UNL     1      42.195   6.687  12.591  0.00  0.00    +0.000 HD
ATOM     28  H   UNL     1      41.374   6.097  11.195  0.00  0.00    +0.000 HD
ENDBRANCH  21  24
ENDBRANCH  17  18
ENDBRANCH  16  17
ENDBRANCH   2  16
TORSDOF 7
ENDMDL
