MODEL 1
REMARK VINA RESULT:    -6.941      0.000      0.000
REMARK INTER + INTRA:         -11.271
REMARK INTER:                 -10.390
REMARK INTRA:                  -0.881
REMARK UNBOUND:                -0.881
REMARK  Name = 
REMARK  10 active torsions:
REMARK  status: ('A' for Active; 'I' for Inactive)
REMARK    1  A    between atoms: C_1  and  C_2
REMARK    2  A    between atoms: C_2  and  N_3
REMARK    3  A    between atoms: N_3  and  C_4
REMARK    4  A    between atoms: C_7  and  C_8
REMARK    5  A    between atoms: C_12  and  N_13
REMARK    6  A    between atoms: N_13  and  C_14
REMARK    7  A    between atoms: C_14  and  C_15
REMARK    8  A    between atoms: C_15  and  C_16
REMARK    9  A    between atoms: C_20  and  C_21
REMARK   10  A    between atoms: C_21  and  N_22
REMARK                            x       y       z     vdW  Elec       q    Type
REMARK                         _______ _______ _______ _____ _____    ______ ____
ROOT
ATOM      1  C   UNL     1      44.905   7.157  11.792  0.00  0.00    +0.000 A 
ATOM      2  C   UNL     1      46.032   7.508  12.552  0.00  0.00    +0.000 A 
ATOM      3  C   UNL     1      46.673   6.584  13.376  0.00  0.00    +0.000 A 
ATOM      4  C   UNL     1      46.216   5.270  13.452  0.00  0.00    +0.000 A 
ATOM      5  C   UNL     1      45.121   4.885  12.661  0.00  0.00    +0.000 A 
ATOM      6  C   UNL     1      44.483   5.794  11.781  0.00  0.00    +0.000 A 
ENDROOT
BRANCH   4   7
ATOM      7  C   UNL     1      46.942   4.357  14.382  0.00  0.00    +0.000 C 
ATOM      8  N   UNL     1      47.217   4.780  15.649  0.00  0.00    +0.000 N 
ATOM      9  O   UNL     1      47.293   3.231  14.034  0.00  0.00    +0.000 OA
ATOM     10  H   UNL     1      46.957   5.673  16.035  0.00  0.00    +0.000 HD
ATOM     11  H   UNL     1      47.699   4.123  16.251  0.00  0.00    +0.000 HD
ENDBRANCH   4   7
BRANCH   1  12
ATOM     12  N   UNL     1      44.213   8.117  11.038  0.00  0.00    +0.000 N 
ATOM     13  H   UNL     1      43.337   7.688  10.737  0.00  0.00    +0.000 HD
BRANCH  12  15
ATOM     14  C   UNL     1      44.736  10.429  10.530  0.00  0.00    +0.000 C 
ATOM     15  C   UNL     1      44.045   9.484  11.501  0.00  0.00    +0.000 C 
ENDBRANCH  12  15
ENDBRANCH   1  12
BRANCH   6  16
ATOM     16  N   UNL     1      43.362   5.300  11.042  0.00  0.00    +0.000 N 
ATOM     17  H   UNL     1      42.627   5.027  11.690  0.00  0.00    +0.000 HD
BRANCH  16  18
ATOM     18  C   UNL     1      43.614   4.191  10.099  0.00  0.00    +0.000 C 
BRANCH  18  19
ATOM     19  C   UNL     1      44.540   4.624   8.949  0.00  0.00    +0.000 C 
BRANCH  19  20
ATOM     20  C   UNL     1      45.388   3.448   8.513  0.00  0.00    +0.000 A 
ATOM     21  C   UNL     1      45.138   2.160   9.007  0.00  0.00    +0.000 A 
ATOM     22  C   UNL     1      45.837   1.063   8.504  0.00  0.00    +0.000 A 
ATOM     23  C   UNL     1      46.792   1.237   7.502  0.00  0.00    +0.000 A 
ATOM     24  C   UNL     1      47.065   2.516   6.997  0.00  0.00    +0.000 A 
ATOM     25  C   UNL     1      46.360   3.614   7.517  0.00  0.00    +0.000 A 
BRANCH  24  26
ATOM     26  C   UNL     1      48.101   2.718   5.922  0.00  0.00    +0.000 C 
BRANCH  26  27
ATOM     27  N   UNL     1      48.275   1.520   5.108  0.00  0.00    +0.000 NA
ATOM     28  H   UNL     1      48.353   1.798   4.130  0.00  0.00    +0.000 HD
ATOM     29  H   UNL     1      47.439   0.943   5.179  0.00  0.00    +0.000 HD
ENDBRANCH  26  27
ENDBRANCH  24  26
ENDBRANCH  19  20
ENDBRANCH  18  19
ENDBRANCH  16  18
ENDBRANCH   6  16
TORSDOF 9
ENDMDL
MODEL 2
REMARK VINA RESULT:    -6.809      2.487      7.016
REMARK INTER + INTRA:         -11.073
REMARK INTER:                 -10.115
REMARK INTRA:                  -0.957
REMARK UNBOUND:                -0.881
REMARK  Name = 
REMARK  10 active torsions:
REMARK  status: ('A' for Active; 'I' for Inactive)
REMARK    1  A    between atoms: C_1  and  C_2
REMARK    2  A    between atoms: C_2  and  N_3
REMARK    3  A    between atoms: N_3  and  C_4
REMARK    4  A    between atoms: C_7  and  C_8
REMARK    5  A    between atoms: C_12  and  N_13
REMARK    6  A    between atoms: N_13  and  C_14
REMARK    7  A    between atoms: C_14  and  C_15
REMARK    8  A    between atoms: C_15  and  C_16
REMARK    9  A    between atoms: C_20  and  C_21
REMARK   10  A    between atoms: C_21  and  N_22
REMARK                            x       y       z     vdW  Elec       q    Type
REMARK                         _______ _______ _______ _____ _____    ______ ____
ROOT
ATOM      1  C   UNL     1      44.688   3.139   9.729  0.00  0.00    +0.000 A 
ATOM      2  C   UNL     1      44.991   1.870   9.213  0.00  0.00    +0.000 A 
ATOM      3  C   UNL     1      45.837   1.710   8.117  0.00  0.00    +0.000 A 
ATOM      4  C   UNL     1      46.423   2.820   7.510  0.00  0.00    +0.000 A 
ATOM      5  C   UNL     1      46.174   4.095   8.042  0.00  0.00    +0.000 A 
ATOM      6  C   UNL     1      45.355   4.278   9.185  0.00  0.00    +0.000 A 
ENDROOT
BRANCH   4   7
ATOM      7  C   UNL     1      47.290   2.560   6.324  0.00  0.00    +0.000 C 
ATOM      8  N   UNL     1      48.521   2.001   6.510  0.00  0.00    +0.000 N 
ATOM      9  O   UNL     1      46.917   2.832   5.184  0.00  0.00    +0.000 OA
ATOM     10  H   UNL     1      48.909   1.726   7.396  0.00  0.00    +0.000 HD
ATOM     11  H   UNL     1      49.069   1.830   5.675  0.00  0.00    +0.000 HD
ENDBRANCH   4   7
BRANCH   1  12
ATOM     12  N   UNL     1      43.764   3.294  10.773  0.00  0.00    +0.000 N 
ATOM     13  H   UNL     1      42.958   2.709  10.551  0.00  0.00    +0.000 HD
BRANCH  12  15
ATOM     14  C   UNL     1      43.334   4.193  12.983  0.00  0.00    +0.000 C 
ATOM     15  C   UNL     1      44.159   3.209  12.169  0.00  0.00    +0.000 C 
ENDBRANCH  12  15
ENDBRANCH   1  12
BRANCH   6  16
ATOM     16  N   UNL     1      45.150   5.623   9.625  0.00  0.00    +0.000 N 
ATOM     17  H   UNL     1      44.963   6.215   8.820  0.00  0.00    +0.000 HD
BRANCH  16  18
ATOM     18  C   UNL     1      46.220   6.235  10.438  0.00  0.00    +0.000 C 
BRANCH  18  19
ATOM     19  C   UNL     1      45.670   6.827  11.748  0.00  0.00    +0.000 C 
BRANCH  19  20
ATOM     20  C   UNL     1      46.697   6.660  12.849  0.00  0.00    +0.000 A 
ATOM     21  C   UNL     1      47.621   7.675  13.129  0.00  0.00    +0.000 A 
ATOM     22  C   UNL     1      48.477   7.567  14.225  0.00  0.00    +0.000 A 
ATOM     23  C   UNL     1      48.419   6.448  15.055  0.00  0.00    +0.000 A 
ATOM     24  C   UNL     1      47.508   5.415  14.791  0.00  0.00    +0.000 A 
ATOM     25  C   UNL     1      46.657   5.531  13.680  0.00  0.00    +0.000 A 
BRANCH  24  26
ATOM     26  C   UNL     1      47.442   4.196  15.674  0.00  0.00    +0.000 C 
BRANCH  26  27
ATOM     27  N   UNL     1      47.674   2.969  14.918  0.00  0.00    +0.000 NA
ATOM     28  H   UNL     1      46.866   2.796  14.322  0.00  0.00    +0.000 HD
ATOM     29  H   UNL     1      47.730   2.184  15.564  0.00  0.00    +0.000 HD
ENDBRANCH  26  27
ENDBRANCH  24  26
ENDBRANCH  19  20
ENDBRANCH  18  19
ENDBRANCH  16  18
ENDBRANCH   6  16
TORSDOF 9
ENDMDL
MODEL 3
REMARK VINA RESULT:    -6.552      2.666      7.446
REMARK INTER + INTRA:         -10.689
REMARK INTER:                  -9.978
REMARK INTRA:                  -0.711
REMARK UNBOUND:                -0.881
REMARK  Name = 
REMARK  10 active torsions:
REMARK  status: ('A' for Active; 'I' for Inactive)
REMARK    1  A    between atoms: C_1  and  C_2
REMARK    2  A    between atoms: C_2  and  N_3
REMARK    3  A    between atoms: N_3  and  C_4
REMARK    4  A    between atoms: C_7  and  C_8
REMARK    5  A    between atoms: C_12  and  N_13
REMARK    6  A    between atoms: N_13  and  C_14
REMARK    7  A    between atoms: C_14  and  C_15
REMARK    8  A    between atoms: C_15  and  C_16
REMARK    9  A    between atoms: C_20  and  C_21
REMARK   10  A    between atoms: C_21  and  N_22
REMARK                            x       y       z     vdW  Elec       q    Type
REMARK                         _______ _______ _______ _____ _____    ______ ____
ROOT
ATOM      1  C   UNL     1      44.596   3.277   9.741  0.00  0.00    +0.000 A 
ATOM      2  C   UNL     1      44.859   2.029   9.157  0.00  0.00    +0.000 A 
ATOM      3  C   UNL     1      45.712   1.900   8.062  0.00  0.00    +0.000 A 
ATOM      4  C   UNL     1      46.345   3.020   7.525  0.00  0.00    +0.000 A 
ATOM      5  C   UNL     1      46.135   4.272   8.126  0.00  0.00    +0.000 A 
ATOM      6  C   UNL     1      45.309   4.420   9.269  0.00  0.00    +0.000 A 
ENDROOT
BRANCH   4   7
ATOM      7  C   UNL     1      47.216   2.796   6.335  0.00  0.00    +0.000 C 
ATOM      8  N   UNL     1      48.498   2.370   6.520  0.00  0.00    +0.000 N 
ATOM      9  O   UNL     1      46.802   2.980   5.192  0.00  0.00    +0.000 OA
ATOM     10  H   UNL     1      48.925   2.173   7.410  0.00  0.00    +0.000 HD
ATOM     11  H   UNL     1      49.049   2.218   5.684  0.00  0.00    +0.000 HD
ENDBRANCH   4   7
BRANCH   1  12
ATOM     12  N   UNL     1      43.665   3.407  10.783  0.00  0.00    +0.000 N 
ATOM     13  H   UNL     1      42.751   3.161  10.402  0.00  0.00    +0.000 HD
BRANCH  12  15
ATOM     14  C   UNL     1      45.312   3.191  12.549  0.00  0.00    +0.000 C 
ATOM     15  C   UNL     1      43.902   2.842  12.100  0.00  0.00    +0.000 C 
ENDBRANCH  12  15
ENDBRANCH   1  12
BRANCH   6  16
ATOM     16  N   UNL     1      45.147   5.745   9.782  0.00  0.00    +0.000 N 
ATOM     17  H   UNL     1      45.080   6.399   9.006  0.00  0.00    +0.000 HD
BRANCH  16  18
ATOM     18  C   UNL     1      46.167   6.226  10.736  0.00  0.00    +0.000 C 
BRANCH  18  19
ATOM     19  C   UNL     1      45.526   6.766  12.027  0.00  0.00    +0.000 C 
BRANCH  19  20
ATOM     20  C   UNL     1      45.177   8.228  11.845  0.00  0.00    +0.000 A 
ATOM     21  C   UNL     1      46.123   9.230  12.102  0.00  0.00    +0.000 A 
ATOM     22  C   UNL     1      45.836  10.563  11.810  0.00  0.00    +0.000 A 
ATOM     23  C   UNL     1      44.604  10.912  11.256  0.00  0.00    +0.000 A 
ATOM     24  C   UNL     1      43.639   9.929  10.997  0.00  0.00    +0.000 A 
ATOM     25  C   UNL     1      43.936   8.592  11.303  0.00  0.00    +0.000 A 
BRANCH  24  26
ATOM     26  C   UNL     1      42.301  10.295  10.408  0.00  0.00    +0.000 C 
BRANCH  26  27
ATOM     27  N   UNL     1      41.203   9.654  11.124  0.00  0.00    +0.000 NA
ATOM     28  H   UNL     1      40.347   9.778  10.585  0.00  0.00    +0.000 HD
ATOM     29  H   UNL     1      41.058  10.131  12.012  0.00  0.00    +0.000 HD
ENDBRANCH  26  27
ENDBRANCH  24  26
ENDBRANCH  19  20
ENDBRANCH  18  19
ENDBRANCH  16  18
ENDBRANCH   6  16
TORSDOF 9
ENDMDL
MODEL 4
REMARK VINA RESULT:    -6.328      3.634      7.783
REMARK INTER + INTRA:         -10.353
REMARK INTER:                  -9.887
REMARK INTRA:                  -0.466
REMARK UNBOUND:                -0.881
REMARK  Name = 
REMARK  10 active torsions:
REMARK  status: ('A' for Active; 'I' for Inactive)
REMARK    1  A    between atoms: C_1  and  C_2
REMARK    2  A    between atoms: C_2  and  N_3
REMARK    3  A    between atoms: N_3  and  C_4
REMARK    4  A    between atoms: C_7  and  C_8
REMARK    5  A    between atoms: C_12  and  N_13
REMARK    6  A    between atoms: N_13  and  C_14
REMARK    7  A    between atoms: C_14  and  C_15
REMARK    8  A    between atoms: C_15  and  C_16
REMARK    9  A    between atoms: C_20  and  C_21
REMARK   10  A    between atoms: C_21  and  N_22
REMARK                            x       y       z     vdW  Elec       q    Type
REMARK                         _______ _______ _______ _____ _____    ______ ____
ROOT
ATOM      1  C   UNL     1      46.801   5.920  13.328  0.00  0.00    +0.000 A 
ATOM      2  C   UNL     1      46.134   6.606  12.301  0.00  0.00    +0.000 A 
ATOM      3  C   UNL     1      45.224   5.963  11.464  0.00  0.00    +0.000 A 
ATOM      4  C   UNL     1      44.937   4.611  11.640  0.00  0.00    +0.000 A 
ATOM      5  C   UNL     1      45.555   3.917  12.693  0.00  0.00    +0.000 A 
ATOM      6  C   UNL     1      46.448   4.561  13.586  0.00  0.00    +0.000 A 
ENDROOT
BRANCH   4   7
ATOM      7  C   UNL     1      43.975   3.996  10.679  0.00  0.00    +0.000 C 
ATOM      8  N   UNL     1      43.945   4.443   9.391  0.00  0.00    +0.000 N 
ATOM      9  O   UNL     1      43.215   3.092  11.021  0.00  0.00    +0.000 OA
ATOM     10  H   UNL     1      44.536   5.163   9.009  0.00  0.00    +0.000 HD
ATOM     11  H   UNL     1      43.286   3.988   8.770  0.00  0.00    +0.000 HD
ENDBRANCH   4   7
BRANCH   1  12
ATOM     12  N   UNL     1      47.782   6.554  14.104  0.00  0.00    +0.000 N 
ATOM     13  H   UNL     1      48.124   5.867  14.777  0.00  0.00    +0.000 HD
BRANCH  12  15
ATOM     14  C   UNL     1      50.005   7.442  14.487  0.00  0.00    +0.000 C 
ATOM     15  C   UNL     1      48.847   7.341  13.507  0.00  0.00    +0.000 C 
ENDBRANCH  12  15
ENDBRANCH   1  12
BRANCH   6  16
ATOM     16  N   UNL     1      47.038   3.752  14.607  0.00  0.00    +0.000 N 
ATOM     17  H   UNL     1      46.683   2.802  14.529  0.00  0.00    +0.000 HD
BRANCH  16  18
ATOM     18  C   UNL     1      46.888   4.213  16.002  0.00  0.00    +0.000 C 
BRANCH  18  19
ATOM     19  C   UNL     1      47.451   3.188  17.002  0.00  0.00    +0.000 C 
BRANCH  19  20
ATOM     20  C   UNL     1      48.944   3.395  17.151  0.00  0.00    +0.000 A 
ATOM     21  C   UNL     1      49.471   4.671  17.395  0.00  0.00    +0.000 A 
ATOM     22  C   UNL     1      50.831   4.834  17.659  0.00  0.00    +0.000 A 
ATOM     23  C   UNL     1      51.680   3.728  17.685  0.00  0.00    +0.000 A 
ATOM     24  C   UNL     1      51.178   2.442  17.436  0.00  0.00    +0.000 A 
ATOM     25  C   UNL     1      49.809   2.292  17.164  0.00  0.00    +0.000 A 
BRANCH  24  26
ATOM     26  C   UNL     1      52.086   1.241  17.451  0.00  0.00    +0.000 C 
BRANCH  26  27
ATOM     27  N   UNL     1      51.508   0.136  18.209  0.00  0.00    +0.000 NA
ATOM     28  H   UNL     1      51.043   0.514  19.033  0.00  0.00    +0.000 HD
ATOM     29  H   UNL     1      52.257  -0.465  18.549  0.00  0.00    +0.000 HD
ENDBRANCH  26  27
ENDBRANCH  24  26
ENDBRANCH  19  20
ENDBRANCH  18  19
ENDBRANCH  16  18
ENDBRANCH   6  16
TORSDOF 9
ENDMDL
MODEL 5
REMARK VINA RESULT:    -6.322      1.813      2.587
REMARK INTER + INTRA:         -10.344
REMARK INTER:                  -9.931
REMARK INTRA:                  -0.413
REMARK UNBOUND:                -0.881
REMARK  Name = 
REMARK  10 active torsions:
REMARK  status: ('A' for Active; 'I' for Inactive)
REMARK    1  A    between atoms: C_1  and  C_2
REMARK    2  A    between atoms: C_2  and  N_3
REMARK    3  A    between atoms: N_3  and  C_4
REMARK    4  A    between atoms: C_7  and  C_8
REMARK    5  A    between atoms: C_12  and  N_13
REMARK    6  A    between atoms: N_13  and  C_14
REMARK    7  A    between atoms: C_14  and  C_15
REMARK    8  A    between atoms: C_15  and  C_16
REMARK    9  A    between atoms: C_20  and  C_21
REMARK   10  A    between atoms: C_21  and  N_22
REMARK                            x       y       z     vdW  Elec       q    Type
REMARK                         _______ _______ _______ _____ _____    ______ ____
ROOT
ATOM      1  C   UNL     1      47.156   6.274  13.343  0.00  0.00    +0.000 A 
ATOM      2  C   UNL     1      47.960   6.484  14.474  0.00  0.00    +0.000 A 
ATOM      3  C   UNL     1      48.053   5.536  15.491  0.00  0.00    +0.000 A 
ATOM      4  C   UNL     1      47.356   4.333  15.399  0.00  0.00    +0.000 A 
ATOM      5  C   UNL     1      46.585   4.080  14.253  0.00  0.00    +0.000 A 
ATOM      6  C   UNL     1      46.513   5.010  13.185  0.00  0.00    +0.000 A 
ENDROOT
BRANCH   4   7
ATOM      7  C   UNL     1      47.488   3.388  16.547  0.00  0.00    +0.000 C 
ATOM      8  N   UNL     1      48.680   2.760  16.756  0.00  0.00    +0.000 N 
ATOM      9  O   UNL     1      46.549   3.169  17.310  0.00  0.00    +0.000 OA
ATOM     10  H   UNL     1      49.511   2.885  16.202  0.00  0.00    +0.000 HD
ATOM     11  H   UNL     1      48.729   2.138  17.555  0.00  0.00    +0.000 HD
ENDBRANCH   4   7
BRANCH   1  12
ATOM     12  N   UNL     1      46.998   7.273  12.371  0.00  0.00    +0.000 N 
ATOM     13  H   UNL     1      46.275   6.952  11.725  0.00  0.00    +0.000 HD
BRANCH  12  15
ATOM     14  C   UNL     1      45.399   9.081  12.596  0.00  0.00    +0.000 C 
ATOM     15  C   UNL     1      46.859   8.675  12.725  0.00  0.00    +0.000 C 
ENDBRANCH  12  15
ENDBRANCH   1  12
BRANCH   6  16
ATOM     16  N   UNL     1      45.678   4.659  12.078  0.00  0.00    +0.000 N 
ATOM     17  H   UNL     1      44.958   5.369  11.963  0.00  0.00    +0.000 HD
BRANCH  16  18
ATOM     18  C   UNL     1      45.043   3.326  12.110  0.00  0.00    +0.000 C 
BRANCH  18  19
ATOM     19  C   UNL     1      44.088   3.123  10.920  0.00  0.00    +0.000 C 
BRANCH  19  20
ATOM     20  C   UNL     1      44.867   3.220   9.625  0.00  0.00    +0.000 A 
ATOM     21  C   UNL     1      45.111   4.463   9.025  0.00  0.00    +0.000 A 
ATOM     22  C   UNL     1      45.936   4.557   7.905  0.00  0.00    +0.000 A 
ATOM     23  C   UNL     1      46.530   3.412   7.371  0.00  0.00    +0.000 A 
ATOM     24  C   UNL     1      46.294   2.156   7.948  0.00  0.00    +0.000 A 
ATOM     25  C   UNL     1      45.455   2.074   9.071  0.00  0.00    +0.000 A 
BRANCH  24  26
ATOM     26  C   UNL     1      46.921   0.912   7.376  0.00  0.00    +0.000 C 
BRANCH  26  27
ATOM     27  N   UNL     1      48.002   1.230   6.448  0.00  0.00    +0.000 NA
ATOM     28  H   UNL     1      48.038   0.508   5.730  0.00  0.00    +0.000 HD
ATOM     29  H   UNL     1      48.891   1.190   6.944  0.00  0.00    +0.000 HD
ENDBRANCH  26  27
ENDBRANCH  24  26
ENDBRANCH  19  20
ENDBRANCH  18  19
ENDBRANCH  16  18
ENDBRANCH   6  16
TORSDOF 9
ENDMDL
MODEL 6
REMARK VINA RESULT:    -6.304      2.250      6.411
REMARK INTER + INTRA:         -10.317
REMARK INTER:                  -8.909
REMARK INTRA:                  -1.408
REMARK UNBOUND:                -0.881
REMARK  Name = 
REMARK  10 active torsions:
REMARK  status: ('A' for Active; 'I' for Inactive)
REMARK    1  A    between atoms: C_1  and  C_2
REMARK    2  A    between atoms: C_2  and  N_3
REMARK    3  A    between atoms: N_3  and  C_4
REMARK    4  A    between atoms: C_7  and  C_8
REMARK    5  A    between atoms: C_12  and  N_13
REMARK    6  A    between atoms: N_13  and  C_14
REMARK    7  A    between atoms: C_14  and  C_15
REMARK    8  A    between atoms: C_15  and  C_16
REMARK    9  A    between atoms: C_20  and  C_21
REMARK   10  A    between atoms: C_21  and  N_22
REMARK                            x       y       z     vdW  Elec       q    Type
REMARK                         _______ _______ _______ _____ _____    ______ ____
ROOT
ATOM      1  C   UNL     1      44.823   4.724  10.925  0.00  0.00    +0.000 A 
ATOM      2  C   UNL     1      45.036   3.457  11.489  0.00  0.00    +0.000 A 
ATOM      3  C   UNL     1      45.759   3.296  12.669  0.00  0.00    +0.000 A 
ATOM      4  C   UNL     1      46.278   4.405  13.336  0.00  0.00    +0.000 A 
ATOM      5  C   UNL     1      46.032   5.686  12.816  0.00  0.00    +0.000 A 
ATOM      6  C   UNL     1      45.260   5.877  11.643  0.00  0.00    +0.000 A 
ENDROOT
BRANCH   4   7
ATOM      7  C   UNL     1      47.064   4.138  14.576  0.00  0.00    +0.000 C 
ATOM      8  N   UNL     1      47.227   5.140  15.487  0.00  0.00    +0.000 N 
ATOM      9  O   UNL     1      47.564   3.036  14.795  0.00  0.00    +0.000 OA
ATOM     10  H   UNL     1      46.845   6.068  15.410  0.00  0.00    +0.000 HD
ATOM     11  H   UNL     1      47.757   4.911  16.320  0.00  0.00    +0.000 HD
ENDBRANCH   4   7
BRANCH   1  12
ATOM     12  N   UNL     1      44.174   4.866   9.689  0.00  0.00    +0.000 N 
ATOM     13  H   UNL     1      44.268   5.844   9.410  0.00  0.00    +0.000 HD
BRANCH  12  15
ATOM     14  C   UNL     1      45.787   4.170   8.019  0.00  0.00    +0.000 C 
ATOM     15  C   UNL     1      44.397   3.941   8.591  0.00  0.00    +0.000 C 
ENDBRANCH  12  15
ENDBRANCH   1  12
BRANCH   6  16
ATOM     16  N   UNL     1      45.095   7.224  11.189  0.00  0.00    +0.000 N 
ATOM     17  H   UNL     1      45.784   7.422  10.468  0.00  0.00    +0.000 HD
BRANCH  16  18
ATOM     18  C   UNL     1      45.145   8.288  12.212  0.00  0.00    +0.000 C 
BRANCH  18  19
ATOM     19  C   UNL     1      46.323   9.250  11.973  0.00  0.00    +0.000 C 
BRANCH  19  20
ATOM     20  C   UNL     1      47.586   8.659  12.563  0.00  0.00    +0.000 A 
ATOM     21  C   UNL     1      48.589   8.136  11.735  0.00  0.00    +0.000 A 
ATOM     22  C   UNL     1      49.802   7.712  12.277  0.00  0.00    +0.000 A 
ATOM     23  C   UNL     1      50.030   7.807  13.650  0.00  0.00    +0.000 A 
ATOM     24  C   UNL     1      49.039   8.319  14.500  0.00  0.00    +0.000 A 
ATOM     25  C   UNL     1      47.819   8.735  13.943  0.00  0.00    +0.000 A 
BRANCH  24  26
ATOM     26  C   UNL     1      49.269   8.417  15.986  0.00  0.00    +0.000 C 
BRANCH  26  27
ATOM     27  N   UNL     1      48.219   7.741  16.740  0.00  0.00    +0.000 NA
ATOM     28  H   UNL     1      48.495   7.702  17.720  0.00  0.00    +0.000 HD
ATOM     29  H   UNL     1      48.146   6.777  16.421  0.00  0.00    +0.000 HD
ENDBRANCH  26  27
ENDBRANCH  24  26
ENDBRANCH  19  20
ENDBRANCH  18  19
ENDBRANCH  16  18
ENDBRANCH   6  16
TORSDOF 9
ENDMDL
MODEL 7
REMARK VINA RESULT:    -6.142      2.245      6.826
REMARK INTER + INTRA:         -10.074
REMARK INTER:                  -9.297
REMARK INTRA:                  -0.777
REMARK UNBOUND:                -0.881
REMARK  Name = 
REMARK  10 active torsions:
REMARK  status: ('A' for Active; 'I' for Inactive)
REMARK    1  A    between atoms: C_1  and  C_2
REMARK    2  A    between atoms: C_2  and  N_3
REMARK    3  A    between atoms: N_3  and  C_4
REMARK    4  A    between atoms: C_7  and  C_8
REMARK    5  A    between atoms: C_12  and  N_13
REMARK    6  A    between atoms: N_13  and  C_14
REMARK    7  A    between atoms: C_14  and  C_15
REMARK    8  A    between atoms: C_15  and  C_16
REMARK    9  A    between atoms: C_20  and  C_21
REMARK   10  A    between atoms: C_21  and  N_22
REMARK                            x       y       z     vdW  Elec       q    Type
REMARK                         _______ _______ _______ _____ _____    ______ ____
ROOT
ATOM      1  C   UNL     1      44.694   4.665  10.923  0.00  0.00    +0.000 A 
ATOM      2  C   UNL     1      44.982   3.445  11.553  0.00  0.00    +0.000 A 
ATOM      3  C   UNL     1      45.747   3.388  12.717  0.00  0.00    +0.000 A 
ATOM      4  C   UNL     1      46.235   4.556  13.299  0.00  0.00    +0.000 A 
ATOM      5  C   UNL     1      45.916   5.791  12.713  0.00  0.00    +0.000 A 
ATOM      6  C   UNL     1      45.101   5.878  11.556  0.00  0.00    +0.000 A 
ENDROOT
BRANCH   4   7
ATOM      7  C   UNL     1      47.070   4.399  14.526  0.00  0.00    +0.000 C 
ATOM      8  N   UNL     1      47.458   5.513  15.212  0.00  0.00    +0.000 N 
ATOM      9  O   UNL     1      47.412   3.291  14.934  0.00  0.00    +0.000 OA
ATOM     10  H   UNL     1      47.217   6.460  14.972  0.00  0.00    +0.000 HD
ATOM     11  H   UNL     1      48.012   5.359  16.046  0.00  0.00    +0.000 HD
ENDBRANCH   4   7
BRANCH   1  12
ATOM     12  N   UNL     1      44.002   4.704   9.702  0.00  0.00    +0.000 N 
ATOM     13  H   UNL     1      43.785   5.683   9.511  0.00  0.00    +0.000 HD
BRANCH  12  15
ATOM     14  C   UNL     1      45.872   4.464   8.178  0.00  0.00    +0.000 C 
ATOM     15  C   UNL     1      44.471   3.987   8.529  0.00  0.00    +0.000 C 
ENDBRANCH  12  15
ENDBRANCH   1  12
BRANCH   6  16
ATOM     16  N   UNL     1      44.862   7.186  11.029  0.00  0.00    +0.000 N 
ATOM     17  H   UNL     1      45.611   7.431  10.386  0.00  0.00    +0.000 HD
BRANCH  16  18
ATOM     18  C   UNL     1      44.684   8.281  12.005  0.00  0.00    +0.000 C 
BRANCH  18  19
ATOM     19  C   UNL     1      45.303   9.596  11.500  0.00  0.00    +0.000 C 
BRANCH  19  20
ATOM     20  C   UNL     1      44.250  10.404  10.771  0.00  0.00    +0.000 A 
ATOM     21  C   UNL     1      44.612  11.327   9.780  0.00  0.00    +0.000 A 
ATOM     22  C   UNL     1      43.633  11.972   9.025  0.00  0.00    +0.000 A 
ATOM     23  C   UNL     1      42.282  11.702   9.247  0.00  0.00    +0.000 A 
ATOM     24  C   UNL     1      41.895  10.789  10.238  0.00  0.00    +0.000 A 
ATOM     25  C   UNL     1      42.890  10.152  10.997  0.00  0.00    +0.000 A 
BRANCH  24  26
ATOM     26  C   UNL     1      40.440  10.496  10.494  0.00  0.00    +0.000 C 
BRANCH  26  27
ATOM     27  N   UNL     1      40.268   9.416  11.460  0.00  0.00    +0.000 NA
ATOM     28  H   UNL     1      39.974   9.818  12.350  0.00  0.00    +0.000 HD
ATOM     29  H   UNL     1      41.168   8.970  11.627  0.00  0.00    +0.000 HD
ENDBRANCH  26  27
ENDBRANCH  24  26
ENDBRANCH  19  20
ENDBRANCH  18  19
ENDBRANCH  16  18
ENDBRANCH   6  16
TORSDOF 9
ENDMDL
MODEL 8
REMARK VINA RESULT:    -6.008      2.856      4.768
REMARK INTER + INTRA:          -9.874
REMARK INTER:                  -9.258
REMARK INTRA:                  -0.616
REMARK UNBOUND:                -0.881
REMARK  Name = 
REMARK  10 active torsions:
REMARK  status: ('A' for Active; 'I' for Inactive)
REMARK    1  A    between atoms: C_1  and  C_2
REMARK    2  A    between atoms: C_2  and  N_3
REMARK    3  A    between atoms: N_3  and  C_4
REMARK    4  A    between atoms: C_7  and  C_8
REMARK    5  A    between atoms: C_12  and  N_13
REMARK    6  A    between atoms: N_13  and  C_14
REMARK    7  A    between atoms: C_14  and  C_15
REMARK    8  A    between atoms: C_15  and  C_16
REMARK    9  A    between atoms: C_20  and  C_21
REMARK   10  A    between atoms: C_21  and  N_22
REMARK                            x       y       z     vdW  Elec       q    Type
REMARK                         _______ _______ _______ _____ _____    ______ ____
ROOT
ATOM      1  C   UNL     1      47.881   5.788  14.948  0.00  0.00    +0.000 A 
ATOM      2  C   UNL     1      48.994   6.550  15.336  0.00  0.00    +0.000 A 
ATOM      3  C   UNL     1      49.714   7.311  14.416  0.00  0.00    +0.000 A 
ATOM      4  C   UNL     1      49.331   7.347  13.077  0.00  0.00    +0.000 A 
ATOM      5  C   UNL     1      48.190   6.632  12.677  0.00  0.00    +0.000 A 
ATOM      6  C   UNL     1      47.415   5.889  13.603  0.00  0.00    +0.000 A 
ENDROOT
BRANCH   4   7
ATOM      7  C   UNL     1      50.176   8.162  12.156  0.00  0.00    +0.000 C 
ATOM      8  N   UNL     1      51.135   7.541  11.410  0.00  0.00    +0.000 N 
ATOM      9  O   UNL     1      50.024   9.378  12.051  0.00  0.00    +0.000 OA
ATOM     10  H   UNL     1      51.325   6.553  11.410  0.00  0.00    +0.000 HD
ATOM     11  H   UNL     1      51.676   8.131  10.789  0.00  0.00    +0.000 HD
ENDBRANCH   4   7
BRANCH   1  12
ATOM     12  N   UNL     1      47.221   4.954  15.864  0.00  0.00    +0.000 N 
ATOM     13  H   UNL     1      46.220   5.041  15.681  0.00  0.00    +0.000 HD
BRANCH  12  15
ATOM     14  C   UNL     1      47.306   3.193  17.527  0.00  0.00    +0.000 C 
ATOM     15  C   UNL     1      47.638   3.582  16.095  0.00  0.00    +0.000 C 
ENDBRANCH  12  15
ENDBRANCH   1  12
BRANCH   6  16
ATOM     16  N   UNL     1      46.289   5.179  13.081  0.00  0.00    +0.000 N 
ATOM     17  H   UNL     1      46.577   4.649  12.262  0.00  0.00    +0.000 HD
BRANCH  16  18
ATOM     18  C   UNL     1      45.089   5.973  12.748  0.00  0.00    +0.000 C 
BRANCH  18  19
ATOM     19  C   UNL     1      44.948   6.178  11.229  0.00  0.00    +0.000 C 
BRANCH  19  20
ATOM     20  C   UNL     1      44.892   4.830  10.540  0.00  0.00    +0.000 A 
ATOM     21  C   UNL     1      44.165   3.769  11.098  0.00  0.00    +0.000 A 
ATOM     22  C   UNL     1      44.011   2.574  10.396  0.00  0.00    +0.000 A 
ATOM     23  C   UNL     1      44.578   2.423   9.130  0.00  0.00    +0.000 A 
ATOM     24  C   UNL     1      45.316   3.467   8.555  0.00  0.00    +0.000 A 
ATOM     25  C   UNL     1      45.471   4.663   9.274  0.00  0.00    +0.000 A 
BRANCH  24  26
ATOM     26  C   UNL     1      45.942   3.313   7.193  0.00  0.00    +0.000 C 
BRANCH  26  27
ATOM     27  N   UNL     1      46.956   4.332   6.947  0.00  0.00    +0.000 NA
ATOM     28  H   UNL     1      47.870   3.882   6.915  0.00  0.00    +0.000 HD
ATOM     29  H   UNL     1      46.979   4.979   7.734  0.00  0.00    +0.000 HD
ENDBRANCH  26  27
ENDBRANCH  24  26
ENDBRANCH  19  20
ENDBRANCH  18  19
ENDBRANCH  16  18
ENDBRANCH   6  16
TORSDOF 9
ENDMDL
MODEL 9
REMARK VINA RESULT:    -5.962      3.564      7.601
REMARK INTER + INTRA:          -9.806
REMARK INTER:                  -9.130
REMARK INTRA:                  -0.675
REMARK UNBOUND:                -0.881
REMARK  Name = 
REMARK  10 active torsions:
REMARK  status: ('A' for Active; 'I' for Inactive)
REMARK    1  A    between atoms: C_1  and  C_2
REMARK    2  A    between atoms: C_2  and  N_3
REMARK    3  A    between atoms: N_3  and  C_4
REMARK    4  A    between atoms: C_7  and  C_8
REMARK    5  A    between atoms: C_12  and  N_13
REMARK    6  A    between atoms: N_13  and  C_14
REMARK    7  A    between atoms: C_14  and  C_15
REMARK    8  A    between atoms: C_15  and  C_16
REMARK    9  A    between atoms: C_20  and  C_21
REMARK   10  A    between atoms: C_21  and  N_22
REMARK                            x       y       z     vdW  Elec       q    Type
REMARK                         _______ _______ _______ _____ _____    ______ ____
ROOT
ATOM      1  C   UNL     1      46.571   6.157  12.409  0.00  0.00    +0.000 A 
ATOM      2  C   UNL     1      46.042   6.130  11.109  0.00  0.00    +0.000 A 
ATOM      3  C   UNL     1      45.220   5.090  10.678  0.00  0.00    +0.000 A 
ATOM      4  C   UNL     1      44.885   4.050  11.542  0.00  0.00    +0.000 A 
ATOM      5  C   UNL     1      45.362   4.084  12.862  0.00  0.00    +0.000 A 
ATOM      6  C   UNL     1      46.161   5.154  13.338  0.00  0.00    +0.000 A 
ENDROOT
BRANCH   4   7
ATOM      7  C   UNL     1      44.026   2.963  10.987  0.00  0.00    +0.000 C 
ATOM      8  N   UNL     1      44.496   2.207   9.954  0.00  0.00    +0.000 N 
ATOM      9  O   UNL     1      42.909   2.731  11.444  0.00  0.00    +0.000 OA
ATOM     10  H   UNL     1      45.401   2.305   9.523  0.00  0.00    +0.000 HD
ATOM     11  H   UNL     1      43.886   1.472   9.618  0.00  0.00    +0.000 HD
ENDBRANCH   4   7
BRANCH   1  12
ATOM     12  N   UNL     1      47.470   7.160  12.803  0.00  0.00    +0.000 N 
ATOM     13  H   UNL     1      47.192   7.462  13.738  0.00  0.00    +0.000 HD
BRANCH  12  15
ATOM     14  C   UNL     1      49.431   8.043  11.686  0.00  0.00    +0.000 C 
ATOM     15  C   UNL     1      48.907   7.002  12.663  0.00  0.00    +0.000 C 
ENDBRANCH  12  15
ENDBRANCH   1  12
BRANCH   6  16
ATOM     16  N   UNL     1      46.612   5.073  14.693  0.00  0.00    +0.000 N 
ATOM     17  H   UNL     1      47.174   5.892  14.909  0.00  0.00    +0.000 HD
BRANCH  16  18
ATOM     18  C   UNL     1      47.357   3.858  15.081  0.00  0.00    +0.000 C 
BRANCH  18  19
ATOM     19  C   UNL     1      47.385   3.674  16.609  0.00  0.00    +0.000 C 
BRANCH  19  20
ATOM     20  C   UNL     1      48.810   3.436  17.063  0.00  0.00    +0.000 A 
ATOM     21  C   UNL     1      49.386   2.162  16.981  0.00  0.00    +0.000 A 
ATOM     22  C   UNL     1      50.736   1.977  17.279  0.00  0.00    +0.000 A 
ATOM     23  C   UNL     1      51.526   3.062  17.662  0.00  0.00    +0.000 A 
ATOM     24  C   UNL     1      50.970   4.345  17.760  0.00  0.00    +0.000 A 
ATOM     25  C   UNL     1      49.608   4.517  17.464  0.00  0.00    +0.000 A 
BRANCH  24  26
ATOM     26  C   UNL     1      51.811   5.522  18.181  0.00  0.00    +0.000 C 
BRANCH  26  27
ATOM     27  N   UNL     1      51.996   6.472  17.089  0.00  0.00    +0.000 NA
ATOM     28  H   UNL     1      52.881   6.270  16.627  0.00  0.00    +0.000 HD
ATOM     29  H   UNL     1      52.077   7.412  17.473  0.00  0.00    +0.000 HD
ENDBRANCH  26  27
ENDBRANCH  24  26
ENDBRANCH  19  20
ENDBRANCH  18  19
ENDBRANCH  16  18
ENDBRANCH   6  16
TORSDOF 9
ENDMDL
