MODEL 1
REMARK VINA RESULT:    -7.874      0.000      0.000
REMARK INTER + INTRA:         -10.833
REMARK INTER:                 -10.175
REMARK INTRA:                  -0.658
REMARK UNBOUND:                -0.658
REMARK  Name = 
REMARK  5 active torsions:
REMARK  status: ('A' for Active; 'I' for Inactive)
REMARK    1  A    between atoms: C_2  and  C_4
REMARK    2  A    between atoms: C_8  and  C_9
REMARK    3  A    between atoms: C_9  and  O_10
REMARK    4  A    between atoms: O_10  and  C_11
REMARK    5  A    between atoms: C_15  and  N_16
REMARK                            x       y       z     vdW  Elec       q    Type
REMARK                         _______ _______ _______ _____ _____    ______ ____
ROOT
ATOM      1  O   UNL     1      44.028   4.697  10.923  0.00  0.00    +0.000 OA
ENDROOT
BRANCH   1   2
ATOM      2  C   UNL     1      44.994   4.844  11.878  0.00  0.00    +0.000 A 
ATOM      3  C   UNL     1      45.182   3.783  12.749  0.00  0.00    +0.000 A 
ATOM      4  N   UNL     1      46.122   3.760  13.717  0.00  0.00    +0.000 NA
ATOM      5  C   UNL     1      46.899   4.868  13.823  0.00  0.00    +0.000 A 
ATOM      6  C   UNL     1      46.793   6.018  13.034  0.00  0.00    +0.000 A 
ATOM      7  C   UNL     1      45.796   5.973  12.048  0.00  0.00    +0.000 A 
BRANCH   6   8
ATOM      8  N   UNL     1      47.611   7.123  13.178  0.00  0.00    +0.000 N 
ATOM      9  C   UNL     1      47.072   8.484  13.242  0.00  0.00    +0.000 C 
ATOM     10  C   UNL     1      47.566   9.306  12.055  0.00  0.00    +0.000 C 
ATOM     11  C   UNL     1      49.089   9.251  11.940  0.00  0.00    +0.000 C 
ATOM     12  C   UNL     1      49.579   7.806  11.893  0.00  0.00    +0.000 C 
ATOM     13  C   UNL     1      49.068   7.002  13.087  0.00  0.00    +0.000 C 
ENDBRANCH   6   8
ENDBRANCH   1   2
BRANCH   1  14
ATOM     14  C   UNL     1      43.951   3.401  10.327  0.00  0.00    +0.000 C 
BRANCH  14  19
ATOM     15  C   UNL     1      46.447   2.079   7.765  0.00  0.00    +0.000 A 
ATOM     16  C   UNL     1      46.837   3.291   7.213  0.00  0.00    +0.000 A 
ATOM     17  N   UNL     1      46.334   4.489   7.598  0.00  0.00    +0.000 NA
ATOM     18  C   UNL     1      45.424   4.471   8.598  0.00  0.00    +0.000 A 
ATOM     19  C   UNL     1      44.983   3.314   9.236  0.00  0.00    +0.000 A 
ATOM     20  C   UNL     1      45.510   2.094   8.803  0.00  0.00    +0.000 A 
BRANCH  15  22
ATOM     21  N   UNL     1      47.782   0.937   6.091  0.00  0.00    +0.000 N 
ATOM     22  C   UNL     1      47.044   0.836   7.237  0.00  0.00    +0.000 C 
ATOM     23  O   UNL     1      46.921  -0.233   7.820  0.00  0.00    +0.000 OA
ATOM     24  H   UNL     1      48.280   0.102   5.808  0.00  0.00    +0.000 HD
ATOM     25  H   UNL     1      48.119   1.822   5.739  0.00  0.00    +0.000 HD
ENDBRANCH  15  22
ENDBRANCH  14  19
ENDBRANCH   1  14
TORSDOF 5
ENDMDL
MODEL 2
REMARK VINA RESULT:    -7.491      2.738      7.070
REMARK INTER + INTRA:         -10.339
REMARK INTER:                  -9.676
REMARK INTRA:                  -0.663
REMARK UNBOUND:                -0.658
REMARK  Name = 
REMARK  5 active torsions:
REMARK  status: ('A' for Active; 'I' for Inactive)
REMARK    1  A    between atoms: C_2  and  C_4
REMARK    2  A    between atoms: C_8  and  C_9
REMARK    3  A    between atoms: C_9  and  O_10
REMARK    4  A    between atoms: O_10  and  C_11
REMARK    5  A    between atoms: C_15  and  N_16
REMARK                            x       y       z     vdW  Elec       q    Type
REMARK                         _______ _______ _______ _____ _____    ______ ____
ROOT
ATOM      1  O   UNL     1      45.251   5.922  12.845  0.00  0.00    +0.000 OA
ENDROOT
BRANCH   1   2
ATOM      2  C   UNL     1      44.786   4.797  12.225  0.00  0.00    +0.000 A 
ATOM      3  C   UNL     1      43.964   3.965  12.968  0.00  0.00    +0.000 A 
ATOM      4  N   UNL     1      43.395   2.841  12.485  0.00  0.00    +0.000 NA
ATOM      5  C   UNL     1      43.683   2.532  11.195  0.00  0.00    +0.000 A 
ATOM      6  C   UNL     1      44.521   3.263  10.347  0.00  0.00    +0.000 A 
ATOM      7  C   UNL     1      45.078   4.419  10.914  0.00  0.00    +0.000 A 
BRANCH   6   8
ATOM      8  N   UNL     1      44.783   2.908   9.037  0.00  0.00    +0.000 N 
ATOM      9  C   UNL     1      45.041   1.520   8.647  0.00  0.00    +0.000 C 
ATOM     10  C   UNL     1      46.457   1.378   8.097  0.00  0.00    +0.000 C 
ATOM     11  C   UNL     1      46.723   2.391   6.984  0.00  0.00    +0.000 C 
ATOM     12  C   UNL     1      46.419   3.810   7.457  0.00  0.00    +0.000 C 
ATOM     13  C   UNL     1      44.999   3.927   8.007  0.00  0.00    +0.000 C 
ENDBRANCH   6   8
ENDBRANCH   1   2
BRANCH   1  14
ATOM     14  C   UNL     1      46.654   6.159  12.707  0.00  0.00    +0.000 C 
BRANCH  14  19
ATOM     15  C   UNL     1      47.750   4.507  15.964  0.00  0.00    +0.000 A 
ATOM     16  C   UNL     1      48.615   5.495  16.415  0.00  0.00    +0.000 A 
ATOM     17  N   UNL     1      48.877   6.634  15.731  0.00  0.00    +0.000 NA
ATOM     18  C   UNL     1      48.222   6.803  14.560  0.00  0.00    +0.000 A 
ATOM     19  C   UNL     1      47.317   5.886  14.029  0.00  0.00    +0.000 A 
ATOM     20  C   UNL     1      47.081   4.714  14.753  0.00  0.00    +0.000 A 
BRANCH  15  22
ATOM     21  N   UNL     1      48.635   2.438  16.872  0.00  0.00    +0.000 N 
ATOM     22  C   UNL     1      47.572   3.293  16.785  0.00  0.00    +0.000 C 
ATOM     23  O   UNL     1      46.534   3.078  17.397  0.00  0.00    +0.000 OA
ATOM     24  H   UNL     1      48.539   1.674  17.529  0.00  0.00    +0.000 HD
ATOM     25  H   UNL     1      49.571   2.709  16.606  0.00  0.00    +0.000 HD
ENDBRANCH  15  22
ENDBRANCH  14  19
ENDBRANCH   1  14
TORSDOF 5
ENDMDL
MODEL 3
REMARK VINA RESULT:    -7.158      2.737      7.162
REMARK INTER + INTRA:          -9.908
REMARK INTER:                  -9.107
REMARK INTRA:                  -0.801
REMARK UNBOUND:                -0.658
REMARK  Name = 
REMARK  5 active torsions:
REMARK  status: ('A' for Active; 'I' for Inactive)
REMARK    1  A    between atoms: C_2  and  C_4
REMARK    2  A    between atoms: C_8  and  C_9
REMARK    3  A    between atoms: C_9  and  O_10
REMARK    4  A    between atoms: O_10  and  C_11
REMARK    5  A    between atoms: C_15  and  N_16
REMARK                            x       y       z     vdW  Elec       q    Type
REMARK                         _______ _______ _______ _____ _____    ______ ____
ROOT
ATOM      1  O   UNL     1      45.670   6.092  13.066  0.00  0.00    +0.000 OA
ENDROOT
BRANCH   1   2
ATOM      2  C   UNL     1      45.060   5.023  12.475  0.00  0.00    +0.000 A 
ATOM      3  C   UNL     1      44.193   4.281  13.260  0.00  0.00    +0.000 A 
ATOM      4  N   UNL     1      43.486   3.224  12.810  0.00  0.00    +0.000 NA
ATOM      5  C   UNL     1      43.677   2.886  11.509  0.00  0.00    +0.000 A 
ATOM      6  C   UNL     1      44.545   3.526  10.619  0.00  0.00    +0.000 A 
ATOM      7  C   UNL     1      45.247   4.617  11.153  0.00  0.00    +0.000 A 
BRANCH   6   8
ATOM      8  N   UNL     1      44.704   3.146   9.299  0.00  0.00    +0.000 N 
ATOM      9  C   UNL     1      44.824   1.740   8.906  0.00  0.00    +0.000 C 
ATOM     10  C   UNL     1      46.191   1.478   8.281  0.00  0.00    +0.000 C 
ATOM     11  C   UNL     1      46.479   2.462   7.148  0.00  0.00    +0.000 C 
ATOM     12  C   UNL     1      46.322   3.903   7.626  0.00  0.00    +0.000 C 
ATOM     13  C   UNL     1      44.948   4.140   8.251  0.00  0.00    +0.000 C 
ENDBRANCH   6   8
ENDBRANCH   1   2
BRANCH   1  14
ATOM     14  C   UNL     1      46.702   6.710  12.294  0.00  0.00    +0.000 C 
BRANCH  14  19
ATOM     15  C   UNL     1      44.785   9.926  11.570  0.00  0.00    +0.000 A 
ATOM     16  C   UNL     1      45.815  10.831  11.779  0.00  0.00    +0.000 A 
ATOM     17  N   UNL     1      47.066  10.473  12.155  0.00  0.00    +0.000 NA
ATOM     18  C   UNL     1      47.301   9.149  12.299  0.00  0.00    +0.000 A 
ATOM     19  C   UNL     1      46.346   8.157  12.089  0.00  0.00    +0.000 A 
ATOM     20  C   UNL     1      45.060   8.562  11.717  0.00  0.00    +0.000 A 
BRANCH  15  22
ATOM     21  N   UNL     1      42.922   9.994  10.016  0.00  0.00    +0.000 N 
ATOM     22  C   UNL     1      43.454  10.441  11.194  0.00  0.00    +0.000 C 
ATOM     23  O   UNL     1      42.830  11.202  11.922  0.00  0.00    +0.000 OA
ATOM     24  H   UNL     1      41.964  10.263   9.830  0.00  0.00    +0.000 HD
ATOM     25  H   UNL     1      43.280   9.182   9.533  0.00  0.00    +0.000 HD
ENDBRANCH  15  22
ENDBRANCH  14  19
ENDBRANCH   1  14
TORSDOF 5
ENDMDL
MODEL 4
REMARK VINA RESULT:    -7.004      4.547      7.875
REMARK INTER + INTRA:          -9.709
REMARK INTER:                  -9.119
REMARK INTRA:                  -0.590
REMARK UNBOUND:                -0.658
REMARK  Name = 
REMARK  5 active torsions:
REMARK  status: ('A' for Active; 'I' for Inactive)
REMARK    1  A    between atoms: C_2  and  C_4
REMARK    2  A    between atoms: C_8  and  C_9
REMARK    3  A    between atoms: C_9  and  O_10
REMARK    4  A    between atoms: O_10  and  C_11
REMARK    5  A    between atoms: C_15  and  N_16
REMARK                            x       y       z     vdW  Elec       q    Type
REMARK                         _______ _______ _______ _____ _____    ______ ____
ROOT
ATOM      1  O   UNL     1      47.624   3.083  14.973  0.00  0.00    +0.000 OA
ENDROOT
BRANCH   1   2
ATOM      2  C   UNL     1      47.103   4.011  14.115  0.00  0.00    +0.000 A 
ATOM      3  C   UNL     1      47.441   5.335  14.342  0.00  0.00    +0.000 A 
ATOM      4  N   UNL     1      47.041   6.359  13.560  0.00  0.00    +0.000 NA
ATOM      5  C   UNL     1      46.245   6.034  12.509  0.00  0.00    +0.000 A 
ATOM      6  C   UNL     1      45.803   4.747  12.187  0.00  0.00    +0.000 A 
ATOM      7  C   UNL     1      46.257   3.731  13.041  0.00  0.00    +0.000 A 
BRANCH   6   8
ATOM      8  N   UNL     1      44.993   4.464  11.102  0.00  0.00    +0.000 N 
ATOM      9  C   UNL     1      44.231   3.217  11.008  0.00  0.00    +0.000 C 
ATOM     10  C   UNL     1      44.707   2.394   9.815  0.00  0.00    +0.000 C 
ATOM     11  C   UNL     1      44.696   3.222   8.531  0.00  0.00    +0.000 C 
ATOM     12  C   UNL     1      45.496   4.510   8.707  0.00  0.00    +0.000 C 
ATOM     13  C   UNL     1      45.005   5.315   9.910  0.00  0.00    +0.000 C 
ENDBRANCH   6   8
ENDBRANCH   1   2
BRANCH   1  14
ATOM     14  C   UNL     1      47.556   3.428  16.359  0.00  0.00    +0.000 C 
BRANCH  14  19
ATOM     15  C   UNL     1      51.023   2.328  17.507  0.00  0.00    +0.000 A 
ATOM     16  C   UNL     1      51.498   3.560  17.935  0.00  0.00    +0.000 A 
ATOM     17  N   UNL     1      50.785   4.709  17.857  0.00  0.00    +0.000 NA
ATOM     18  C   UNL     1      49.533   4.614  17.355  0.00  0.00    +0.000 A 
ATOM     19  C   UNL     1      48.952   3.425  16.920  0.00  0.00    +0.000 A 
ATOM     20  C   UNL     1      49.720   2.259  16.999  0.00  0.00    +0.000 A 
BRANCH  15  22
ATOM     21  N   UNL     1      51.406   0.051  18.250  0.00  0.00    +0.000 N 
ATOM     22  C   UNL     1      51.907   1.151  17.613  0.00  0.00    +0.000 C 
ATOM     23  O   UNL     1      53.026   1.141  17.117  0.00  0.00    +0.000 OA
ATOM     24  H   UNL     1      51.977  -0.784  18.212  0.00  0.00    +0.000 HD
ATOM     25  H   UNL     1      50.419  -0.068  18.431  0.00  0.00    +0.000 HD
ENDBRANCH  15  22
ENDBRANCH  14  19
ENDBRANCH   1  14
TORSDOF 5
ENDMDL
MODEL 5
REMARK VINA RESULT:    -6.928      1.675      2.051
REMARK INTER + INTRA:          -9.612
REMARK INTER:                  -8.942
REMARK INTRA:                  -0.670
REMARK UNBOUND:                -0.658
REMARK  Name = 
REMARK  5 active torsions:
REMARK  status: ('A' for Active; 'I' for Inactive)
REMARK    1  A    between atoms: C_2  and  C_4
REMARK    2  A    between atoms: C_8  and  C_9
REMARK    3  A    between atoms: C_9  and  O_10
REMARK    4  A    between atoms: O_10  and  C_11
REMARK    5  A    between atoms: C_15  and  N_16
REMARK                            x       y       z     vdW  Elec       q    Type
REMARK                         _______ _______ _______ _____ _____    ______ ____
ROOT
ATOM      1  O   UNL     1      45.368   5.058   8.993  0.00  0.00    +0.000 OA
ENDROOT
BRANCH   1   2
ATOM      2  C   UNL     1      45.385   5.297  10.338  0.00  0.00    +0.000 A 
ATOM      3  C   UNL     1      44.514   4.555  11.119  0.00  0.00    +0.000 A 
ATOM      4  N   UNL     1      44.442   4.647  12.463  0.00  0.00    +0.000 NA
ATOM      5  C   UNL     1      45.277   5.544  13.047  0.00  0.00    +0.000 A 
ATOM      6  C   UNL     1      46.178   6.377  12.376  0.00  0.00    +0.000 A 
ATOM      7  C   UNL     1      46.201   6.229  10.982  0.00  0.00    +0.000 A 
BRANCH   6   8
ATOM      8  N   UNL     1      47.011   7.276  13.017  0.00  0.00    +0.000 N 
ATOM      9  C   UNL     1      46.929   8.718  12.774  0.00  0.00    +0.000 C 
ATOM     10  C   UNL     1      48.227   9.226  12.154  0.00  0.00    +0.000 C 
ATOM     11  C   UNL     1      49.439   8.809  12.986  0.00  0.00    +0.000 C 
ATOM     12  C   UNL     1      49.451   7.299  13.210  0.00  0.00    +0.000 C 
ATOM     13  C   UNL     1      48.140   6.813  13.827  0.00  0.00    +0.000 C 
ENDBRANCH   6   8
ENDBRANCH   1   2
BRANCH   1  14
ATOM     14  C   UNL     1      44.496   4.007   8.571  0.00  0.00    +0.000 C 
BRANCH  14  19
ATOM     15  C   UNL     1      46.834   1.889   6.428  0.00  0.00    +0.000 A 
ATOM     16  C   UNL     1      46.851   0.744   7.212  0.00  0.00    +0.000 A 
ATOM     17  N   UNL     1      46.181   0.625   8.383  0.00  0.00    +0.000 NA
ATOM     18  C   UNL     1      45.439   1.688   8.769  0.00  0.00    +0.000 A 
ATOM     19  C   UNL     1      45.334   2.874   8.045  0.00  0.00    +0.000 A 
ATOM     20  C   UNL     1      46.051   2.970   6.849  0.00  0.00    +0.000 A 
BRANCH  15  22
ATOM     21  N   UNL     1      48.408   3.014   4.964  0.00  0.00    +0.000 N 
ATOM     22  C   UNL     1      47.633   1.910   5.187  0.00  0.00    +0.000 C 
ATOM     23  O   UNL     1      47.638   0.966   4.409  0.00  0.00    +0.000 OA
ATOM     24  H   UNL     1      49.038   2.964   4.173  0.00  0.00    +0.000 HD
ATOM     25  H   UNL     1      48.630   3.677   5.694  0.00  0.00    +0.000 HD
ENDBRANCH  15  22
ENDBRANCH  14  19
ENDBRANCH   1  14
TORSDOF 5
ENDMDL
MODEL 6
REMARK VINA RESULT:    -6.710      2.656      4.868
REMARK INTER + INTRA:          -9.329
REMARK INTER:                  -8.562
REMARK INTRA:                  -0.768
REMARK UNBOUND:                -0.658
REMARK  Name = 
REMARK  5 active torsions:
REMARK  status: ('A' for Active; 'I' for Inactive)
REMARK    1  A    between atoms: C_2  and  C_4
REMARK    2  A    between atoms: C_8  and  C_9
REMARK    3  A    between atoms: C_9  and  O_10
REMARK    4  A    between atoms: O_10  and  C_11
REMARK    5  A    between atoms: C_15  and  N_16
REMARK                            x       y       z     vdW  Elec       q    Type
REMARK                         _______ _______ _______ _____ _____    ______ ____
ROOT
ATOM      1  O   UNL     1      46.833   6.639  11.912  0.00  0.00    +0.000 OA
ENDROOT
BRANCH   1   2
ATOM      2  C   UNL     1      47.667   6.722  12.990  0.00  0.00    +0.000 A 
ATOM      3  C   UNL     1      48.667   7.680  12.938  0.00  0.00    +0.000 A 
ATOM      4  N   UNL     1      49.542   7.912  13.939  0.00  0.00    +0.000 NA
ATOM      5  C   UNL     1      49.413   7.126  15.039  0.00  0.00    +0.000 A 
ATOM      6  C   UNL     1      48.475   6.104  15.207  0.00  0.00    +0.000 A 
ATOM      7  C   UNL     1      47.597   5.919  14.129  0.00  0.00    +0.000 A 
BRANCH   6   8
ATOM      8  N   UNL     1      48.381   5.331  16.350  0.00  0.00    +0.000 N 
ATOM      9  C   UNL     1      49.376   5.410  17.422  0.00  0.00    +0.000 C 
ATOM     10  C   UNL     1      50.097   4.074  17.577  0.00  0.00    +0.000 C 
ATOM     11  C   UNL     1      49.103   2.924  17.740  0.00  0.00    +0.000 C 
ATOM     12  C   UNL     1      48.092   2.913  16.597  0.00  0.00    +0.000 C 
ATOM     13  C   UNL     1      47.386   4.262  16.459  0.00  0.00    +0.000 C 
ENDBRANCH   6   8
ENDBRANCH   1   2
BRANCH   1  14
ATOM     14  C   UNL     1      45.437   6.677  12.216  0.00  0.00    +0.000 C 
BRANCH  14  19
ATOM     15  C   UNL     1      44.392   3.453  10.467  0.00  0.00    +0.000 A 
ATOM     16  C   UNL     1      43.758   2.835  11.536  0.00  0.00    +0.000 A 
ATOM     17  N   UNL     1      43.668   3.379  12.773  0.00  0.00    +0.000 NA
ATOM     18  C   UNL     1      44.211   4.607  12.937  0.00  0.00    +0.000 A 
ATOM     19  C   UNL     1      44.847   5.324  11.926  0.00  0.00    +0.000 A 
ATOM     20  C   UNL     1      44.937   4.726  10.665  0.00  0.00    +0.000 A 
BRANCH  15  22
ATOM     21  N   UNL     1      44.377   3.506   8.042  0.00  0.00    +0.000 N 
ATOM     22  C   UNL     1      44.454   2.744   9.174  0.00  0.00    +0.000 C 
ATOM     23  O   UNL     1      44.611   1.532   9.113  0.00  0.00    +0.000 OA
ATOM     24  H   UNL     1      44.538   3.021   7.167  0.00  0.00    +0.000 HD
ATOM     25  H   UNL     1      44.513   4.507   8.051  0.00  0.00    +0.000 HD
ENDBRANCH  15  22
ENDBRANCH  14  19
ENDBRANCH   1  14
TORSDOF 5
ENDMDL
MODEL 7
REMARK VINA RESULT:    -6.521      3.701      7.884
REMARK INTER + INTRA:          -9.086
REMARK INTER:                  -8.228
REMARK INTRA:                  -0.858
REMARK UNBOUND:                -0.658
REMARK  Name = 
REMARK  5 active torsions:
REMARK  status: ('A' for Active; 'I' for Inactive)
REMARK    1  A    between atoms: C_2  and  C_4
REMARK    2  A    between atoms: C_8  and  C_9
REMARK    3  A    between atoms: C_9  and  O_10
REMARK    4  A    between atoms: O_10  and  C_11
REMARK    5  A    between atoms: C_15  and  N_16
REMARK                            x       y       z     vdW  Elec       q    Type
REMARK                         _______ _______ _______ _____ _____    ______ ____
ROOT
ATOM      1  O   UNL     1      48.741   6.275  13.630  0.00  0.00    +0.000 OA
ENDROOT
BRANCH   1   2
ATOM      2  C   UNL     1      47.553   6.662  13.077  0.00  0.00    +0.000 A 
ATOM      3  C   UNL     1      47.421   7.999  12.742  0.00  0.00    +0.000 A 
ATOM      4  N   UNL     1      46.327   8.524  12.152  0.00  0.00    +0.000 NA
ATOM      5  C   UNL     1      45.309   7.662  11.905  0.00  0.00    +0.000 A 
ATOM      6  C   UNL     1      45.297   6.300  12.223  0.00  0.00    +0.000 A 
ATOM      7  C   UNL     1      46.466   5.821  12.833  0.00  0.00    +0.000 A 
BRANCH   6   8
ATOM      8  N   UNL     1      44.234   5.459  11.948  0.00  0.00    +0.000 N 
ATOM      9  C   UNL     1      43.467   4.806  13.012  0.00  0.00    +0.000 C 
ATOM     10  C   UNL     1      43.616   3.290  12.919  0.00  0.00    +0.000 C 
ATOM     11  C   UNL     1      43.278   2.786  11.517  0.00  0.00    +0.000 C 
ATOM     12  C   UNL     1      44.103   3.519  10.461  0.00  0.00    +0.000 C 
ATOM     13  C   UNL     1      43.942   5.034  10.577  0.00  0.00    +0.000 C 
ENDBRANCH   6   8
ENDBRANCH   1   2
BRANCH   1  14
ATOM     14  C   UNL     1      49.281   7.172  14.603  0.00  0.00    +0.000 C 
BRANCH  14  19
ATOM     15  C   UNL     1      48.038   5.056  17.522  0.00  0.00    +0.000 A 
ATOM     16  C   UNL     1      48.058   6.033  18.508  0.00  0.00    +0.000 A 
ATOM     17  N   UNL     1      48.463   7.307  18.295  0.00  0.00    +0.000 NA
ATOM     18  C   UNL     1      48.835   7.623  17.033  0.00  0.00    +0.000 A 
ATOM     19  C   UNL     1      48.829   6.727  15.967  0.00  0.00    +0.000 A 
ATOM     20  C   UNL     1      48.421   5.414  16.225  0.00  0.00    +0.000 A 
BRANCH  15  22
ATOM     21  N   UNL     1      48.276   3.078  18.907  0.00  0.00    +0.000 N 
ATOM     22  C   UNL     1      47.607   3.691  17.885  0.00  0.00    +0.000 C 
ATOM     23  O   UNL     1      46.665   3.145  17.327  0.00  0.00    +0.000 OA
ATOM     24  H   UNL     1      47.895   2.195  19.222  0.00  0.00    +0.000 HD
ATOM     25  H   UNL     1      48.865   3.586  19.551  0.00  0.00    +0.000 HD
ENDBRANCH  15  22
ENDBRANCH  14  19
ENDBRANCH   1  14
TORSDOF 5
ENDMDL
MODEL 8
REMARK VINA RESULT:    -6.477      4.651      6.288
REMARK INTER + INTRA:          -9.028
REMARK INTER:                  -8.461
REMARK INTRA:                  -0.567
REMARK UNBOUND:                -0.658
REMARK  Name = 
REMARK  5 active torsions:
REMARK  status: ('A' for Active; 'I' for Inactive)
REMARK    1  A    between atoms: C_2  and  C_4
REMARK    2  A    between atoms: C_8  and  C_9
REMARK    3  A    between atoms: C_9  and  O_10
REMARK    4  A    between atoms: O_10  and  C_11
REMARK    5  A    between atoms: C_15  and  N_16
REMARK                            x       y       z     vdW  Elec       q    Type
REMARK                         _______ _______ _______ _____ _____    ______ ____
ROOT
ATOM      1  O   UNL     1      46.573   4.230  15.420  0.00  0.00    +0.000 OA
ENDROOT
BRANCH   1   2
ATOM      2  C   UNL     1      47.458   3.997  16.434  0.00  0.00    +0.000 A 
ATOM      3  C   UNL     1      48.258   2.872  16.324  0.00  0.00    +0.000 A 
ATOM      4  N   UNL     1      49.206   2.530  17.221  0.00  0.00    +0.000 NA
ATOM      5  C   UNL     1      49.341   3.353  18.292  0.00  0.00    +0.000 A 
ATOM      6  C   UNL     1      48.578   4.498  18.543  0.00  0.00    +0.000 A 
ATOM      7  C   UNL     1      47.612   4.794  17.569  0.00  0.00    +0.000 A 
BRANCH   6   8
ATOM      8  N   UNL     1      48.754   5.308  19.650  0.00  0.00    +0.000 N 
ATOM      9  C   UNL     1      48.814   4.762  21.008  0.00  0.00    +0.000 C 
ATOM     10  C   UNL     1      47.649   5.286  21.842  0.00  0.00    +0.000 C 
ATOM     11  C   UNL     1      47.574   6.811  21.793  0.00  0.00    +0.000 C 
ATOM     12  C   UNL     1      47.529   7.307  20.350  0.00  0.00    +0.000 C 
ATOM     13  C   UNL     1      48.702   6.767  19.534  0.00  0.00    +0.000 C 
ENDBRANCH   6   8
ENDBRANCH   1   2
BRANCH   1  14
ATOM     14  C   UNL     1      47.115   4.903  14.281  0.00  0.00    +0.000 C 
BRANCH  14  19
ATOM     15  C   UNL     1      44.523   3.921  11.661  0.00  0.00    +0.000 A 
ATOM     16  C   UNL     1      44.110   5.194  11.293  0.00  0.00    +0.000 A 
ATOM     17  N   UNL     1      44.596   6.331  11.846  0.00  0.00    +0.000 NA
ATOM     18  C   UNL     1      45.556   6.186  12.787  0.00  0.00    +0.000 A 
ATOM     19  C   UNL     1      46.058   4.958  13.212  0.00  0.00    +0.000 A 
ATOM     20  C   UNL     1      45.524   3.803  12.632  0.00  0.00    +0.000 A 
BRANCH  15  22
ATOM     21  N   UNL     1      44.520   2.249   9.903  0.00  0.00    +0.000 N 
ATOM     22  C   UNL     1      43.895   2.756  11.009  0.00  0.00    +0.000 C 
ATOM     23  O   UNL     1      42.883   2.236  11.458  0.00  0.00    +0.000 OA
ATOM     24  H   UNL     1      44.145   1.383   9.538  0.00  0.00    +0.000 HD
ATOM     25  H   UNL     1      45.475   2.479   9.667  0.00  0.00    +0.000 HD
ENDBRANCH  15  22
ENDBRANCH  14  19
ENDBRANCH   1  14
TORSDOF 5
ENDMDL
MODEL 9
REMARK VINA RESULT:    -6.319      3.953      7.817
REMARK INTER + INTRA:          -8.824
REMARK INTER:                  -8.007
REMARK INTRA:                  -0.817
REMARK UNBOUND:                -0.658
REMARK  Name = 
REMARK  5 active torsions:
REMARK  status: ('A' for Active; 'I' for Inactive)
REMARK    1  A    between atoms: C_2  and  C_4
REMARK    2  A    between atoms: C_8  and  C_9
REMARK    3  A    between atoms: C_9  and  O_10
REMARK    4  A    between atoms: O_10  and  C_11
REMARK    5  A    between atoms: C_15  and  N_16
REMARK                            x       y       z     vdW  Elec       q    Type
REMARK                         _______ _______ _______ _____ _____    ______ ____
ROOT
ATOM      1  O   UNL     1      49.156   6.920  14.980  0.00  0.00    +0.000 OA
ENDROOT
BRANCH   1   2
ATOM      2  C   UNL     1      48.045   7.042  14.195  0.00  0.00    +0.000 A 
ATOM      3  C   UNL     1      47.512   8.313  14.054  0.00  0.00    +0.000 A 
ATOM      4  N   UNL     1      46.444   8.601  13.281  0.00  0.00    +0.000 NA
ATOM      5  C   UNL     1      45.874   7.552  12.634  0.00  0.00    +0.000 A 
ATOM      6  C   UNL     1      46.289   6.219  12.715  0.00  0.00    +0.000 A 
ATOM      7  C   UNL     1      47.404   5.993  13.535  0.00  0.00    +0.000 A 
BRANCH   6   8
ATOM      8  N   UNL     1      45.676   5.184  12.033  0.00  0.00    +0.000 N 
ATOM      9  C   UNL     1      45.050   5.382  10.723  0.00  0.00    +0.000 C 
ATOM     10  C   UNL     1      43.551   5.111  10.806  0.00  0.00    +0.000 C 
ATOM     11  C   UNL     1      43.268   3.743  11.424  0.00  0.00    +0.000 C 
ATOM     12  C   UNL     1      43.962   3.604  12.777  0.00  0.00    +0.000 C 
ATOM     13  C   UNL     1      45.460   3.883  12.671  0.00  0.00    +0.000 C 
ENDBRANCH   6   8
ENDBRANCH   1   2
BRANCH   1  14
ATOM     14  C   UNL     1      48.970   7.256  16.357  0.00  0.00    +0.000 C 
BRANCH  14  19
ATOM     15  C   UNL     1      49.367   3.639  17.500  0.00  0.00    +0.000 A 
ATOM     16  C   UNL     1      48.704   3.734  18.716  0.00  0.00    +0.000 A 
ATOM     17  N   UNL     1      48.164   4.882  19.190  0.00  0.00    +0.000 NA
ATOM     18  C   UNL     1      48.269   5.974  18.399  0.00  0.00    +0.000 A 
ATOM     19  C   UNL     1      48.890   5.982  17.153  0.00  0.00    +0.000 A 
ATOM     20  C   UNL     1      49.451   4.784  16.699  0.00  0.00    +0.000 A 
BRANCH  15  22
ATOM     21  N   UNL     1      50.935   1.831  17.897  0.00  0.00    +0.000 N 
ATOM     22  C   UNL     1      49.942   2.339  17.106  0.00  0.00    +0.000 C 
ATOM     23  O   UNL     1      49.524   1.717  16.138  0.00  0.00    +0.000 OA
ATOM     24  H   UNL     1      51.236   0.888  17.684  0.00  0.00    +0.000 HD
ATOM     25  H   UNL     1      51.115   2.177  18.829  0.00  0.00    +0.000 HD
ENDBRANCH  15  22
ENDBRANCH  14  19
ENDBRANCH   1  14
TORSDOF 5
ENDMDL
