MODEL 1
REMARK VINA RESULT:    -7.747      0.000      0.000
REMARK INTER + INTRA:          -9.871
REMARK INTER:                  -9.106
REMARK INTRA:                  -0.765
REMARK UNBOUND:                -0.765
REMARK  Name = 
REMARK  4 active torsions:
REMARK  status: ('A' for Active; 'I' for Inactive)
REMARK    1  A    between atoms: C_1  and  C_2
REMARK    2  A    between atoms: N_7  and  C_8
REMARK    3  A    between atoms: C_8  and  C_9
REMARK    4  A    between atoms: C_13  and  C_14
REMARK                            x       y       z     vdW  Elec       q    Type
REMARK                         _______ _______ _______ _____ _____    ______ ____
ROOT
ATOM      1  C   UNL     1      44.444   3.907  11.187  0.00  0.00    +0.000 C 
ATOM      2  C   UNL     1      43.013   3.732  11.697  0.00  0.00    +0.000 C 
ATOM      3  C   UNL     1      43.306   4.752  10.648  0.00  0.00    +0.000 C 
ENDROOT
BRANCH   1  10
ATOM      4  C   UNL     1      47.100   0.613   6.562  0.00  0.00    +0.000 C 
ATOM      5  C   UNL     1      46.664   1.858   7.271  0.00  0.00    +0.000 A 
ATOM      6  C   UNL     1      46.839   3.118   6.710  0.00  0.00    +0.000 A 
ATOM      7  C   UNL     1      46.382   4.217   7.421  0.00  0.00    +0.000 A 
ATOM      8  N   UNL     1      45.783   4.148   8.630  0.00  0.00    +0.000 NA
ATOM      9  C   UNL     1      45.636   2.931   9.191  0.00  0.00    +0.000 A 
ATOM     10  N   UNL     1      44.985   2.755  10.438  0.00  0.00    +0.000 N 
ATOM     11  C   UNL     1      46.057   1.771   8.529  0.00  0.00    +0.000 A 
ATOM     12  H   UNL     1      45.544   2.131  11.010  0.00  0.00    +0.000 HD
ENDBRANCH   1  10
BRANCH   1  13
ATOM     13  C   UNL     1      45.443   4.595  12.115  0.00  0.00    +0.000 A 
ATOM     14  C   UNL     1      46.042   3.909  13.181  0.00  0.00    +0.000 A 
ATOM     15  C   UNL     1      47.033   4.506  13.959  0.00  0.00    +0.000 A 
ATOM     16  C   UNL     1      47.459   5.804  13.671  0.00  0.00    +0.000 A 
ATOM     17  C   UNL     1      46.898   6.534  12.611  0.00  0.00    +0.000 A 
ATOM     18  C   UNL     1      45.860   5.921  11.886  0.00  0.00    +0.000 A 
BRANCH  17  19
ATOM     19  C   UNL     1      47.442   7.845  12.189  0.00  0.00    +0.000 A 
ATOM     20  C   UNL     1      46.656   9.009  12.277  0.00  0.00    +0.000 A 
ATOM     21  C   UNL     1      47.185  10.272  11.988  0.00  0.00    +0.000 A 
ATOM     22  C   UNL     1      48.517  10.399  11.612  0.00  0.00    +0.000 A 
ATOM     23  C   UNL     1      49.315   9.263  11.507  0.00  0.00    +0.000 A 
ATOM     24  C   UNL     1      48.780   8.001  11.785  0.00  0.00    +0.000 A 
ENDBRANCH  17  19
ENDBRANCH   1  13
TORSDOF 3
ENDMDL
MODEL 2
REMARK VINA RESULT:    -7.411      1.579      3.711
REMARK INTER + INTRA:          -9.477
REMARK INTER:                  -8.891
REMARK INTRA:                  -0.585
REMARK UNBOUND:                -0.765
REMARK  Name = 
REMARK  4 active torsions:
REMARK  status: ('A' for Active; 'I' for Inactive)
REMARK    1  A    between atoms: C_1  and  C_2
REMARK    2  A    between atoms: N_7  and  C_8
REMARK    3  A    between atoms: C_8  and  C_9
REMARK    4  A    between atoms: C_13  and  C_14
REMARK                            x       y       z     vdW  Elec       q    Type
REMARK                         _______ _______ _______ _____ _____    ______ ____
ROOT
ATOM      1  C   UNL     1      44.512   3.921  11.265  0.00  0.00    +0.000 C 
ATOM      2  C   UNL     1      43.223   3.664  12.046  0.00  0.00    +0.000 C 
ATOM      3  C   UNL     1      43.213   4.609  10.892  0.00  0.00    +0.000 C 
ENDROOT
BRANCH   1  10
ATOM      4  C   UNL     1      47.016   0.576   6.591  0.00  0.00    +0.000 C 
ATOM      5  C   UNL     1      46.605   1.829   7.303  0.00  0.00    +0.000 A 
ATOM      6  C   UNL     1      46.767   3.084   6.725  0.00  0.00    +0.000 A 
ATOM      7  C   UNL     1      46.336   4.190   7.439  0.00  0.00    +0.000 A 
ATOM      8  N   UNL     1      45.774   4.134   8.666  0.00  0.00    +0.000 NA
ATOM      9  C   UNL     1      45.639   2.922   9.243  0.00  0.00    +0.000 A 
ATOM     10  N   UNL     1      45.026   2.761  10.510  0.00  0.00    +0.000 N 
ATOM     11  C   UNL     1      46.036   1.755   8.579  0.00  0.00    +0.000 A 
ATOM     12  H   UNL     1      45.600   2.139  11.071  0.00  0.00    +0.000 HD
ENDBRANCH   1  10
BRANCH   1  13
ATOM     13  C   UNL     1      45.585   4.775  11.938  0.00  0.00    +0.000 A 
ATOM     14  C   UNL     1      45.926   6.042  11.443  0.00  0.00    +0.000 A 
ATOM     15  C   UNL     1      46.826   6.863  12.120  0.00  0.00    +0.000 A 
ATOM     16  C   UNL     1      47.391   6.437  13.323  0.00  0.00    +0.000 A 
ATOM     17  C   UNL     1      47.080   5.180  13.866  0.00  0.00    +0.000 A 
ATOM     18  C   UNL     1      46.214   4.356  13.127  0.00  0.00    +0.000 A 
BRANCH  17  19
ATOM     19  C   UNL     1      47.540   4.774  15.214  0.00  0.00    +0.000 A 
ATOM     20  C   UNL     1      47.388   3.445  15.653  0.00  0.00    +0.000 A 
ATOM     21  C   UNL     1      47.914   3.014  16.875  0.00  0.00    +0.000 A 
ATOM     22  C   UNL     1      48.614   3.902  17.684  0.00  0.00    +0.000 A 
ATOM     23  C   UNL     1      48.772   5.224  17.279  0.00  0.00    +0.000 A 
ATOM     24  C   UNL     1      48.235   5.656  16.062  0.00  0.00    +0.000 A 
ENDBRANCH  17  19
ENDBRANCH   1  13
TORSDOF 3
ENDMDL
MODEL 3
REMARK VINA RESULT:    -7.021      0.916      1.827
REMARK INTER + INTRA:          -9.018
REMARK INTER:                  -9.450
REMARK INTRA:                   0.433
REMARK UNBOUND:                -0.765
REMARK  Name = 
REMARK  4 active torsions:
REMARK  status: ('A' for Active; 'I' for Inactive)
REMARK    1  A    between atoms: C_1  and  C_2
REMARK    2  A    between atoms: N_7  and  C_8
REMARK    3  A    between atoms: C_8  and  C_9
REMARK    4  A    between atoms: C_13  and  C_14
REMARK                            x       y       z     vdW  Elec       q    Type
REMARK                         _______ _______ _______ _____ _____    ______ ____
ROOT
ATOM      1  C   UNL     1      44.370   5.035  10.696  0.00  0.00    +0.000 C 
ATOM      2  C   UNL     1      43.351   3.944  11.026  0.00  0.00    +0.000 C 
ATOM      3  C   UNL     1      42.930   5.375  11.030  0.00  0.00    +0.000 C 
ENDROOT
BRANCH   1  10
ATOM      4  C   UNL     1      46.956   2.941   5.383  0.00  0.00    +0.000 C 
ATOM      5  C   UNL     1      46.399   2.818   6.769  0.00  0.00    +0.000 A 
ATOM      6  C   UNL     1      46.406   1.608   7.454  0.00  0.00    +0.000 A 
ATOM      7  C   UNL     1      45.896   1.587   8.742  0.00  0.00    +0.000 A 
ATOM      8  N   UNL     1      45.384   2.663   9.378  0.00  0.00    +0.000 NA
ATOM      9  C   UNL     1      45.351   3.833   8.708  0.00  0.00    +0.000 A 
ATOM     10  N   UNL     1      44.869   5.024   9.306  0.00  0.00    +0.000 N 
ATOM     11  C   UNL     1      45.862   3.940   7.409  0.00  0.00    +0.000 A 
ATOM     12  H   UNL     1      44.245   5.486   8.652  0.00  0.00    +0.000 HD
ENDBRANCH   1  10
BRANCH   1  13
ATOM     13  C   UNL     1      45.424   5.357  11.753  0.00  0.00    +0.000 A 
ATOM     14  C   UNL     1      45.627   4.522  12.862  0.00  0.00    +0.000 A 
ATOM     15  C   UNL     1      46.660   4.759  13.766  0.00  0.00    +0.000 A 
ATOM     16  C   UNL     1      47.529   5.833  13.567  0.00  0.00    +0.000 A 
ATOM     17  C   UNL     1      47.376   6.697  12.471  0.00  0.00    +0.000 A 
ATOM     18  C   UNL     1      46.287   6.462  11.612  0.00  0.00    +0.000 A 
BRANCH  17  19
ATOM     19  C   UNL     1      48.376   7.742  12.152  0.00  0.00    +0.000 A 
ATOM     20  C   UNL     1      49.696   7.392  11.813  0.00  0.00    +0.000 A 
ATOM     21  C   UNL     1      50.625   8.354  11.402  0.00  0.00    +0.000 A 
ATOM     22  C   UNL     1      50.251   9.689  11.310  0.00  0.00    +0.000 A 
ATOM     23  C   UNL     1      48.954  10.066  11.648  0.00  0.00    +0.000 A 
ATOM     24  C   UNL     1      48.030   9.104  12.071  0.00  0.00    +0.000 A 
ENDBRANCH  17  19
ENDBRANCH   1  13
TORSDOF 3
ENDMDL
MODEL 4
REMARK VINA RESULT:    -6.709      1.813      6.815
REMARK INTER + INTRA:          -8.651
REMARK INTER:                  -7.898
REMARK INTRA:                  -0.753
REMARK UNBOUND:                -0.765
REMARK  Name = 
REMARK  4 active torsions:
REMARK  status: ('A' for Active; 'I' for Inactive)
REMARK    1  A    between atoms: C_1  and  C_2
REMARK    2  A    between atoms: N_7  and  C_8
REMARK    3  A    between atoms: C_8  and  C_9
REMARK    4  A    between atoms: C_13  and  C_14
REMARK                            x       y       z     vdW  Elec       q    Type
REMARK                         _______ _______ _______ _____ _____    ______ ____
ROOT
ATOM      1  C   UNL     1      46.210   5.506  13.315  0.00  0.00    +0.000 C 
ATOM      2  C   UNL     1      46.193   4.664  14.591  0.00  0.00    +0.000 C 
ATOM      3  C   UNL     1      47.347   4.561  13.651  0.00  0.00    +0.000 C 
ENDROOT
BRANCH   1  10
ATOM      4  C   UNL     1      48.384  11.375  12.936  0.00  0.00    +0.000 C 
ATOM      5  C   UNL     1      48.314   9.921  12.578  0.00  0.00    +0.000 A 
ATOM      6  C   UNL     1      49.195   9.350  11.667  0.00  0.00    +0.000 A 
ATOM      7  C   UNL     1      49.080   7.993  11.412  0.00  0.00    +0.000 A 
ATOM      8  N   UNL     1      48.162   7.185  11.987  0.00  0.00    +0.000 NA
ATOM      9  C   UNL     1      47.288   7.738  12.851  0.00  0.00    +0.000 A 
ATOM     10  N   UNL     1      46.316   6.964  13.532  0.00  0.00    +0.000 N 
ATOM     11  C   UNL     1      47.350   9.100  13.172  0.00  0.00    +0.000 A 
ATOM     12  H   UNL     1      45.423   7.443  13.477  0.00  0.00    +0.000 HD
ENDBRANCH   1  10
BRANCH   1  13
ATOM     13  C   UNL     1      45.271   5.092  12.185  0.00  0.00    +0.000 A 
ATOM     14  C   UNL     1      43.963   5.592  12.101  0.00  0.00    +0.000 A 
ATOM     15  C   UNL     1      43.146   5.297  11.011  0.00  0.00    +0.000 A 
ATOM     16  C   UNL     1      43.632   4.507   9.967  0.00  0.00    +0.000 A 
ATOM     17  C   UNL     1      44.935   3.986   9.997  0.00  0.00    +0.000 A 
ATOM     18  C   UNL     1      45.710   4.255  11.140  0.00  0.00    +0.000 A 
BRANCH  17  19
ATOM     19  C   UNL     1      45.524   3.282   8.835  0.00  0.00    +0.000 A 
ATOM     20  C   UNL     1      46.011   4.006   7.730  0.00  0.00    +0.000 A 
ATOM     21  C   UNL     1      46.670   3.369   6.673  0.00  0.00    +0.000 A 
ATOM     22  C   UNL     1      46.865   1.993   6.701  0.00  0.00    +0.000 A 
ATOM     23  C   UNL     1      46.386   1.252   7.777  0.00  0.00    +0.000 A 
ATOM     24  C   UNL     1      45.717   1.889   8.827  0.00  0.00    +0.000 A 
ENDBRANCH  17  19
ENDBRANCH   1  13
TORSDOF 3
ENDMDL
MODEL 5
REMARK VINA RESULT:    -6.376      4.623      7.975
REMARK INTER + INTRA:          -8.259
REMARK INTER:                  -7.494
REMARK INTRA:                  -0.765
REMARK UNBOUND:                -0.765
REMARK  Name = 
REMARK  4 active torsions:
REMARK  status: ('A' for Active; 'I' for Inactive)
REMARK    1  A    between atoms: C_1  and  C_2
REMARK    2  A    between atoms: N_7  and  C_8
REMARK    3  A    between atoms: C_8  and  C_9
REMARK    4  A    between atoms: C_13  and  C_14
REMARK                            x       y       z     vdW  Elec       q    Type
REMARK                         _______ _______ _______ _____ _____    ______ ____
ROOT
ATOM      1  C   UNL     1      49.116   6.120  17.149  0.00  0.00    +0.000 C 
ATOM      2  C   UNL     1      48.486   7.041  18.193  0.00  0.00    +0.000 C 
ATOM      3  C   UNL     1      47.876   5.709  17.918  0.00  0.00    +0.000 C 
ENDROOT
BRANCH   1  10
ATOM      4  C   UNL     1      53.757   2.062  18.289  0.00  0.00    +0.000 C 
ATOM      5  C   UNL     1      52.391   2.478  17.835  0.00  0.00    +0.000 A 
ATOM      6  C   UNL     1      51.446   1.548  17.415  0.00  0.00    +0.000 A 
ATOM      7  C   UNL     1      50.197   2.014  17.037  0.00  0.00    +0.000 A 
ATOM      8  N   UNL     1      49.836   3.316  17.042  0.00  0.00    +0.000 NA
ATOM      9  C   UNL     1      50.756   4.225  17.422  0.00  0.00    +0.000 A 
ATOM     10  N   UNL     1      50.457   5.608  17.496  0.00  0.00    +0.000 N 
ATOM     11  C   UNL     1      52.036   3.831  17.834  0.00  0.00    +0.000 A 
ATOM     12  H   UNL     1      51.212   6.126  17.058  0.00  0.00    +0.000 HD
ENDBRANCH   1  10
BRANCH   1  13
ATOM     13  C   UNL     1      48.933   6.492  15.679  0.00  0.00    +0.000 A 
ATOM     14  C   UNL     1      49.895   7.245  14.990  0.00  0.00    +0.000 A 
ATOM     15  C   UNL     1      49.778   7.491  13.623  0.00  0.00    +0.000 A 
ATOM     16  C   UNL     1      48.697   6.968  12.911  0.00  0.00    +0.000 A 
ATOM     17  C   UNL     1      47.709   6.202  13.549  0.00  0.00    +0.000 A 
ATOM     18  C   UNL     1      47.829   6.024  14.939  0.00  0.00    +0.000 A 
BRANCH  17  19
ATOM     19  C   UNL     1      46.644   5.507  12.790  0.00  0.00    +0.000 A 
ATOM     20  C   UNL     1      46.212   6.002  11.545  0.00  0.00    +0.000 A 
ATOM     21  C   UNL     1      45.288   5.302  10.761  0.00  0.00    +0.000 A 
ATOM     22  C   UNL     1      44.783   4.084  11.201  0.00  0.00    +0.000 A 
ATOM     23  C   UNL     1      45.186   3.576  12.432  0.00  0.00    +0.000 A 
ATOM     24  C   UNL     1      46.100   4.283  13.220  0.00  0.00    +0.000 A 
ENDBRANCH  17  19
ENDBRANCH   1  13
TORSDOF 3
ENDMDL
MODEL 6
REMARK VINA RESULT:    -6.330      3.279      7.750
REMARK INTER + INTRA:          -8.205
REMARK INTER:                  -7.501
REMARK INTRA:                  -0.705
REMARK UNBOUND:                -0.765
REMARK  Name = 
REMARK  4 active torsions:
REMARK  status: ('A' for Active; 'I' for Inactive)
REMARK    1  A    between atoms: C_1  and  C_2
REMARK    2  A    between atoms: N_7  and  C_8
REMARK    3  A    between atoms: C_8  and  C_9
REMARK    4  A    between atoms: C_13  and  C_14
REMARK                            x       y       z     vdW  Elec       q    Type
REMARK                         _______ _______ _______ _____ _____    ______ ____
ROOT
ATOM      1  C   UNL     1      48.866   7.841  12.575  0.00  0.00    +0.000 C 
ATOM      2  C   UNL     1      49.858   8.011  11.425  0.00  0.00    +0.000 C 
ATOM      3  C   UNL     1      49.495   9.187  12.267  0.00  0.00    +0.000 C 
ENDROOT
BRANCH   1  10
ATOM      4  C   UNL     1      50.148   5.968  18.419  0.00  0.00    +0.000 C 
ATOM      5  C   UNL     1      49.554   6.863  17.374  0.00  0.00    +0.000 A 
ATOM      6  C   UNL     1      48.883   8.033  17.709  0.00  0.00    +0.000 A 
ATOM      7  C   UNL     1      48.387   8.818  16.681  0.00  0.00    +0.000 A 
ATOM      8  N   UNL     1      48.506   8.519  15.368  0.00  0.00    +0.000 NA
ATOM      9  C   UNL     1      49.132   7.371  15.038  0.00  0.00    +0.000 A 
ATOM     10  N   UNL     1      49.339   6.993  13.688  0.00  0.00    +0.000 N 
ATOM     11  C   UNL     1      49.675   6.532  16.020  0.00  0.00    +0.000 A 
ATOM     12  H   UNL     1      49.088   6.016  13.583  0.00  0.00    +0.000 HD
ENDBRANCH   1  10
BRANCH   1  13
ATOM     13  C   UNL     1      47.393   7.662  12.214  0.00  0.00    +0.000 A 
ATOM     14  C   UNL     1      46.476   8.716  12.341  0.00  0.00    +0.000 A 
ATOM     15  C   UNL     1      45.157   8.582  11.910  0.00  0.00    +0.000 A 
ATOM     16  C   UNL     1      44.733   7.390  11.321  0.00  0.00    +0.000 A 
ATOM     17  C   UNL     1      45.611   6.306  11.163  0.00  0.00    +0.000 A 
ATOM     18  C   UNL     1      46.917   6.456  11.663  0.00  0.00    +0.000 A 
BRANCH  17  19
ATOM     19  C   UNL     1      45.230   5.094  10.402  0.00  0.00    +0.000 A 
ATOM     20  C   UNL     1      45.577   4.962   9.044  0.00  0.00    +0.000 A 
ATOM     21  C   UNL     1      45.325   3.782   8.336  0.00  0.00    +0.000 A 
ATOM     22  C   UNL     1      44.727   2.702   8.974  0.00  0.00    +0.000 A 
ATOM     23  C   UNL     1      44.364   2.807  10.314  0.00  0.00    +0.000 A 
ATOM     24  C   UNL     1      44.606   3.993  11.016  0.00  0.00    +0.000 A 
ENDBRANCH  17  19
ENDBRANCH   1  13
TORSDOF 3
ENDMDL
MODEL 7
REMARK VINA RESULT:    -5.901      3.423      6.412
REMARK INTER + INTRA:          -7.701
REMARK INTER:                  -7.229
REMARK INTRA:                  -0.472
REMARK UNBOUND:                -0.765
REMARK  Name = 
REMARK  4 active torsions:
REMARK  status: ('A' for Active; 'I' for Inactive)
REMARK    1  A    between atoms: C_1  and  C_2
REMARK    2  A    between atoms: N_7  and  C_8
REMARK    3  A    between atoms: C_8  and  C_9
REMARK    4  A    between atoms: C_13  and  C_14
REMARK                            x       y       z     vdW  Elec       q    Type
REMARK                         _______ _______ _______ _____ _____    ______ ____
ROOT
ATOM      1  C   UNL     1      47.986   8.063  12.664  0.00  0.00    +0.000 C 
ATOM      2  C   UNL     1      48.735   9.069  11.790  0.00  0.00    +0.000 C 
ATOM      3  C   UNL     1      49.048   7.615  11.679  0.00  0.00    +0.000 C 
ENDROOT
BRANCH   1  10
ATOM      4  C   UNL     1      42.374   5.417  11.757  0.00  0.00    +0.000 C 
ATOM      5  C   UNL     1      43.818   5.448  12.158  0.00  0.00    +0.000 A 
ATOM      6  C   UNL     1      44.488   4.300  12.567  0.00  0.00    +0.000 A 
ATOM      7  C   UNL     1      45.829   4.411  12.895  0.00  0.00    +0.000 A 
ATOM      8  N   UNL     1      46.532   5.564  12.852  0.00  0.00    +0.000 NA
ATOM      9  C   UNL     1      45.881   6.685  12.482  0.00  0.00    +0.000 A 
ATOM     10  N   UNL     1      46.544   7.933  12.370  0.00  0.00    +0.000 N 
ATOM     11  C   UNL     1      44.529   6.653  12.120  0.00  0.00    +0.000 A 
ATOM     12  H   UNL     1      45.976   8.643  12.821  0.00  0.00    +0.000 HD
ENDBRANCH   1  10
BRANCH   1  13
ATOM     13  C   UNL     1      48.345   8.013  14.147  0.00  0.00    +0.000 A 
ATOM     14  C   UNL     1      48.208   9.139  14.971  0.00  0.00    +0.000 A 
ATOM     15  C   UNL     1      48.433   9.062  16.344  0.00  0.00    +0.000 A 
ATOM     16  C   UNL     1      48.783   7.843  16.927  0.00  0.00    +0.000 A 
ATOM     17  C   UNL     1      48.928   6.683  16.150  0.00  0.00    +0.000 A 
ATOM     18  C   UNL     1      48.751   6.811  14.761  0.00  0.00    +0.000 A 
BRANCH  17  19
ATOM     19  C   UNL     1      49.142   5.352  16.763  0.00  0.00    +0.000 A 
ATOM     20  C   UNL     1      48.127   4.376  16.731  0.00  0.00    +0.000 A 
ATOM     21  C   UNL     1      48.346   3.078  17.205  0.00  0.00    +0.000 A 
ATOM     22  C   UNL     1      49.589   2.723  17.714  0.00  0.00    +0.000 A 
ATOM     23  C   UNL     1      50.609   3.670  17.766  0.00  0.00    +0.000 A 
ATOM     24  C   UNL     1      50.384   4.971  17.303  0.00  0.00    +0.000 A 
ENDBRANCH  17  19
ENDBRANCH   1  13
TORSDOF 3
ENDMDL
MODEL 8
REMARK VINA RESULT:    -5.775      2.805      6.991
REMARK INTER + INTRA:          -7.553
REMARK INTER:                  -7.038
REMARK INTRA:                  -0.515
REMARK UNBOUND:                -0.765
REMARK  Name = 
REMARK  4 active torsions:
REMARK  status: ('A' for Active; 'I' for Inactive)
REMARK    1  A    between atoms: C_1  and  C_2
REMARK    2  A    between atoms: N_7  and  C_8
REMARK    3  A    between atoms: C_8  and  C_9
REMARK    4  A    between atoms: C_13  and  C_14
REMARK                            x       y       z     vdW  Elec       q    Type
REMARK                         _______ _______ _______ _____ _____    ______ ____
ROOT
ATOM      1  C   UNL     1      48.391   8.064  13.217  0.00  0.00    +0.000 C 
ATOM      2  C   UNL     1      48.535   7.991  14.737  0.00  0.00    +0.000 C 
ATOM      3  C   UNL     1      49.082   6.893  13.888  0.00  0.00    +0.000 C 
ENDROOT
BRANCH   1  10
ATOM      4  C   UNL     1      52.730  10.960   9.738  0.00  0.00    +0.000 C 
ATOM      5  C   UNL     1      51.974   9.781  10.270  0.00  0.00    +0.000 A 
ATOM      6  C   UNL     1      52.316   8.478   9.926  0.00  0.00    +0.000 A 
ATOM      7  C   UNL     1      51.583   7.443  10.484  0.00  0.00    +0.000 A 
ATOM      8  N   UNL     1      50.549   7.614  11.337  0.00  0.00    +0.000 NA
ATOM      9  C   UNL     1      50.196   8.876  11.654  0.00  0.00    +0.000 A 
ATOM     10  N   UNL     1      49.151   9.154  12.570  0.00  0.00    +0.000 N 
ATOM     11  C   UNL     1      50.898   9.975  11.144  0.00  0.00    +0.000 A 
ATOM     12  H   UNL     1      48.559   9.878  12.177  0.00  0.00    +0.000 HD
ENDBRANCH   1  10
BRANCH   1  13
ATOM     13  C   UNL     1      47.006   7.811  12.626  0.00  0.00    +0.000 A 
ATOM     14  C   UNL     1      46.023   8.811  12.613  0.00  0.00    +0.000 A 
ATOM     15  C   UNL     1      44.798   8.612  11.978  0.00  0.00    +0.000 A 
ATOM     16  C   UNL     1      44.539   7.406  11.323  0.00  0.00    +0.000 A 
ATOM     17  C   UNL     1      45.490   6.374  11.300  0.00  0.00    +0.000 A 
ATOM     18  C   UNL     1      46.691   6.588  12.001  0.00  0.00    +0.000 A 
BRANCH  17  19
ATOM     19  C   UNL     1      45.303   5.155  10.481  0.00  0.00    +0.000 A 
ATOM     20  C   UNL     1      44.603   4.046  10.995  0.00  0.00    +0.000 A 
ATOM     21  C   UNL     1      44.319   2.929  10.202  0.00  0.00    +0.000 A 
ATOM     22  C   UNL     1      44.722   2.899   8.872  0.00  0.00    +0.000 A 
ATOM     23  C   UNL     1      45.423   3.977   8.339  0.00  0.00    +0.000 A 
ATOM     24  C   UNL     1      45.717   5.088   9.138  0.00  0.00    +0.000 A 
ENDBRANCH  17  19
ENDBRANCH   1  13
TORSDOF 3
ENDMDL
MODEL 9
REMARK VINA RESULT:    -5.648      3.963      7.763
REMARK INTER + INTRA:          -7.404
REMARK INTER:                  -6.638
REMARK INTRA:                  -0.765
REMARK UNBOUND:                -0.765
REMARK  Name = 
REMARK  4 active torsions:
REMARK  status: ('A' for Active; 'I' for Inactive)
REMARK    1  A    between atoms: C_1  and  C_2
REMARK    2  A    between atoms: N_7  and  C_8
REMARK    3  A    between atoms: C_8  and  C_9
REMARK    4  A    between atoms: C_13  and  C_14
REMARK                            x       y       z     vdW  Elec       q    Type
REMARK                         _______ _______ _______ _____ _____    ______ ____
ROOT
ATOM      1  C   UNL     1      49.236   8.300  15.536  0.00  0.00    +0.000 C 
ATOM      2  C   UNL     1      49.244   9.756  16.001  0.00  0.00    +0.000 C 
ATOM      3  C   UNL     1      48.138   8.850  16.425  0.00  0.00    +0.000 C 
ENDROOT
BRANCH   1  10
ATOM      4  C   UNL     1      52.188   3.456  18.205  0.00  0.00    +0.000 C 
ATOM      5  C   UNL     1      51.020   4.178  17.608  0.00  0.00    +0.000 A 
ATOM      6  C   UNL     1      49.753   3.606  17.561  0.00  0.00    +0.000 A 
ATOM      7  C   UNL     1      48.721   4.352  17.016  0.00  0.00    +0.000 A 
ATOM      8  N   UNL     1      48.862   5.600  16.518  0.00  0.00    +0.000 NA
ATOM      9  C   UNL     1      50.094   6.150  16.536  0.00  0.00    +0.000 A 
ATOM     10  N   UNL     1      50.332   7.467  16.072  0.00  0.00    +0.000 N 
ATOM     11  C   UNL     1      51.185   5.465  17.085  0.00  0.00    +0.000 A 
ATOM     12  H   UNL     1      51.156   7.459  15.480  0.00  0.00    +0.000 HD
ENDBRANCH   1  10
BRANCH   1  13
ATOM     13  C   UNL     1      48.880   8.029  14.076  0.00  0.00    +0.000 A 
ATOM     14  C   UNL     1      49.767   8.342  13.037  0.00  0.00    +0.000 A 
ATOM     15  C   UNL     1      49.486   7.995  11.716  0.00  0.00    +0.000 A 
ATOM     16  C   UNL     1      48.311   7.306  11.411  0.00  0.00    +0.000 A 
ATOM     17  C   UNL     1      47.390   6.962  12.414  0.00  0.00    +0.000 A 
ATOM     18  C   UNL     1      47.679   7.379  13.725  0.00  0.00    +0.000 A 
BRANCH  17  19
ATOM     19  C   UNL     1      46.221   6.096  12.139  0.00  0.00    +0.000 A 
ATOM     20  C   UNL     1      45.845   5.797  10.816  0.00  0.00    +0.000 A 
ATOM     21  C   UNL     1      44.813   4.894  10.535  0.00  0.00    +0.000 A 
ATOM     22  C   UNL     1      44.140   4.262  11.573  0.00  0.00    +0.000 A 
ATOM     23  C   UNL     1      44.484   4.545  12.892  0.00  0.00    +0.000 A 
ATOM     24  C   UNL     1      45.507   5.457  13.170  0.00  0.00    +0.000 A 
ENDBRANCH  17  19
ENDBRANCH   1  13
TORSDOF 3
ENDMDL
