MODEL 1
REMARK VINA RESULT:    -7.821      0.000      0.000
REMARK INTER + INTRA:         -11.690
REMARK INTER:                 -10.793
REMARK INTRA:                  -0.897
REMARK UNBOUND:                -0.897
REMARK  Name = 
REMARK  7 active torsions:
REMARK  status: ('A' for Active; 'I' for Inactive)
REMARK    1  A    between atoms: C_2  and  C_3
REMARK    2  A    between atoms: C_6  and  N_7
REMARK    3  A    between atoms: N_7  and  C_8
REMARK    4  A    between atoms: C_8  and  C_9
REMARK    5  A    between atoms: C_9  and  O_10
REMARK    6  A    between atoms: C_9  and  C_11
REMARK    7  A    between atoms: C_15  and  C_16
REMARK                            x       y       z     vdW  Elec       q    Type
REMARK                         _______ _______ _______ _____ _____    ______ ____
ROOT
ATOM      1  C   UNL     1      43.512   5.630  12.327  0.00  0.00    +0.000 C 
ENDROOT
BRANCH   1   2
ATOM      2  C   UNL     1      44.998   5.672  12.661  0.00  0.00    +0.000 A 
ATOM      3  C   UNL     1      45.543   4.737  13.546  0.00  0.00    +0.000 A 
ATOM      4  C   UNL     1      46.875   4.842  13.945  0.00  0.00    +0.000 A 
ATOM      5  C   UNL     1      47.669   5.897  13.483  0.00  0.00    +0.000 A 
ATOM      6  C   UNL     1      47.168   6.852  12.582  0.00  0.00    +0.000 A 
ATOM      7  C   UNL     1      45.831   6.691  12.162  0.00  0.00    +0.000 A 
BRANCH   6   8
ATOM      8  C   UNL     1      47.982   8.011  12.134  0.00  0.00    +0.000 A 
ATOM      9  C   UNL     1      49.344   7.879  11.805  0.00  0.00    +0.000 A 
ATOM     10  C   UNL     1      50.115   8.987  11.430  0.00  0.00    +0.000 A 
ATOM     11  C   UNL     1      49.539  10.250  11.359  0.00  0.00    +0.000 A 
ATOM     12  C   UNL     1      48.191  10.408  11.661  0.00  0.00    +0.000 A 
ATOM     13  C   UNL     1      47.429   9.303  12.051  0.00  0.00    +0.000 A 
ENDBRANCH   6   8
ENDBRANCH   1   2
BRANCH   1  14
ATOM     14  O   UNL     1      42.733   5.448  13.511  0.00  0.00    +0.000 OA
ATOM     15  H   UNL     1      43.291   5.024  14.181  0.00  0.00    +0.000 HD
ENDBRANCH   1  14
BRANCH   1  16
ATOM     16  C   UNL     1      43.225   4.498  11.312  0.00  0.00    +0.000 C 
BRANCH  16  17
ATOM     17  N   UNL     1      43.638   4.837   9.961  0.00  0.00    +0.000 N 
ATOM     18  H   UNL     1      43.119   5.534   9.435  0.00  0.00    +0.000 HD
BRANCH  17  22
ATOM     19  C   UNL     1      46.309   2.583   7.837  0.00  0.00    +0.000 A 
ATOM     20  C   UNL     1      46.206   3.952   7.678  0.00  0.00    +0.000 A 
ATOM     21  N   UNL     1      45.295   4.708   8.354  0.00  0.00    +0.000 NA
ATOM     22  C   UNL     1      44.492   4.058   9.221  0.00  0.00    +0.000 A 
ATOM     23  C   UNL     1      44.608   2.669   9.356  0.00  0.00    +0.000 A 
ATOM     24  N   UNL     1      45.498   1.901   8.678  0.00  0.00    +0.000 NA
BRANCH  19  26
ATOM     25  N   UNL     1      48.128   1.229   6.575  0.00  0.00    +0.000 NA
ATOM     26  C   UNL     1      47.302   1.823   7.139  0.00  0.00    +0.000 C 
ENDBRANCH  19  26
ENDBRANCH  17  22
ENDBRANCH  16  17
ENDBRANCH   1  16
TORSDOF 7
ENDMDL
MODEL 2
REMARK VINA RESULT:    -7.488      3.392      7.005
REMARK INTER + INTRA:         -11.231
REMARK INTER:                 -10.663
REMARK INTRA:                  -0.568
REMARK UNBOUND:                -0.897
REMARK  Name = 
REMARK  7 active torsions:
REMARK  status: ('A' for Active; 'I' for Inactive)
REMARK    1  A    between atoms: C_2  and  C_3
REMARK    2  A    between atoms: C_6  and  N_7
REMARK    3  A    between atoms: N_7  and  C_8
REMARK    4  A    between atoms: C_8  and  C_9
REMARK    5  A    between atoms: C_9  and  O_10
REMARK    6  A    between atoms: C_9  and  C_11
REMARK    7  A    between atoms: C_15  and  C_16
REMARK                            x       y       z     vdW  Elec       q    Type
REMARK                         _______ _______ _______ _____ _____    ______ ____
ROOT
ATOM      1  C   UNL     1      45.127   6.342  11.471  0.00  0.00    +0.000 C 
ENDROOT
BRANCH   1   2
ATOM      2  C   UNL     1      44.735   4.998  10.872  0.00  0.00    +0.000 A 
ATOM      3  C   UNL     1      43.807   4.182  11.527  0.00  0.00    +0.000 A 
ATOM      4  C   UNL     1      43.533   2.903  11.045  0.00  0.00    +0.000 A 
ATOM      5  C   UNL     1      44.202   2.416   9.917  0.00  0.00    +0.000 A 
ATOM      6  C   UNL     1      45.132   3.204   9.218  0.00  0.00    +0.000 A 
ATOM      7  C   UNL     1      45.352   4.510   9.704  0.00  0.00    +0.000 A 
BRANCH   6   8
ATOM      8  C   UNL     1      45.893   2.676   8.058  0.00  0.00    +0.000 A 
ATOM      9  C   UNL     1      46.415   1.369   8.045  0.00  0.00    +0.000 A 
ATOM     10  C   UNL     1      47.173   0.895   6.967  0.00  0.00    +0.000 A 
ATOM     11  C   UNL     1      47.412   1.711   5.866  0.00  0.00    +0.000 A 
ATOM     12  C   UNL     1      46.894   3.001   5.842  0.00  0.00    +0.000 A 
ATOM     13  C   UNL     1      46.152   3.475   6.928  0.00  0.00    +0.000 A 
ENDBRANCH   6   8
ENDBRANCH   1   2
BRANCH   1  14
ATOM     14  O   UNL     1      44.515   7.414  10.751  0.00  0.00    +0.000 OA
ATOM     15  H   UNL     1      44.578   7.218   9.803  0.00  0.00    +0.000 HD
ENDBRANCH   1  14
BRANCH   1  16
ATOM     16  C   UNL     1      46.667   6.499  11.469  0.00  0.00    +0.000 C 
BRANCH  16  17
ATOM     17  N   UNL     1      47.196   6.874  12.769  0.00  0.00    +0.000 N 
ATOM     18  H   UNL     1      47.686   7.757  12.878  0.00  0.00    +0.000 HD
BRANCH  17  22
ATOM     19  C   UNL     1      47.606   4.320  15.936  0.00  0.00    +0.000 A 
ATOM     20  C   UNL     1      48.321   5.500  15.840  0.00  0.00    +0.000 A 
ATOM     21  N   UNL     1      48.218   6.341  14.772  0.00  0.00    +0.000 NA
ATOM     22  C   UNL     1      47.358   5.981  13.797  0.00  0.00    +0.000 A 
ATOM     23  C   UNL     1      46.654   4.776  13.912  0.00  0.00    +0.000 A 
ATOM     24  N   UNL     1      46.759   3.920  14.961  0.00  0.00    +0.000 NA
BRANCH  19  26
ATOM     25  N   UNL     1      47.824   2.791  18.021  0.00  0.00    +0.000 NA
ATOM     26  C   UNL     1      47.710   3.478  17.089  0.00  0.00    +0.000 C 
ENDBRANCH  19  26
ENDBRANCH  17  22
ENDBRANCH  16  17
ENDBRANCH   1  16
TORSDOF 7
ENDMDL
MODEL 3
REMARK VINA RESULT:    -7.432      0.608      1.426
REMARK INTER + INTRA:         -11.154
REMARK INTER:                 -10.299
REMARK INTRA:                  -0.854
REMARK UNBOUND:                -0.897
REMARK  Name = 
REMARK  7 active torsions:
REMARK  status: ('A' for Active; 'I' for Inactive)
REMARK    1  A    between atoms: C_2  and  C_3
REMARK    2  A    between atoms: C_6  and  N_7
REMARK    3  A    between atoms: N_7  and  C_8
REMARK    4  A    between atoms: C_8  and  C_9
REMARK    5  A    between atoms: C_9  and  O_10
REMARK    6  A    between atoms: C_9  and  C_11
REMARK    7  A    between atoms: C_15  and  C_16
REMARK                            x       y       z     vdW  Elec       q    Type
REMARK                         _______ _______ _______ _____ _____    ______ ____
ROOT
ATOM      1  C   UNL     1      43.701   5.364  12.176  0.00  0.00    +0.000 C 
ENDROOT
BRANCH   1   2
ATOM      2  C   UNL     1      45.147   5.566  12.609  0.00  0.00    +0.000 A 
ATOM      3  C   UNL     1      45.722   4.712  13.555  0.00  0.00    +0.000 A 
ATOM      4  C   UNL     1      47.004   4.963  14.040  0.00  0.00    +0.000 A 
ATOM      5  C   UNL     1      47.717   6.084  13.603  0.00  0.00    +0.000 A 
ATOM      6  C   UNL     1      47.187   6.963  12.642  0.00  0.00    +0.000 A 
ATOM      7  C   UNL     1      45.906   6.655  12.138  0.00  0.00    +0.000 A 
BRANCH   6   8
ATOM      8  C   UNL     1      47.908   8.189  12.218  0.00  0.00    +0.000 A 
ATOM      9  C   UNL     1      47.259   9.433  12.109  0.00  0.00    +0.000 A 
ATOM     10  C   UNL     1      47.936  10.574  11.661  0.00  0.00    +0.000 A 
ATOM     11  C   UNL     1      49.285  10.503  11.329  0.00  0.00    +0.000 A 
ATOM     12  C   UNL     1      49.957   9.292  11.443  0.00  0.00    +0.000 A 
ATOM     13  C   UNL     1      49.273   8.151  11.874  0.00  0.00    +0.000 A 
ENDBRANCH   6   8
ENDBRANCH   1   2
BRANCH   1  14
ATOM     14  O   UNL     1      42.821   5.448  13.298  0.00  0.00    +0.000 OA
ATOM     15  H   UNL     1      43.159   6.130  13.899  0.00  0.00    +0.000 HD
ENDBRANCH   1  14
BRANCH   1  16
ATOM     16  C   UNL     1      43.542   3.998  11.466  0.00  0.00    +0.000 C 
BRANCH  16  17
ATOM     17  N   UNL     1      43.570   4.109  10.018  0.00  0.00    +0.000 N 
ATOM     18  H   UNL     1      42.720   4.340   9.514  0.00  0.00    +0.000 HD
BRANCH  17  22
ATOM     19  C   UNL     1      46.512   2.566   7.632  0.00  0.00    +0.000 A 
ATOM     20  C   UNL     1      45.759   1.777   8.482  0.00  0.00    +0.000 A 
ATOM     21  N   UNL     1      44.800   2.286   9.307  0.00  0.00    +0.000 NA
ATOM     22  C   UNL     1      44.595   3.618   9.249  0.00  0.00    +0.000 A 
ATOM     23  C   UNL     1      45.378   4.397   8.389  0.00  0.00    +0.000 A 
ATOM     24  N   UNL     1      46.347   3.907   7.574  0.00  0.00    +0.000 NA
BRANCH  19  26
ATOM     25  N   UNL     1      48.288   1.558   6.033  0.00  0.00    +0.000 NA
ATOM     26  C   UNL     1      47.485   1.995   6.752  0.00  0.00    +0.000 C 
ENDBRANCH  19  26
ENDBRANCH  17  22
ENDBRANCH  16  17
ENDBRANCH   1  16
TORSDOF 7
ENDMDL
MODEL 4
REMARK VINA RESULT:    -7.361      1.664      3.679
REMARK INTER + INTRA:         -11.056
REMARK INTER:                 -10.211
REMARK INTRA:                  -0.845
REMARK UNBOUND:                -0.897
REMARK  Name = 
REMARK  7 active torsions:
REMARK  status: ('A' for Active; 'I' for Inactive)
REMARK    1  A    between atoms: C_2  and  C_3
REMARK    2  A    between atoms: C_6  and  N_7
REMARK    3  A    between atoms: N_7  and  C_8
REMARK    4  A    between atoms: C_8  and  C_9
REMARK    5  A    between atoms: C_9  and  O_10
REMARK    6  A    between atoms: C_9  and  C_11
REMARK    7  A    between atoms: C_15  and  C_16
REMARK                            x       y       z     vdW  Elec       q    Type
REMARK                         _______ _______ _______ _____ _____    ______ ____
ROOT
ATOM      1  C   UNL     1      43.701   5.400  12.158  0.00  0.00    +0.000 C 
ENDROOT
BRANCH   1   2
ATOM      2  C   UNL     1      45.139   5.754  12.514  0.00  0.00    +0.000 A 
ATOM      3  C   UNL     1      45.935   6.455  11.602  0.00  0.00    +0.000 A 
ATOM      4  C   UNL     1      47.283   6.678  11.875  0.00  0.00    +0.000 A 
ATOM      5  C   UNL     1      47.857   6.184  13.051  0.00  0.00    +0.000 A 
ATOM      6  C   UNL     1      47.093   5.487  14.004  0.00  0.00    +0.000 A 
ATOM      7  C   UNL     1      45.722   5.318  13.719  0.00  0.00    +0.000 A 
BRANCH   6   8
ATOM      8  C   UNL     1      47.705   4.904  15.224  0.00  0.00    +0.000 A 
ATOM      9  C   UNL     1      48.552   5.654  16.062  0.00  0.00    +0.000 A 
ATOM     10  C   UNL     1      49.163   5.081  17.185  0.00  0.00    +0.000 A 
ATOM     11  C   UNL     1      48.927   3.749  17.508  0.00  0.00    +0.000 A 
ATOM     12  C   UNL     1      48.081   2.988  16.709  0.00  0.00    +0.000 A 
ATOM     13  C   UNL     1      47.487   3.559  15.580  0.00  0.00    +0.000 A 
ENDBRANCH   6   8
ENDBRANCH   1   2
BRANCH   1  14
ATOM     14  O   UNL     1      42.866   5.451  13.317  0.00  0.00    +0.000 OA
ATOM     15  H   UNL     1      43.436   5.486  14.101  0.00  0.00    +0.000 HD
ENDBRANCH   1  14
BRANCH   1  16
ATOM     16  C   UNL     1      43.641   3.996  11.511  0.00  0.00    +0.000 C 
BRANCH  16  17
ATOM     17  N   UNL     1      43.527   4.049  10.064  0.00  0.00    +0.000 N 
ATOM     18  H   UNL     1      42.634   4.276   9.636  0.00  0.00    +0.000 HD
BRANCH  17  22
ATOM     19  C   UNL     1      46.430   2.511   7.628  0.00  0.00    +0.000 A 
ATOM     20  C   UNL     1      46.083   3.850   7.611  0.00  0.00    +0.000 A 
ATOM     21  N   UNL     1      45.093   4.365   8.394  0.00  0.00    +0.000 NA
ATOM     22  C   UNL     1      44.462   3.505   9.219  0.00  0.00    +0.000 A 
ATOM     23  C   UNL     1      44.823   2.153   9.209  0.00  0.00    +0.000 A 
ATOM     24  N   UNL     1      45.796   1.622   8.424  0.00  0.00    +0.000 NA
BRANCH  19  26
ATOM     25  N   UNL     1      48.383   1.589   6.189  0.00  0.00    +0.000 NA
ATOM     26  C   UNL     1      47.501   2.009   6.821  0.00  0.00    +0.000 C 
ENDBRANCH  19  26
ENDBRANCH  17  22
ENDBRANCH  16  17
ENDBRANCH   1  16
TORSDOF 7
ENDMDL
MODEL 5
REMARK VINA RESULT:    -6.919      4.461      7.799
REMARK INTER + INTRA:         -10.446
REMARK INTER:                  -9.730
REMARK INTRA:                  -0.716
REMARK UNBOUND:                -0.897
REMARK  Name = 
REMARK  7 active torsions:
REMARK  status: ('A' for Active; 'I' for Inactive)
REMARK    1  A    between atoms: C_2  and  C_3
REMARK    2  A    between atoms: C_6  and  N_7
REMARK    3  A    between atoms: N_7  and  C_8
REMARK    4  A    between atoms: C_8  and  C_9
REMARK    5  A    between atoms: C_9  and  O_10
REMARK    6  A    between atoms: C_9  and  C_11
REMARK    7  A    between atoms: C_15  and  C_16
REMARK                            x       y       z     vdW  Elec       q    Type
REMARK                         _______ _______ _______ _____ _____    ______ ____
ROOT
ATOM      1  C   UNL     1      45.883   5.696  13.657  0.00  0.00    +0.000 C 
ENDROOT
BRANCH   1   2
ATOM      2  C   UNL     1      45.036   5.354  12.439  0.00  0.00    +0.000 A 
ATOM      3  C   UNL     1      43.651   5.545  12.472  0.00  0.00    +0.000 A 
ATOM      4  C   UNL     1      42.859   5.125  11.405  0.00  0.00    +0.000 A 
ATOM      5  C   UNL     1      43.438   4.487  10.304  0.00  0.00    +0.000 A 
ATOM      6  C   UNL     1      44.827   4.286  10.219  0.00  0.00    +0.000 A 
ATOM      7  C   UNL     1      45.605   4.763  11.294  0.00  0.00    +0.000 A 
BRANCH   6   8
ATOM      8  C   UNL     1      45.446   3.555   9.085  0.00  0.00    +0.000 A 
ATOM      9  C   UNL     1      45.522   2.150   9.060  0.00  0.00    +0.000 A 
ATOM     10  C   UNL     1      46.151   1.471   8.008  0.00  0.00    +0.000 A 
ATOM     11  C   UNL     1      46.703   2.180   6.947  0.00  0.00    +0.000 A 
ATOM     12  C   UNL     1      46.628   3.568   6.936  0.00  0.00    +0.000 A 
ATOM     13  C   UNL     1      46.014   4.243   7.996  0.00  0.00    +0.000 A 
ENDBRANCH   6   8
ENDBRANCH   1   2
BRANCH   1  14
ATOM     14  O   UNL     1      46.368   7.038  13.575  0.00  0.00    +0.000 OA
ATOM     15  H   UNL     1      45.746   7.553  13.038  0.00  0.00    +0.000 HD
ENDBRANCH   1  14
BRANCH   1  16
ATOM     16  C   UNL     1      47.063   4.702  13.783  0.00  0.00    +0.000 C 
BRANCH  16  17
ATOM     17  N   UNL     1      46.929   3.812  14.923  0.00  0.00    +0.000 N 
ATOM     18  H   UNL     1      46.139   3.177  14.977  0.00  0.00    +0.000 HD
BRANCH  17  22
ATOM     19  C   UNL     1      48.917   4.464  18.438  0.00  0.00    +0.000 A 
ATOM     20  C   UNL     1      49.095   5.268  17.327  0.00  0.00    +0.000 A 
ATOM     21  N   UNL     1      48.464   5.039  16.141  0.00  0.00    +0.000 NA
ATOM     22  C   UNL     1      47.625   3.984  16.094  0.00  0.00    +0.000 A 
ATOM     23  C   UNL     1      47.470   3.178  17.228  0.00  0.00    +0.000 A 
ATOM     24  N   UNL     1      48.103   3.384  18.411  0.00  0.00    +0.000 NA
BRANCH  19  26
ATOM     25  N   UNL     1      50.080   4.968  20.702  0.00  0.00    +0.000 NA
ATOM     26  C   UNL     1      49.566   4.755  19.680  0.00  0.00    +0.000 C 
ENDBRANCH  19  26
ENDBRANCH  17  22
ENDBRANCH  16  17
ENDBRANCH   1  16
TORSDOF 7
ENDMDL
MODEL 6
REMARK VINA RESULT:    -6.704      3.462      7.465
REMARK INTER + INTRA:         -10.149
REMARK INTER:                  -9.352
REMARK INTRA:                  -0.798
REMARK UNBOUND:                -0.897
REMARK  Name = 
REMARK  7 active torsions:
REMARK  status: ('A' for Active; 'I' for Inactive)
REMARK    1  A    between atoms: C_2  and  C_3
REMARK    2  A    between atoms: C_6  and  N_7
REMARK    3  A    between atoms: N_7  and  C_8
REMARK    4  A    between atoms: C_8  and  C_9
REMARK    5  A    between atoms: C_9  and  O_10
REMARK    6  A    between atoms: C_9  and  C_11
REMARK    7  A    between atoms: C_15  and  C_16
REMARK                            x       y       z     vdW  Elec       q    Type
REMARK                         _______ _______ _______ _____ _____    ______ ____
ROOT
ATOM      1  C   UNL     1      45.498   6.319  11.156  0.00  0.00    +0.000 C 
ENDROOT
BRANCH   1   2
ATOM      2  C   UNL     1      45.066   4.985  10.562  0.00  0.00    +0.000 A 
ATOM      3  C   UNL     1      44.121   4.195  11.225  0.00  0.00    +0.000 A 
ATOM      4  C   UNL     1      43.811   2.924  10.747  0.00  0.00    +0.000 A 
ATOM      5  C   UNL     1      44.458   2.417   9.615  0.00  0.00    +0.000 A 
ATOM      6  C   UNL     1      45.404   3.179   8.908  0.00  0.00    +0.000 A 
ATOM      7  C   UNL     1      45.662   4.479   9.391  0.00  0.00    +0.000 A 
BRANCH   6   8
ATOM      8  C   UNL     1      46.143   2.629   7.744  0.00  0.00    +0.000 A 
ATOM      9  C   UNL     1      46.330   3.372   6.563  0.00  0.00    +0.000 A 
ATOM     10  C   UNL     1      46.986   2.826   5.453  0.00  0.00    +0.000 A 
ATOM     11  C   UNL     1      47.488   1.530   5.502  0.00  0.00    +0.000 A 
ATOM     12  C   UNL     1      47.334   0.778   6.661  0.00  0.00    +0.000 A 
ATOM     13  C   UNL     1      46.664   1.320   7.762  0.00  0.00    +0.000 A 
ENDBRANCH   6   8
ENDBRANCH   1   2
BRANCH   1  14
ATOM     14  O   UNL     1      46.904   6.513  10.995  0.00  0.00    +0.000 OA
ATOM     15  H   UNL     1      47.330   5.642  10.965  0.00  0.00    +0.000 HD
ENDBRANCH   1  14
BRANCH   1  16
ATOM     16  C   UNL     1      45.111   6.388  12.653  0.00  0.00    +0.000 C 
BRANCH  16  17
ATOM     17  N   UNL     1      44.788   7.736  13.089  0.00  0.00    +0.000 N 
ATOM     18  H   UNL     1      43.870   7.934  13.475  0.00  0.00    +0.000 HD
BRANCH  17  22
ATOM     19  C   UNL     1      47.073  10.918  11.915  0.00  0.00    +0.000 A 
ATOM     20  C   UNL     1      47.579   9.889  12.688  0.00  0.00    +0.000 A 
ATOM     21  N   UNL     1      46.817   8.842  13.113  0.00  0.00    +0.000 NA
ATOM     22  C   UNL     1      45.525   8.836  12.729  0.00  0.00    +0.000 A 
ATOM     23  C   UNL     1      45.033   9.895  11.956  0.00  0.00    +0.000 A 
ATOM     24  N   UNL     1      45.775  10.953  11.538  0.00  0.00    +0.000 NA
BRANCH  19  26
ATOM     25  N   UNL     1      48.565  12.869  11.079  0.00  0.00    +0.000 NA
ATOM     26  C   UNL     1      47.909  11.985  11.453  0.00  0.00    +0.000 C 
ENDBRANCH  19  26
ENDBRANCH  17  22
ENDBRANCH  16  17
ENDBRANCH   1  16
TORSDOF 7
ENDMDL
MODEL 7
REMARK VINA RESULT:    -6.599      3.117      6.858
REMARK INTER + INTRA:         -10.005
REMARK INTER:                  -9.242
REMARK INTRA:                  -0.763
REMARK UNBOUND:                -0.897
REMARK  Name = 
REMARK  7 active torsions:
REMARK  status: ('A' for Active; 'I' for Inactive)
REMARK    1  A    between atoms: C_2  and  C_3
REMARK    2  A    between atoms: C_6  and  N_7
REMARK    3  A    between atoms: N_7  and  C_8
REMARK    4  A    between atoms: C_8  and  C_9
REMARK    5  A    between atoms: C_9  and  O_10
REMARK    6  A    between atoms: C_9  and  C_11
REMARK    7  A    between atoms: C_15  and  C_16
REMARK                            x       y       z     vdW  Elec       q    Type
REMARK                         _______ _______ _______ _____ _____    ______ ____
ROOT
ATOM      1  C   UNL     1      44.285   6.448  11.799  0.00  0.00    +0.000 C 
ENDROOT
BRANCH   1   2
ATOM      2  C   UNL     1      44.133   5.041  11.237  0.00  0.00    +0.000 A 
ATOM      3  C   UNL     1      43.364   4.093  11.920  0.00  0.00    +0.000 A 
ATOM      4  C   UNL     1      43.317   2.774  11.472  0.00  0.00    +0.000 A 
ATOM      5  C   UNL     1      44.056   2.381  10.351  0.00  0.00    +0.000 A 
ATOM      6  C   UNL     1      44.832   3.302   9.625  0.00  0.00    +0.000 A 
ATOM      7  C   UNL     1      44.822   4.638  10.077  0.00  0.00    +0.000 A 
BRANCH   6   8
ATOM      8  C   UNL     1      45.669   2.885   8.473  0.00  0.00    +0.000 A 
ATOM      9  C   UNL     1      46.007   3.776   7.437  0.00  0.00    +0.000 A 
ATOM     10  C   UNL     1      46.757   3.360   6.330  0.00  0.00    +0.000 A 
ATOM     11  C   UNL     1      47.204   2.046   6.240  0.00  0.00    +0.000 A 
ATOM     12  C   UNL     1      46.902   1.147   7.256  0.00  0.00    +0.000 A 
ATOM     13  C   UNL     1      46.138   1.562   8.352  0.00  0.00    +0.000 A 
ENDBRANCH   6   8
ENDBRANCH   1   2
BRANCH   1  14
ATOM     14  O   UNL     1      44.636   7.370  10.765  0.00  0.00    +0.000 OA
ATOM     15  H   UNL     1      44.739   6.874   9.938  0.00  0.00    +0.000 HD
ENDBRANCH   1  14
BRANCH   1  16
ATOM     16  C   UNL     1      45.352   6.462  12.920  0.00  0.00    +0.000 C 
BRANCH  16  17
ATOM     17  N   UNL     1      45.929   7.779  13.130  0.00  0.00    +0.000 N 
ATOM     18  H   UNL     1      45.320   8.581  13.261  0.00  0.00    +0.000 HD
BRANCH  17  22
ATOM     19  C   UNL     1      49.876   8.611  12.456  0.00  0.00    +0.000 A 
ATOM     20  C   UNL     1      49.105   9.347  13.337  0.00  0.00    +0.000 A 
ATOM     21  N   UNL     1      47.780   9.100  13.543  0.00  0.00    +0.000 NA
ATOM     22  C   UNL     1      47.240   8.075  12.853  0.00  0.00    +0.000 A 
ATOM     23  C   UNL     1      48.038   7.353  11.957  0.00  0.00    +0.000 A 
ATOM     24  N   UNL     1      49.354   7.597  11.730  0.00  0.00    +0.000 NA
BRANCH  19  26
ATOM     25  N   UNL     1      52.403   9.109  12.140  0.00  0.00    +0.000 NA
ATOM     26  C   UNL     1      51.274   8.873  12.291  0.00  0.00    +0.000 C 
ENDBRANCH  19  26
ENDBRANCH  17  22
ENDBRANCH  16  17
ENDBRANCH   1  16
TORSDOF 7
ENDMDL
MODEL 8
REMARK VINA RESULT:    -6.345      4.013      7.531
REMARK INTER + INTRA:          -9.654
REMARK INTER:                  -8.985
REMARK INTRA:                  -0.669
REMARK UNBOUND:                -0.897
REMARK  Name = 
REMARK  7 active torsions:
REMARK  status: ('A' for Active; 'I' for Inactive)
REMARK    1  A    between atoms: C_2  and  C_3
REMARK    2  A    between atoms: C_6  and  N_7
REMARK    3  A    between atoms: N_7  and  C_8
REMARK    4  A    between atoms: C_8  and  C_9
REMARK    5  A    between atoms: C_9  and  O_10
REMARK    6  A    between atoms: C_9  and  C_11
REMARK    7  A    between atoms: C_15  and  C_16
REMARK                            x       y       z     vdW  Elec       q    Type
REMARK                         _______ _______ _______ _____ _____    ______ ____
ROOT
ATOM      1  C   UNL     1      45.066   6.468  12.771  0.00  0.00    +0.000 C 
ENDROOT
BRANCH   1   2
ATOM      2  C   UNL     1      44.571   5.224  12.046  0.00  0.00    +0.000 A 
ATOM      3  C   UNL     1      43.611   4.400  12.643  0.00  0.00    +0.000 A 
ATOM      4  C   UNL     1      43.242   3.200  12.038  0.00  0.00    +0.000 A 
ATOM      5  C   UNL     1      43.845   2.798  10.841  0.00  0.00    +0.000 A 
ATOM      6  C   UNL     1      44.804   3.599  10.197  0.00  0.00    +0.000 A 
ATOM      7  C   UNL     1      45.122   4.829  10.812  0.00  0.00    +0.000 A 
BRANCH   6   8
ATOM      8  C   UNL     1      45.495   3.154   8.962  0.00  0.00    +0.000 A 
ATOM      9  C   UNL     1      45.821   1.803   8.738  0.00  0.00    +0.000 A 
ATOM     10  C   UNL     1      46.517   1.399   7.591  0.00  0.00    +0.000 A 
ATOM     11  C   UNL     1      46.889   2.335   6.631  0.00  0.00    +0.000 A 
ATOM     12  C   UNL     1      46.565   3.674   6.816  0.00  0.00    +0.000 A 
ATOM     13  C   UNL     1      45.885   4.075   7.970  0.00  0.00    +0.000 A 
ENDBRANCH   6   8
ENDBRANCH   1   2
BRANCH   1  14
ATOM     14  O   UNL     1      44.462   7.644  12.226  0.00  0.00    +0.000 OA
ATOM     15  H   UNL     1      45.165   8.278  12.017  0.00  0.00    +0.000 HD
ENDBRANCH   1  14
BRANCH   1  16
ATOM     16  C   UNL     1      46.608   6.562  12.680  0.00  0.00    +0.000 C 
BRANCH  16  17
ATOM     17  N   UNL     1      47.260   6.347  13.959  0.00  0.00    +0.000 N 
ATOM     18  H   UNL     1      46.825   5.746  14.653  0.00  0.00    +0.000 HD
BRANCH  17  22
ATOM     19  C   UNL     1      50.377   8.668  15.233  0.00  0.00    +0.000 A 
ATOM     20  C   UNL     1      50.381   7.291  15.359  0.00  0.00    +0.000 A 
ATOM     21  N   UNL     1      49.333   6.512  14.970  0.00  0.00    +0.000 NA
ATOM     22  C   UNL     1      48.274   7.146  14.427  0.00  0.00    +0.000 A 
ATOM     23  C   UNL     1      48.289   8.542  14.321  0.00  0.00    +0.000 A 
ATOM     24  N   UNL     1      49.318   9.333  14.719  0.00  0.00    +0.000 NA
BRANCH  19  26
ATOM     25  N   UNL     1      52.413  10.118  15.929  0.00  0.00    +0.000 NA
ATOM     26  C   UNL     1      51.510   9.455  15.617  0.00  0.00    +0.000 C 
ENDBRANCH  19  26
ENDBRANCH  17  22
ENDBRANCH  16  17
ENDBRANCH   1  16
TORSDOF 7
ENDMDL
MODEL 9
REMARK VINA RESULT:    -6.345      5.413      7.294
REMARK INTER + INTRA:          -9.653
REMARK INTER:                  -8.969
REMARK INTRA:                  -0.683
REMARK UNBOUND:                -0.897
REMARK  Name = 
REMARK  7 active torsions:
REMARK  status: ('A' for Active; 'I' for Inactive)
REMARK    1  A    between atoms: C_2  and  C_3
REMARK    2  A    between atoms: C_6  and  N_7
REMARK    3  A    between atoms: N_7  and  C_8
REMARK    4  A    between atoms: C_8  and  C_9
REMARK    5  A    between atoms: C_9  and  O_10
REMARK    6  A    between atoms: C_9  and  C_11
REMARK    7  A    between atoms: C_15  and  C_16
REMARK                            x       y       z     vdW  Elec       q    Type
REMARK                         _______ _______ _______ _____ _____    ______ ____
ROOT
ATOM      1  C   UNL     1      47.224   3.975  17.278  0.00  0.00    +0.000 C 
ENDROOT
BRANCH   1   2
ATOM      2  C   UNL     1      48.543   4.198  18.004  0.00  0.00    +0.000 A 
ATOM      3  C   UNL     1      48.694   5.290  18.865  0.00  0.00    +0.000 A 
ATOM      4  C   UNL     1      49.933   5.565  19.440  0.00  0.00    +0.000 A 
ATOM      5  C   UNL     1      51.042   4.765  19.143  0.00  0.00    +0.000 A 
ATOM      6  C   UNL     1      50.936   3.649  18.295  0.00  0.00    +0.000 A 
ATOM      7  C   UNL     1      49.658   3.372  17.766  0.00  0.00    +0.000 A 
BRANCH   6   8
ATOM      8  C   UNL     1      52.118   2.832  17.923  0.00  0.00    +0.000 A 
ATOM      9  C   UNL     1      52.010   1.460  17.627  0.00  0.00    +0.000 A 
ATOM     10  C   UNL     1      53.138   0.687  17.324  0.00  0.00    +0.000 A 
ATOM     11  C   UNL     1      54.400   1.270  17.293  0.00  0.00    +0.000 A 
ATOM     12  C   UNL     1      54.536   2.627  17.564  0.00  0.00    +0.000 A 
ATOM     13  C   UNL     1      53.410   3.392  17.882  0.00  0.00    +0.000 A 
ENDBRANCH   6   8
ENDBRANCH   1   2
BRANCH   1  14
ATOM     14  O   UNL     1      46.569   2.803  17.768  0.00  0.00    +0.000 OA
ATOM     15  H   UNL     1      46.879   2.637  18.672  0.00  0.00    +0.000 HD
ENDBRANCH   1  14
BRANCH   1  16
ATOM     16  C   UNL     1      47.466   3.860  15.754  0.00  0.00    +0.000 C 
BRANCH  16  17
ATOM     17  N   UNL     1      46.866   4.952  15.005  0.00  0.00    +0.000 N 
ATOM     18  H   UNL     1      46.566   5.791  15.492  0.00  0.00    +0.000 HD
BRANCH  17  22
ATOM     19  C   UNL     1      45.284   4.509  11.260  0.00  0.00    +0.000 A 
ATOM     20  C   UNL     1      45.343   3.466  12.166  0.00  0.00    +0.000 A 
ATOM     21  N   UNL     1      45.900   3.594  13.404  0.00  0.00    +0.000 NA
ATOM     22  C   UNL     1      46.386   4.809  13.728  0.00  0.00    +0.000 A 
ATOM     23  C   UNL     1      46.326   5.846  12.789  0.00  0.00    +0.000 A 
ATOM     24  N   UNL     1      45.789   5.730  11.547  0.00  0.00    +0.000 NA
BRANCH  19  26
ATOM     25  N   UNL     1      44.132   4.245   8.951  0.00  0.00    +0.000 NA
ATOM     26  C   UNL     1      44.659   4.351   9.982  0.00  0.00    +0.000 C 
ENDBRANCH  19  26
ENDBRANCH  17  22
ENDBRANCH  16  17
ENDBRANCH   1  16
TORSDOF 7
ENDMDL
