MODEL 1
REMARK VINA RESULT:    -7.868      0.000      0.000
REMARK INTER + INTRA:         -12.663
REMARK INTER:                 -11.317
REMARK INTRA:                  -1.345
REMARK UNBOUND:                -1.345
REMARK  Name = 
REMARK  9 active torsions:
REMARK  status: ('A' for Active; 'I' for Inactive)
REMARK    1  A    between atoms: C_1  and  N_2
REMARK    2  A    between atoms: C_4  and  C_5
REMARK    3  A    between atoms: N_7  and  C_8
REMARK    4  A    between atoms: C_8  and  C_9
REMARK    5  A    between atoms: C_12  and  C_13
REMARK    6  A    between atoms: C_13  and  O_14
REMARK    7  A    between atoms: O_14  and  C_15
REMARK    8  A    between atoms: C_15  and  C_16
REMARK    9  A    between atoms: C_26  and  O_27
REMARK                            x       y       z     vdW  Elec       q    Type
REMARK                         _______ _______ _______ _____ _____    ______ ____
ROOT
ATOM      1  C   UNL     1      47.794   7.137  13.370  0.00  0.00    +0.000 C 
ENDROOT
BRANCH   1   2
ATOM      2  C   UNL     1      46.617   6.369  12.832  0.00  0.00    +0.000 A 
ATOM      3  C   UNL     1      46.035   5.338  13.581  0.00  0.00    +0.000 A 
ATOM      4  C   UNL     1      44.942   4.627  13.080  0.00  0.00    +0.000 A 
ATOM      5  C   UNL     1      44.417   4.922  11.815  0.00  0.00    +0.000 A 
ATOM      6  C   UNL     1      45.011   5.942  11.059  0.00  0.00    +0.000 A 
ATOM      7  C   UNL     1      46.103   6.656  11.561  0.00  0.00    +0.000 A 
BRANCH   5   8
ATOM      8  C   UNL     1      43.249   4.144  11.265  0.00  0.00    +0.000 C 
BRANCH   8   9
ATOM      9  O   UNL     1      43.557   3.694   9.949  0.00  0.00    +0.000 OA
BRANCH   9  10
ATOM     10  C   UNL     1      44.413   2.553   9.982  0.00  0.00    +0.000 C 
BRANCH  10  11
ATOM     11  C   UNL     1      45.287   2.509   8.751  0.00  0.00    +0.000 A 
ATOM     12  C   UNL     1      45.476   3.642   7.947  0.00  0.00    +0.000 A 
ATOM     13  C   UNL     1      46.309   3.591   6.828  0.00  0.00    +0.000 A 
ATOM     14  C   UNL     1      46.971   2.406   6.512  0.00  0.00    +0.000 A 
ATOM     15 CL   UNL     1      47.992   2.338   5.129  0.00  0.00    +0.000 Cl
ATOM     16  C   UNL     1      46.813   1.277   7.311  0.00  0.00    +0.000 A 
ATOM     17  C   UNL     1      45.979   1.330   8.431  0.00  0.00    +0.000 A 
ENDBRANCH  10  11
ENDBRANCH   9  10
ENDBRANCH   8   9
ENDBRANCH   5   8
ENDBRANCH   1   2
BRANCH   1  20
ATOM     18  C   UNL     1      49.243   6.886  15.327  0.00  0.00    +0.000 C 
ATOM     19  O   UNL     1      50.258   7.098  14.669  0.00  0.00    +0.000 OA
ATOM     20  N   UNL     1      47.986   6.883  14.776  0.00  0.00    +0.000 N 
ATOM     21  H   UNL     1      47.175   6.700  15.347  0.00  0.00    +0.000 HD
BRANCH  18  25
ATOM     22  C   UNL     1      50.013   7.365  20.254  0.00  0.00    +0.000 C 
ATOM     23  N   UNL     1      49.659   6.820  18.964  0.00  0.00    +0.000 N 
ATOM     24  C   UNL     1      49.752   7.478  17.763  0.00  0.00    +0.000 A 
ATOM     25  C   UNL     1      49.320   6.620  16.759  0.00  0.00    +0.000 A 
ATOM     26  C   UNL     1      48.953   5.390  17.406  0.00  0.00    +0.000 A 
ATOM     27  C   UNL     1      48.457   4.137  17.028  0.00  0.00    +0.000 A 
ATOM     28  N   UNL     1      48.225   3.188  17.951  0.00  0.00    +0.000 NA
ATOM     29  C   UNL     1      48.488   3.489  19.233  0.00  0.00    +0.000 A 
ATOM     30  N   UNL     1      48.965   4.643  19.732  0.00  0.00    +0.000 NA
ATOM     31  C   UNL     1      49.178   5.554  18.766  0.00  0.00    +0.000 A 
BRANCH  27  32
ATOM     32  O   UNL     1      48.171   3.776  15.734  0.00  0.00    +0.000 OA
ATOM     33  H   UNL     1      49.011   3.522  15.302  0.00  0.00    +0.000 HD
ENDBRANCH  27  32
ENDBRANCH  18  25
ENDBRANCH   1  20
TORSDOF 8
ENDMDL
MODEL 2
REMARK VINA RESULT:    -7.826      1.501      2.470
REMARK INTER + INTRA:         -12.603
REMARK INTER:                 -11.371
REMARK INTRA:                  -1.232
REMARK UNBOUND:                -1.345
REMARK  Name = 
REMARK  9 active torsions:
REMARK  status: ('A' for Active; 'I' for Inactive)
REMARK    1  A    between atoms: C_1  and  N_2
REMARK    2  A    between atoms: C_4  and  C_5
REMARK    3  A    between atoms: N_7  and  C_8
REMARK    4  A    between atoms: C_8  and  C_9
REMARK    5  A    between atoms: C_12  and  C_13
REMARK    6  A    between atoms: C_13  and  O_14
REMARK    7  A    between atoms: O_14  and  C_15
REMARK    8  A    between atoms: C_15  and  C_16
REMARK    9  A    between atoms: C_26  and  O_27
REMARK                            x       y       z     vdW  Elec       q    Type
REMARK                         _______ _______ _______ _____ _____    ______ ____
ROOT
ATOM      1  C   UNL     1      48.195   6.672  13.791  0.00  0.00    +0.000 C 
ENDROOT
BRANCH   1   2
ATOM      2  C   UNL     1      46.897   6.300  13.126  0.00  0.00    +0.000 A 
ATOM      3  C   UNL     1      46.077   5.303  13.670  0.00  0.00    +0.000 A 
ATOM      4  C   UNL     1      44.872   4.959  13.052  0.00  0.00    +0.000 A 
ATOM      5  C   UNL     1      44.469   5.596  11.870  0.00  0.00    +0.000 A 
ATOM      6  C   UNL     1      45.298   6.582  11.318  0.00  0.00    +0.000 A 
ATOM      7  C   UNL     1      46.502   6.927  11.937  0.00  0.00    +0.000 A 
BRANCH   5   8
ATOM      8  C   UNL     1      43.178   5.215  11.193  0.00  0.00    +0.000 C 
BRANCH   8   9
ATOM      9  O   UNL     1      43.464   4.577   9.952  0.00  0.00    +0.000 OA
BRANCH   9  10
ATOM     10  C   UNL     1      44.050   3.291  10.155  0.00  0.00    +0.000 C 
BRANCH  10  11
ATOM     11  C   UNL     1      45.080   3.002   9.091  0.00  0.00    +0.000 A 
ATOM     12  C   UNL     1      45.508   1.693   8.823  0.00  0.00    +0.000 A 
ATOM     13  C   UNL     1      46.442   1.441   7.816  0.00  0.00    +0.000 A 
ATOM     14  C   UNL     1      46.946   2.497   7.060  0.00  0.00    +0.000 A 
ATOM     15 CL   UNL     1      48.103   2.191   5.824  0.00  0.00    +0.000 Cl
ATOM     16  C   UNL     1      46.517   3.801   7.297  0.00  0.00    +0.000 A 
ATOM     17  C   UNL     1      45.582   4.052   8.304  0.00  0.00    +0.000 A 
ENDBRANCH  10  11
ENDBRANCH   9  10
ENDBRANCH   8   9
ENDBRANCH   5   8
ENDBRANCH   1   2
BRANCH   1  20
ATOM     18  C   UNL     1      49.229   6.499  16.003  0.00  0.00    +0.000 C 
ATOM     19  O   UNL     1      50.363   6.534  15.534  0.00  0.00    +0.000 OA
ATOM     20  N   UNL     1      48.099   6.560  15.224  0.00  0.00    +0.000 N 
ATOM     21  H   UNL     1      47.183   6.524  15.644  0.00  0.00    +0.000 HD
BRANCH  18  25
ATOM     22  C   UNL     1      49.161   4.818  20.721  0.00  0.00    +0.000 C 
ATOM     23  N   UNL     1      48.978   5.651  19.556  0.00  0.00    +0.000 N 
ATOM     24  C   UNL     1      49.366   5.336  18.277  0.00  0.00    +0.000 A 
ATOM     25  C   UNL     1      49.015   6.390  17.441  0.00  0.00    +0.000 A 
ATOM     26  C   UNL     1      48.386   7.377  18.275  0.00  0.00    +0.000 A 
ATOM     27  C   UNL     1      47.806   8.641  18.114  0.00  0.00    +0.000 A 
ATOM     28  N   UNL     1      47.295   9.297  19.170  0.00  0.00    +0.000 NA
ATOM     29  C   UNL     1      47.363   8.695  20.369  0.00  0.00    +0.000 A 
ATOM     30  N   UNL     1      47.887   7.493  20.663  0.00  0.00    +0.000 NA
ATOM     31  C   UNL     1      48.382   6.883  19.572  0.00  0.00    +0.000 A 
BRANCH  27  32
ATOM     32  O   UNL     1      47.710   9.302  16.914  0.00  0.00    +0.000 OA
ATOM     33  H   UNL     1      47.081   8.808  16.350  0.00  0.00    +0.000 HD
ENDBRANCH  27  32
ENDBRANCH  18  25
ENDBRANCH   1  20
TORSDOF 8
ENDMDL
MODEL 3
REMARK VINA RESULT:    -7.433      1.813      2.102
REMARK INTER + INTRA:         -12.037
REMARK INTER:                 -10.553
REMARK INTRA:                  -1.484
REMARK UNBOUND:                -1.345
REMARK  Name = 
REMARK  9 active torsions:
REMARK  status: ('A' for Active; 'I' for Inactive)
REMARK    1  A    between atoms: C_1  and  N_2
REMARK    2  A    between atoms: C_4  and  C_5
REMARK    3  A    between atoms: N_7  and  C_8
REMARK    4  A    between atoms: C_8  and  C_9
REMARK    5  A    between atoms: C_12  and  C_13
REMARK    6  A    between atoms: C_13  and  O_14
REMARK    7  A    between atoms: O_14  and  C_15
REMARK    8  A    between atoms: C_15  and  C_16
REMARK    9  A    between atoms: C_26  and  O_27
REMARK                            x       y       z     vdW  Elec       q    Type
REMARK                         _______ _______ _______ _____ _____    ______ ____
ROOT
ATOM      1  C   UNL     1      48.435   7.602  12.681  0.00  0.00    +0.000 C 
ENDROOT
BRANCH   1   2
ATOM      2  C   UNL     1      47.083   6.944  12.732  0.00  0.00    +0.000 A 
ATOM      3  C   UNL     1      46.938   5.651  13.253  0.00  0.00    +0.000 A 
ATOM      4  C   UNL     1      45.681   5.042  13.300  0.00  0.00    +0.000 A 
ATOM      5  C   UNL     1      44.547   5.706  12.814  0.00  0.00    +0.000 A 
ATOM      6  C   UNL     1      44.697   6.993  12.277  0.00  0.00    +0.000 A 
ATOM      7  C   UNL     1      45.952   7.603  12.232  0.00  0.00    +0.000 A 
BRANCH   5   8
ATOM      8  C   UNL     1      43.194   5.044  12.848  0.00  0.00    +0.000 C 
BRANCH   8   9
ATOM      9  O   UNL     1      42.872   4.556  11.549  0.00  0.00    +0.000 OA
BRANCH   9  10
ATOM     10  C   UNL     1      43.426   3.259  11.334  0.00  0.00    +0.000 C 
BRANCH  10  11
ATOM     11  C   UNL     1      44.285   3.247  10.091  0.00  0.00    +0.000 A 
ATOM     12  C   UNL     1      44.783   4.434   9.535  0.00  0.00    +0.000 A 
ATOM     13  C   UNL     1      45.598   4.402   8.401  0.00  0.00    +0.000 A 
ATOM     14  C   UNL     1      45.931   3.179   7.823  0.00  0.00    +0.000 A 
ATOM     15 CL   UNL     1      46.929   3.137   6.423  0.00  0.00    +0.000 Cl
ATOM     16  C   UNL     1      45.464   1.989   8.375  0.00  0.00    +0.000 A 
ATOM     17  C   UNL     1      44.650   2.022   9.509  0.00  0.00    +0.000 A 
ENDBRANCH  10  11
ENDBRANCH   9  10
ENDBRANCH   8   9
ENDBRANCH   5   8
ENDBRANCH   1   2
BRANCH   1  20
ATOM     18  C   UNL     1      49.736   7.710  14.752  0.00  0.00    +0.000 C 
ATOM     19  O   UNL     1      49.353   8.851  14.996  0.00  0.00    +0.000 OA
ATOM     20  N   UNL     1      49.339   7.014  13.637  0.00  0.00    +0.000 N 
ATOM     21  H   UNL     1      49.678   6.079  13.467  0.00  0.00    +0.000 HD
BRANCH  18  25
ATOM     22  C   UNL     1      53.870   6.157  17.117  0.00  0.00    +0.000 C 
ATOM     23  N   UNL     1      52.491   6.313  16.719  0.00  0.00    +0.000 N 
ATOM     24  C   UNL     1      52.031   7.154  15.735  0.00  0.00    +0.000 A 
ATOM     25  C   UNL     1      50.650   7.017  15.653  0.00  0.00    +0.000 A 
ATOM     26  C   UNL     1      50.279   6.044  16.642  0.00  0.00    +0.000 A 
ATOM     27  C   UNL     1      49.102   5.437  17.097  0.00  0.00    +0.000 A 
ATOM     28  N   UNL     1      49.142   4.527  18.087  0.00  0.00    +0.000 NA
ATOM     29  C   UNL     1      50.342   4.229  18.610  0.00  0.00    +0.000 A 
ATOM     30  N   UNL     1      51.542   4.730  18.269  0.00  0.00    +0.000 NA
ATOM     31  C   UNL     1      51.443   5.633  17.278  0.00  0.00    +0.000 A 
BRANCH  27  32
ATOM     32  O   UNL     1      47.851   5.704  16.599  0.00  0.00    +0.000 OA
ATOM     33  H   UNL     1      47.901   5.656  15.624  0.00  0.00    +0.000 HD
ENDBRANCH  27  32
ENDBRANCH  18  25
ENDBRANCH   1  20
TORSDOF 8
ENDMDL
MODEL 4
REMARK VINA RESULT:    -7.098      4.456     10.046
REMARK INTER + INTRA:         -11.556
REMARK INTER:                  -9.822
REMARK INTRA:                  -1.734
REMARK UNBOUND:                -1.345
REMARK  Name = 
REMARK  9 active torsions:
REMARK  status: ('A' for Active; 'I' for Inactive)
REMARK    1  A    between atoms: C_1  and  N_2
REMARK    2  A    between atoms: C_4  and  C_5
REMARK    3  A    between atoms: N_7  and  C_8
REMARK    4  A    between atoms: C_8  and  C_9
REMARK    5  A    between atoms: C_12  and  C_13
REMARK    6  A    between atoms: C_13  and  O_14
REMARK    7  A    between atoms: O_14  and  C_15
REMARK    8  A    between atoms: C_15  and  C_16
REMARK    9  A    between atoms: C_26  and  O_27
REMARK                            x       y       z     vdW  Elec       q    Type
REMARK                         _______ _______ _______ _____ _____    ______ ____
ROOT
ATOM      1  C   UNL     1      47.512   3.382  16.698  0.00  0.00    +0.000 C 
ENDROOT
BRANCH   1   2
ATOM      2  C   UNL     1      48.924   3.778  17.036  0.00  0.00    +0.000 A 
ATOM      3  C   UNL     1      49.870   2.809  17.393  0.00  0.00    +0.000 A 
ATOM      4  C   UNL     1      51.181   3.180  17.707  0.00  0.00    +0.000 A 
ATOM      5  C   UNL     1      51.567   4.526  17.685  0.00  0.00    +0.000 A 
ATOM      6  C   UNL     1      50.614   5.496  17.344  0.00  0.00    +0.000 A 
ATOM      7  C   UNL     1      49.304   5.126  17.028  0.00  0.00    +0.000 A 
BRANCH   5   8
ATOM      8  C   UNL     1      52.975   4.929  18.040  0.00  0.00    +0.000 C 
BRANCH   8   9
ATOM      9  O   UNL     1      53.220   4.638  19.412  0.00  0.00    +0.000 OA
BRANCH   9  10
ATOM     10  C   UNL     1      53.112   5.812  20.216  0.00  0.00    +0.000 C 
BRANCH  10  11
ATOM     11  C   UNL     1      51.687   6.017  20.669  0.00  0.00    +0.000 A 
ATOM     12  C   UNL     1      51.043   7.254  20.519  0.00  0.00    +0.000 A 
ATOM     13  C   UNL     1      49.714   7.419  20.918  0.00  0.00    +0.000 A 
ATOM     14  C   UNL     1      49.017   6.342  21.460  0.00  0.00    +0.000 A 
ATOM     15 CL   UNL     1      47.383   6.544  21.959  0.00  0.00    +0.000 Cl
ATOM     16  C   UNL     1      49.633   5.101  21.597  0.00  0.00    +0.000 A 
ATOM     17  C   UNL     1      50.961   4.937  21.196  0.00  0.00    +0.000 A 
ENDBRANCH  10  11
ENDBRANCH   9  10
ENDBRANCH   8   9
ENDBRANCH   5   8
ENDBRANCH   1   2
BRANCH   1  20
ATOM     18  C   UNL     1      46.839   4.115  14.461  0.00  0.00    +0.000 C 
ATOM     19  O   UNL     1      47.298   3.106  13.934  0.00  0.00    +0.000 OA
ATOM     20  N   UNL     1      46.897   4.340  15.814  0.00  0.00    +0.000 N 
ATOM     21  H   UNL     1      46.513   5.184  16.212  0.00  0.00    +0.000 HD
BRANCH  18  25
ATOM     22  C   UNL     1      45.659   8.508  12.362  0.00  0.00    +0.000 C 
ATOM     23  N   UNL     1      45.654   7.108  12.716  0.00  0.00    +0.000 N 
ATOM     24  C   UNL     1      46.522   6.499  13.588  0.00  0.00    +0.000 A 
ATOM     25  C   UNL     1      46.192   5.150  13.663  0.00  0.00    +0.000 A 
ATOM     26  C   UNL     1      45.069   4.958  12.787  0.00  0.00    +0.000 A 
ATOM     27  C   UNL     1      44.247   3.898  12.387  0.00  0.00    +0.000 A 
ATOM     28  N   UNL     1      43.248   4.102  11.511  0.00  0.00    +0.000 NA
ATOM     29  C   UNL     1      43.074   5.350  11.046  0.00  0.00    +0.000 A 
ATOM     30  N   UNL     1      43.783   6.452  11.345  0.00  0.00    +0.000 NA
ATOM     31  C   UNL     1      44.767   6.189  12.223  0.00  0.00    +0.000 A 
BRANCH  27  32
ATOM     32  O   UNL     1      44.380   2.604  12.829  0.00  0.00    +0.000 OA
ATOM     33  H   UNL     1      43.485   2.261  13.021  0.00  0.00    +0.000 HD
ENDBRANCH  27  32
ENDBRANCH  18  25
ENDBRANCH   1  20
TORSDOF 8
ENDMDL
MODEL 5
REMARK VINA RESULT:    -7.037      2.250      3.787
REMARK INTER + INTRA:         -11.467
REMARK INTER:                 -10.494
REMARK INTRA:                  -0.974
REMARK UNBOUND:                -1.345
REMARK  Name = 
REMARK  9 active torsions:
REMARK  status: ('A' for Active; 'I' for Inactive)
REMARK    1  A    between atoms: C_1  and  N_2
REMARK    2  A    between atoms: C_4  and  C_5
REMARK    3  A    between atoms: N_7  and  C_8
REMARK    4  A    between atoms: C_8  and  C_9
REMARK    5  A    between atoms: C_12  and  C_13
REMARK    6  A    between atoms: C_13  and  O_14
REMARK    7  A    between atoms: O_14  and  C_15
REMARK    8  A    between atoms: C_15  and  C_16
REMARK    9  A    between atoms: C_26  and  O_27
REMARK                            x       y       z     vdW  Elec       q    Type
REMARK                         _______ _______ _______ _____ _____    ______ ____
ROOT
ATOM      1  C   UNL     1      44.223   5.250  12.484  0.00  0.00    +0.000 C 
ENDROOT
BRANCH   1   2
ATOM      2  C   UNL     1      44.559   4.713  11.119  0.00  0.00    +0.000 A 
ATOM      3  C   UNL     1      44.035   3.488  10.685  0.00  0.00    +0.000 A 
ATOM      4  C   UNL     1      44.348   2.991   9.417  0.00  0.00    +0.000 A 
ATOM      5  C   UNL     1      45.202   3.701   8.563  0.00  0.00    +0.000 A 
ATOM      6  C   UNL     1      45.740   4.918   9.005  0.00  0.00    +0.000 A 
ATOM      7  C   UNL     1      45.426   5.416  10.272  0.00  0.00    +0.000 A 
BRANCH   5   8
ATOM      8  C   UNL     1      45.555   3.158   7.202  0.00  0.00    +0.000 C 
BRANCH   8   9
ATOM      9  O   UNL     1      46.958   2.923   7.134  0.00  0.00    +0.000 OA
BRANCH   9  10
ATOM     10  C   UNL     1      47.433   3.020   5.792  0.00  0.00    +0.000 C 
BRANCH  10  11
ATOM     11  C   UNL     1      47.060   1.786   5.006  0.00  0.00    +0.000 A 
ATOM     12  C   UNL     1      46.415   1.878   3.764  0.00  0.00    +0.000 A 
ATOM     13  C   UNL     1      46.102   0.727   3.037  0.00  0.00    +0.000 A 
ATOM     14  C   UNL     1      46.445  -0.525   3.543  0.00  0.00    +0.000 A 
ATOM     15 CL   UNL     1      46.054  -1.945   2.654  0.00  0.00    +0.000 Cl
ATOM     16  C   UNL     1      47.106  -0.634   4.764  0.00  0.00    +0.000 A 
ATOM     17  C   UNL     1      47.419   0.518   5.490  0.00  0.00    +0.000 A 
ENDBRANCH  10  11
ENDBRANCH   9  10
ENDBRANCH   8   9
ENDBRANCH   5   8
ENDBRANCH   1   2
BRANCH   1  20
ATOM     18  C   UNL     1      46.235   4.925  13.841  0.00  0.00    +0.000 C 
ATOM     19  O   UNL     1      46.038   3.717  13.937  0.00  0.00    +0.000 OA
ATOM     20  N   UNL     1      45.396   5.762  13.147  0.00  0.00    +0.000 N 
ATOM     21  H   UNL     1      45.586   6.751  13.093  0.00  0.00    +0.000 HD
BRANCH  18  25
ATOM     22  C   UNL     1      50.235   7.809  14.720  0.00  0.00    +0.000 C 
ATOM     23  N   UNL     1      49.182   6.833  14.878  0.00  0.00    +0.000 N 
ATOM     24  C   UNL     1      48.217   6.539  13.948  0.00  0.00    +0.000 A 
ATOM     25  C   UNL     1      47.392   5.550  14.471  0.00  0.00    +0.000 A 
ATOM     26  C   UNL     1      47.901   5.248  15.781  0.00  0.00    +0.000 A 
ATOM     27  C   UNL     1      47.580   4.384  16.835  0.00  0.00    +0.000 A 
ATOM     28  N   UNL     1      48.317   4.378  17.960  0.00  0.00    +0.000 NA
ATOM     29  C   UNL     1      49.359   5.221  18.026  0.00  0.00    +0.000 A 
ATOM     30  N   UNL     1      49.778   6.096  17.094  0.00  0.00    +0.000 NA
ATOM     31  C   UNL     1      49.006   6.060  15.994  0.00  0.00    +0.000 A 
BRANCH  27  32
ATOM     32  O   UNL     1      46.527   3.502  16.821  0.00  0.00    +0.000 OA
ATOM     33  H   UNL     1      46.806   2.697  17.301  0.00  0.00    +0.000 HD
ENDBRANCH  27  32
ENDBRANCH  18  25
ENDBRANCH   1  20
TORSDOF 8
ENDMDL
MODEL 6
REMARK VINA RESULT:    -7.014      3.756      9.270
REMARK INTER + INTRA:         -11.435
REMARK INTER:                  -9.531
REMARK INTRA:                  -1.905
REMARK UNBOUND:                -1.345
REMARK  Name = 
REMARK  9 active torsions:
REMARK  status: ('A' for Active; 'I' for Inactive)
REMARK    1  A    between atoms: C_1  and  N_2
REMARK    2  A    between atoms: C_4  and  C_5
REMARK    3  A    between atoms: N_7  and  C_8
REMARK    4  A    between atoms: C_8  and  C_9
REMARK    5  A    between atoms: C_12  and  C_13
REMARK    6  A    between atoms: C_13  and  O_14
REMARK    7  A    between atoms: O_14  and  C_15
REMARK    8  A    between atoms: C_15  and  C_16
REMARK    9  A    between atoms: C_26  and  O_27
REMARK                            x       y       z     vdW  Elec       q    Type
REMARK                         _______ _______ _______ _____ _____    ______ ____
ROOT
ATOM      1  C   UNL     1      47.559   3.613  16.598  0.00  0.00    +0.000 C 
ENDROOT
BRANCH   1   2
ATOM      2  C   UNL     1      47.891   4.318  17.885  0.00  0.00    +0.000 A 
ATOM      3  C   UNL     1      47.000   5.247  18.440  0.00  0.00    +0.000 A 
ATOM      4  C   UNL     1      47.311   5.901  19.635  0.00  0.00    +0.000 A 
ATOM      5  C   UNL     1      48.522   5.650  20.292  0.00  0.00    +0.000 A 
ATOM      6  C   UNL     1      49.419   4.733  19.727  0.00  0.00    +0.000 A 
ATOM      7  C   UNL     1      49.109   4.078  18.533  0.00  0.00    +0.000 A 
BRANCH   5   8
ATOM      8  C   UNL     1      48.866   6.367  21.572  0.00  0.00    +0.000 C 
BRANCH   8   9
ATOM      9  O   UNL     1      48.662   7.766  21.402  0.00  0.00    +0.000 OA
BRANCH   9  10
ATOM     10  C   UNL     1      49.759   8.368  20.714  0.00  0.00    +0.000 C 
BRANCH  10  11
ATOM     11  C   UNL     1      49.409   8.610  19.266  0.00  0.00    +0.000 A 
ATOM     12  C   UNL     1      50.175   8.062  18.226  0.00  0.00    +0.000 A 
ATOM     13  C   UNL     1      49.821   8.274  16.892  0.00  0.00    +0.000 A 
ATOM     14  C   UNL     1      48.689   9.027  16.588  0.00  0.00    +0.000 A 
ATOM     15 CL   UNL     1      48.255   9.296  14.946  0.00  0.00    +0.000 Cl
ATOM     16  C   UNL     1      47.904   9.560  17.607  0.00  0.00    +0.000 A 
ATOM     17  C   UNL     1      48.258   9.347  18.941  0.00  0.00    +0.000 A 
ENDBRANCH  10  11
ENDBRANCH   9  10
ENDBRANCH   8   9
ENDBRANCH   5   8
ENDBRANCH   1   2
BRANCH   1  20
ATOM     18  C   UNL     1      46.844   4.196  14.330  0.00  0.00    +0.000 C 
ATOM     19  O   UNL     1      47.328   3.171  13.857  0.00  0.00    +0.000 OA
ATOM     20  N   UNL     1      46.908   4.501  15.667  0.00  0.00    +0.000 N 
ATOM     21  H   UNL     1      46.503   5.355  16.020  0.00  0.00    +0.000 HD
BRANCH  18  25
ATOM     22  C   UNL     1      45.488   8.433  12.028  0.00  0.00    +0.000 C 
ATOM     23  N   UNL     1      45.543   7.051  12.443  0.00  0.00    +0.000 N 
ATOM     24  C   UNL     1      46.428   6.522  13.350  0.00  0.00    +0.000 A 
ATOM     25  C   UNL     1      46.160   5.164  13.480  0.00  0.00    +0.000 A 
ATOM     26  C   UNL     1      45.059   4.881  12.602  0.00  0.00    +0.000 A 
ATOM     27  C   UNL     1      44.292   3.767  12.240  0.00  0.00    +0.000 A 
ATOM     28  N   UNL     1      43.295   3.886  11.345  0.00  0.00    +0.000 NA
ATOM     29  C   UNL     1      43.069   5.103  10.824  0.00  0.00    +0.000 A 
ATOM     30  N   UNL     1      43.722   6.249  11.083  0.00  0.00    +0.000 NA
ATOM     31  C   UNL     1      44.706   6.071  11.981  0.00  0.00    +0.000 A 
BRANCH  27  32
ATOM     32  O   UNL     1      44.479   2.502  12.740  0.00  0.00    +0.000 OA
ATOM     33  H   UNL     1      44.935   1.974  12.054  0.00  0.00    +0.000 HD
ENDBRANCH  27  32
ENDBRANCH  18  25
ENDBRANCH   1  20
TORSDOF 8
ENDMDL
MODEL 7
REMARK VINA RESULT:    -6.972      3.466      5.718
REMARK INTER + INTRA:         -11.374
REMARK INTER:                 -10.238
REMARK INTRA:                  -1.135
REMARK UNBOUND:                -1.345
REMARK  Name = 
REMARK  9 active torsions:
REMARK  status: ('A' for Active; 'I' for Inactive)
REMARK    1  A    between atoms: C_1  and  N_2
REMARK    2  A    between atoms: C_4  and  C_5
REMARK    3  A    between atoms: N_7  and  C_8
REMARK    4  A    between atoms: C_8  and  C_9
REMARK    5  A    between atoms: C_12  and  C_13
REMARK    6  A    between atoms: C_13  and  O_14
REMARK    7  A    between atoms: O_14  and  C_15
REMARK    8  A    between atoms: C_15  and  C_16
REMARK    9  A    between atoms: C_26  and  O_27
REMARK                            x       y       z     vdW  Elec       q    Type
REMARK                         _______ _______ _______ _____ _____    ______ ____
ROOT
ATOM      1  C   UNL     1      48.072   6.596  13.609  0.00  0.00    +0.000 C 
ENDROOT
BRANCH   1   2
ATOM      2  C   UNL     1      46.848   5.934  13.037  0.00  0.00    +0.000 A 
ATOM      3  C   UNL     1      46.128   4.994  13.786  0.00  0.00    +0.000 A 
ATOM      4  C   UNL     1      44.992   4.382  13.252  0.00  0.00    +0.000 A 
ATOM      5  C   UNL     1      44.559   4.685  11.954  0.00  0.00    +0.000 A 
ATOM      6  C   UNL     1      45.290   5.613  11.200  0.00  0.00    +0.000 A 
ATOM      7  C   UNL     1      46.426   6.228  11.733  0.00  0.00    +0.000 A 
BRANCH   5   8
ATOM      8  C   UNL     1      43.344   4.013  11.371  0.00  0.00    +0.000 C 
BRANCH   8   9
ATOM      9  O   UNL     1      43.609   3.642  10.021  0.00  0.00    +0.000 OA
BRANCH   9  10
ATOM     10  C   UNL     1      44.364   2.433   9.956  0.00  0.00    +0.000 C 
BRANCH  10  11
ATOM     11  C   UNL     1      45.269   2.435   8.748  0.00  0.00    +0.000 A 
ATOM     12  C   UNL     1      45.477   3.598   7.992  0.00  0.00    +0.000 A 
ATOM     13  C   UNL     1      46.339   3.589   6.893  0.00  0.00    +0.000 A 
ATOM     14  C   UNL     1      47.009   2.417   6.550  0.00  0.00    +0.000 A 
ATOM     15 CL   UNL     1      48.066   2.400   5.192  0.00  0.00    +0.000 Cl
ATOM     16  C   UNL     1      46.831   1.258   7.301  0.00  0.00    +0.000 A 
ATOM     17  C   UNL     1      45.969   1.269   8.401  0.00  0.00    +0.000 A 
ENDBRANCH  10  11
ENDBRANCH   9  10
ENDBRANCH   8   9
ENDBRANCH   5   8
ENDBRANCH   1   2
BRANCH   1  20
ATOM     18  C   UNL     1      49.045   8.252  12.092  0.00  0.00    +0.000 C 
ATOM     19  O   UNL     1      49.721   7.404  11.515  0.00  0.00    +0.000 OA
ATOM     20  N   UNL     1      48.205   7.950  13.135  0.00  0.00    +0.000 N 
ATOM     21  H   UNL     1      47.668   8.674  13.588  0.00  0.00    +0.000 HD
BRANCH  18  25
ATOM     22  C   UNL     1      50.671  12.742  10.578  0.00  0.00    +0.000 C 
ATOM     23  N   UNL     1      49.812  11.667  11.016  0.00  0.00    +0.000 N 
ATOM     24  C   UNL     1      50.216  10.387  11.307  0.00  0.00    +0.000 A 
ATOM     25  C   UNL     1      49.100   9.654  11.693  0.00  0.00    +0.000 A 
ATOM     26  C   UNL     1      47.980  10.552  11.624  0.00  0.00    +0.000 A 
ATOM     27  C   UNL     1      46.602  10.498  11.866  0.00  0.00    +0.000 A 
ATOM     28  N   UNL     1      45.835  11.588  11.687  0.00  0.00    +0.000 NA
ATOM     29  C   UNL     1      46.440  12.714  11.274  0.00  0.00    +0.000 A 
ATOM     30  N   UNL     1      47.744  12.904  11.009  0.00  0.00    +0.000 NA
ATOM     31  C   UNL     1      48.462  11.784  11.204  0.00  0.00    +0.000 A 
BRANCH  27  32
ATOM     32  O   UNL     1      45.933   9.376  12.288  0.00  0.00    +0.000 OA
ATOM     33  H   UNL     1      45.952   9.367  13.266  0.00  0.00    +0.000 HD
ENDBRANCH  27  32
ENDBRANCH  18  25
ENDBRANCH   1  20
TORSDOF 8
ENDMDL
MODEL 8
REMARK VINA RESULT:    -6.816      5.067      9.556
REMARK INTER + INTRA:         -11.150
REMARK INTER:                 -10.025
REMARK INTRA:                  -1.125
REMARK UNBOUND:                -1.345
REMARK  Name = 
REMARK  9 active torsions:
REMARK  status: ('A' for Active; 'I' for Inactive)
REMARK    1  A    between atoms: C_1  and  N_2
REMARK    2  A    between atoms: C_4  and  C_5
REMARK    3  A    between atoms: N_7  and  C_8
REMARK    4  A    between atoms: C_8  and  C_9
REMARK    5  A    between atoms: C_12  and  C_13
REMARK    6  A    between atoms: C_13  and  O_14
REMARK    7  A    between atoms: O_14  and  C_15
REMARK    8  A    between atoms: C_15  and  C_16
REMARK    9  A    between atoms: C_26  and  O_27
REMARK                            x       y       z     vdW  Elec       q    Type
REMARK                         _______ _______ _______ _____ _____    ______ ____
ROOT
ATOM      1  C   UNL     1      47.399   3.387  16.897  0.00  0.00    +0.000 C 
ENDROOT
BRANCH   1   2
ATOM      2  C   UNL     1      48.860   3.424  17.253  0.00  0.00    +0.000 A 
ATOM      3  C   UNL     1      49.667   2.293  17.073  0.00  0.00    +0.000 A 
ATOM      4  C   UNL     1      51.024   2.330  17.404  0.00  0.00    +0.000 A 
ATOM      5  C   UNL     1      51.599   3.492  17.936  0.00  0.00    +0.000 A 
ATOM      6  C   UNL     1      50.786   4.617  18.132  0.00  0.00    +0.000 A 
ATOM      7  C   UNL     1      49.430   4.582  17.799  0.00  0.00    +0.000 A 
BRANCH   5   8
ATOM      8  C   UNL     1      53.058   3.528  18.310  0.00  0.00    +0.000 C 
BRANCH   8   9
ATOM      9  O   UNL     1      53.353   2.433  19.172  0.00  0.00    +0.000 OA
BRANCH   9  10
ATOM     10  C   UNL     1      54.702   1.996  19.007  0.00  0.00    +0.000 C 
BRANCH  10  11
ATOM     11  C   UNL     1      54.747   0.675  18.276  0.00  0.00    +0.000 A 
ATOM     12  C   UNL     1      54.728   0.614  16.875  0.00  0.00    +0.000 A 
ATOM     13  C   UNL     1      54.798  -0.615  16.215  0.00  0.00    +0.000 A 
ATOM     14  C   UNL     1      54.901  -1.792  16.954  0.00  0.00    +0.000 A 
ATOM     15 CL   UNL     1      54.979  -3.307  16.143  0.00  0.00    +0.000 Cl
ATOM     16  C   UNL     1      54.943  -1.749  18.345  0.00  0.00    +0.000 A 
ATOM     17  C   UNL     1      54.874  -0.519  19.004  0.00  0.00    +0.000 A 
ENDBRANCH  10  11
ENDBRANCH   9  10
ENDBRANCH   8   9
ENDBRANCH   5   8
ENDBRANCH   1   2
BRANCH   1  20
ATOM     18  C   UNL     1      46.998   4.206  14.625  0.00  0.00    +0.000 C 
ATOM     19  O   UNL     1      47.228   3.106  14.131  0.00  0.00    +0.000 OA
ATOM     20  N   UNL     1      47.059   4.442  15.976  0.00  0.00    +0.000 N 
ATOM     21  H   UNL     1      46.868   5.361  16.346  0.00  0.00    +0.000 HD
BRANCH  18  25
ATOM     22  C   UNL     1      47.062   8.629  12.273  0.00  0.00    +0.000 C 
ATOM     23  N   UNL     1      46.657   7.320  12.729  0.00  0.00    +0.000 N 
ATOM     24  C   UNL     1      47.359   6.521  13.597  0.00  0.00    +0.000 A 
ATOM     25  C   UNL     1      46.642   5.345  13.787  0.00  0.00    +0.000 A 
ATOM     26  C   UNL     1      45.455   5.460  12.985  0.00  0.00    +0.000 A 
ATOM     27  C   UNL     1      44.325   4.683  12.704  0.00  0.00    +0.000 A 
ATOM     28  N   UNL     1      43.376   5.137  11.867  0.00  0.00    +0.000 NA
ATOM     29  C   UNL     1      43.556   6.351  11.322  0.00  0.00    +0.000 A 
ATOM     30  N   UNL     1      44.585   7.197  11.504  0.00  0.00    +0.000 NA
ATOM     31  C   UNL     1      45.502   6.692  12.348  0.00  0.00    +0.000 A 
BRANCH  27  32
ATOM     32  O   UNL     1      44.090   3.438  13.233  0.00  0.00    +0.000 OA
ATOM     33  H   UNL     1      44.007   2.808  12.489  0.00  0.00    +0.000 HD
ENDBRANCH  27  32
ENDBRANCH  18  25
ENDBRANCH   1  20
TORSDOF 8
ENDMDL
MODEL 9
REMARK VINA RESULT:    -6.816      2.600      3.791
REMARK INTER + INTRA:         -11.150
REMARK INTER:                 -10.018
REMARK INTRA:                  -1.131
REMARK UNBOUND:                -1.345
REMARK  Name = 
REMARK  9 active torsions:
REMARK  status: ('A' for Active; 'I' for Inactive)
REMARK    1  A    between atoms: C_1  and  N_2
REMARK    2  A    between atoms: C_4  and  C_5
REMARK    3  A    between atoms: N_7  and  C_8
REMARK    4  A    between atoms: C_8  and  C_9
REMARK    5  A    between atoms: C_12  and  C_13
REMARK    6  A    between atoms: C_13  and  O_14
REMARK    7  A    between atoms: O_14  and  C_15
REMARK    8  A    between atoms: C_15  and  C_16
REMARK    9  A    between atoms: C_26  and  O_27
REMARK                            x       y       z     vdW  Elec       q    Type
REMARK                         _______ _______ _______ _____ _____    ______ ____
ROOT
ATOM      1  C   UNL     1      48.535   5.221  16.256  0.00  0.00    +0.000 C 
ENDROOT
BRANCH   1   2
ATOM      2  C   UNL     1      47.667   5.373  15.036  0.00  0.00    +0.000 A 
ATOM      3  C   UNL     1      46.653   4.446  14.762  0.00  0.00    +0.000 A 
ATOM      4  C   UNL     1      45.848   4.589  13.629  0.00  0.00    +0.000 A 
ATOM      5  C   UNL     1      46.048   5.654  12.740  0.00  0.00    +0.000 A 
ATOM      6  C   UNL     1      47.074   6.571  13.007  0.00  0.00    +0.000 A 
ATOM      7  C   UNL     1      47.878   6.430  14.141  0.00  0.00    +0.000 A 
BRANCH   5   8
ATOM      8  C   UNL     1      45.192   5.800  11.509  0.00  0.00    +0.000 C 
BRANCH   8   9
ATOM      9  O   UNL     1      44.505   4.578  11.261  0.00  0.00    +0.000 OA
BRANCH   9  10
ATOM     10  C   UNL     1      43.996   4.532   9.929  0.00  0.00    +0.000 C 
BRANCH  10  11
ATOM     11  C   UNL     1      44.919   3.740   9.034  0.00  0.00    +0.000 A 
ATOM     12  C   UNL     1      45.718   4.368   8.067  0.00  0.00    +0.000 A 
ATOM     13  C   UNL     1      46.587   3.622   7.268  0.00  0.00    +0.000 A 
ATOM     14  C   UNL     1      46.671   2.242   7.438  0.00  0.00    +0.000 A 
ATOM     15 CL   UNL     1      47.735   1.320   6.449  0.00  0.00    +0.000 Cl
ATOM     16  C   UNL     1      45.902   1.604   8.408  0.00  0.00    +0.000 A 
ATOM     17  C   UNL     1      45.034   2.351   9.208  0.00  0.00    +0.000 A 
ENDBRANCH  10  11
ENDBRANCH   9  10
ENDBRANCH   8   9
ENDBRANCH   5   8
ENDBRANCH   1   2
BRANCH   1  20
ATOM     18  C   UNL     1      48.705   7.220  17.659  0.00  0.00    +0.000 C 
ATOM     19  O   UNL     1      49.696   7.624  17.057  0.00  0.00    +0.000 OA
ATOM     20  N   UNL     1      48.065   6.048  17.339  0.00  0.00    +0.000 N 
ATOM     21  H   UNL     1      47.256   5.746  17.859  0.00  0.00    +0.000 HD
BRANCH  18  25
ATOM     22  C   UNL     1      46.910   8.514  22.153  0.00  0.00    +0.000 C 
ATOM     23  N   UNL     1      47.337   8.572  20.775  0.00  0.00    +0.000 N 
ATOM     24  C   UNL     1      47.854   7.525  20.053  0.00  0.00    +0.000 A 
ATOM     25  C   UNL     1      48.142   7.979  18.770  0.00  0.00    +0.000 A 
ATOM     26  C   UNL     1      47.776   9.367  18.739  0.00  0.00    +0.000 A 
ATOM     27  C   UNL     1      47.787  10.414  17.809  0.00  0.00    +0.000 A 
ATOM     28  N   UNL     1      47.346  11.637  18.152  0.00  0.00    +0.000 NA
ATOM     29  C   UNL     1      46.897  11.807  19.406  0.00  0.00    +0.000 A 
ATOM     30  N   UNL     1      46.828  10.897  20.393  0.00  0.00    +0.000 NA
ATOM     31  C   UNL     1      47.283   9.695  19.995  0.00  0.00    +0.000 A 
BRANCH  27  32
ATOM     32  O   UNL     1      48.234  10.296  16.516  0.00  0.00    +0.000 OA
ATOM     33  H   UNL     1      49.177  10.041  16.548  0.00  0.00    +0.000 HD
ENDBRANCH  27  32
ENDBRANCH  18  25
ENDBRANCH   1  20
TORSDOF 8
ENDMDL
