MODEL 1
REMARK VINA RESULT:    -8.334      0.000      0.000
REMARK INTER + INTRA:         -12.201
REMARK INTER:                 -11.501
REMARK INTRA:                  -0.700
REMARK UNBOUND:                -0.700
REMARK  Name = 
REMARK  7 active torsions:
REMARK  status: ('A' for Active; 'I' for Inactive)
REMARK    1  A    between atoms: C_2  and  C_4
REMARK    2  A    between atoms: N_8  and  C_9
REMARK    3  A    between atoms: C_9  and  C_10
REMARK    4  A    between atoms: C_10  and  C_11
REMARK    5  A    between atoms: C_15  and  C_16
REMARK    6  A    between atoms: C_17  and  C_18
REMARK    7  A    between atoms: C_18  and  O_19
REMARK                            x       y       z     vdW  Elec       q    Type
REMARK                         _______ _______ _______ _____ _____    ______ ____
ROOT
ATOM      1  C   UNL     1      46.626   2.558   7.672  0.00  0.00    +0.000 A 
ATOM      2  C   UNL     1      45.707   1.949   8.516  0.00  0.00    +0.000 A 
ATOM      3  C   UNL     1      44.775   2.738   9.190  0.00  0.00    +0.000 A 
ATOM      4  C   UNL     1      44.785   4.124   9.029  0.00  0.00    +0.000 A 
ATOM      5  N   UNL     1      43.827   4.946   9.610  0.00  0.00    +0.000 N 
ATOM      6  N   UNL     1      45.690   4.727   8.235  0.00  0.00    +0.000 NA
ATOM      7  C   UNL     1      46.596   3.942   7.580  0.00  0.00    +0.000 A 
ATOM      8  H   UNL     1      44.119   5.907   9.476  0.00  0.00    +0.000 HD
ENDROOT
BRANCH   1  10
ATOM      9  N   UNL     1      48.564   2.497   6.214  0.00  0.00    +0.000 N 
ATOM     10  C   UNL     1      47.621   1.783   6.902  0.00  0.00    +0.000 C 
ATOM     11  O   UNL     1      47.620   0.560   6.901  0.00  0.00    +0.000 OA
ATOM     12  H   UNL     1      49.293   1.965   5.754  0.00  0.00    +0.000 HD
ATOM     13  H   UNL     1      48.741   3.478   6.385  0.00  0.00    +0.000 HD
ENDBRANCH   1  10
BRANCH   5  14
ATOM     14  C   UNL     1      43.299   4.588  10.926  0.00  0.00    +0.000 C 
BRANCH  14  15
ATOM     15  C   UNL     1      43.538   5.704  11.948  0.00  0.00    +0.000 C 
BRANCH  15  16
ATOM     16  C   UNL     1      44.986   5.769  12.392  0.00  0.00    +0.000 A 
ATOM     17  C   UNL     1      45.830   6.773  11.901  0.00  0.00    +0.000 A 
ATOM     18  C   UNL     1      47.161   6.837  12.309  0.00  0.00    +0.000 A 
ATOM     19  C   UNL     1      47.661   5.912  13.226  0.00  0.00    +0.000 A 
ATOM     20  C   UNL     1      46.840   4.901  13.742  0.00  0.00    +0.000 A 
ATOM     21  C   UNL     1      45.506   4.831  13.304  0.00  0.00    +0.000 A 
BRANCH  20  22
ATOM     22  C   UNL     1      47.299   4.004  14.819  0.00  0.00    +0.000 C 
ATOM     23  C   UNL     1      47.226   4.276  16.133  0.00  0.00    +0.000 C 
BRANCH  23  24
ATOM     24  C   UNL     1      47.591   3.312  17.214  0.00  0.00    +0.000 C 
BRANCH  24  25
ATOM     25  O   UNL     1      46.402   2.755  17.747  0.00  0.00    +0.000 OA
ATOM     26  H   UNL     1      46.651   2.304  18.571  0.00  0.00    +0.000 HD
ENDBRANCH  24  25
ENDBRANCH  23  24
ENDBRANCH  20  22
ENDBRANCH  15  16
ENDBRANCH  14  15
ENDBRANCH   5  14
TORSDOF 7
ENDMDL
MODEL 2
REMARK VINA RESULT:    -7.445      2.614      3.768
REMARK INTER + INTRA:         -10.974
REMARK INTER:                 -10.279
REMARK INTRA:                  -0.696
REMARK UNBOUND:                -0.700
REMARK  Name = 
REMARK  7 active torsions:
REMARK  status: ('A' for Active; 'I' for Inactive)
REMARK    1  A    between atoms: C_2  and  C_4
REMARK    2  A    between atoms: N_8  and  C_9
REMARK    3  A    between atoms: C_9  and  C_10
REMARK    4  A    between atoms: C_10  and  C_11
REMARK    5  A    between atoms: C_15  and  C_16
REMARK    6  A    between atoms: C_17  and  C_18
REMARK    7  A    between atoms: C_18  and  O_19
REMARK                            x       y       z     vdW  Elec       q    Type
REMARK                         _______ _______ _______ _____ _____    ______ ____
ROOT
ATOM      1  C   UNL     1      46.549   2.457   7.575  0.00  0.00    +0.000 A 
ATOM      2  C   UNL     1      45.840   1.589   8.395  0.00  0.00    +0.000 A 
ATOM      3  C   UNL     1      44.880   2.104   9.264  0.00  0.00    +0.000 A 
ATOM      4  C   UNL     1      44.652   3.479   9.320  0.00  0.00    +0.000 A 
ATOM      5  N   UNL     1      43.650   4.036  10.105  0.00  0.00    +0.000 N 
ATOM      6  N   UNL     1      45.354   4.334   8.550  0.00  0.00    +0.000 NA
ATOM      7  C   UNL     1      46.291   3.815   7.702  0.00  0.00    +0.000 A 
ATOM      8  H   UNL     1      43.769   5.042  10.096  0.00  0.00    +0.000 HD
ENDROOT
BRANCH   1  10
ATOM      9  N   UNL     1      48.667   2.764   6.433  0.00  0.00    +0.000 N 
ATOM     10  C   UNL     1      47.559   1.980   6.608  0.00  0.00    +0.000 C 
ATOM     11  O   UNL     1      47.426   0.921   6.012  0.00  0.00    +0.000 OA
ATOM     12  H   UNL     1      49.395   2.396   5.832  0.00  0.00    +0.000 HD
ATOM     13  H   UNL     1      48.922   3.504   7.073  0.00  0.00    +0.000 HD
ENDBRANCH   1  10
BRANCH   5  14
ATOM     14  C   UNL     1      43.339   3.414  11.392  0.00  0.00    +0.000 C 
BRANCH  14  15
ATOM     15  C   UNL     1      43.211   4.461  12.503  0.00  0.00    +0.000 C 
BRANCH  15  16
ATOM     16  C   UNL     1      44.512   5.200  12.743  0.00  0.00    +0.000 A 
ATOM     17  C   UNL     1      45.684   4.488  13.031  0.00  0.00    +0.000 A 
ATOM     18  C   UNL     1      46.884   5.163  13.249  0.00  0.00    +0.000 A 
ATOM     19  C   UNL     1      46.932   6.555  13.163  0.00  0.00    +0.000 A 
ATOM     20  C   UNL     1      45.780   7.295  12.867  0.00  0.00    +0.000 A 
ATOM     21  C   UNL     1      44.570   6.604  12.675  0.00  0.00    +0.000 A 
BRANCH  20  22
ATOM     22  C   UNL     1      45.833   8.748  12.626  0.00  0.00    +0.000 C 
ATOM     23  C   UNL     1      45.039   9.418  11.773  0.00  0.00    +0.000 C 
BRANCH  23  24
ATOM     24  C   UNL     1      45.029  10.904  11.623  0.00  0.00    +0.000 C 
BRANCH  24  25
ATOM     25  O   UNL     1      46.204  11.428  12.218  0.00  0.00    +0.000 OA
ATOM     26  H   UNL     1      46.748  11.783  11.494  0.00  0.00    +0.000 HD
ENDBRANCH  24  25
ENDBRANCH  23  24
ENDBRANCH  20  22
ENDBRANCH  15  16
ENDBRANCH  14  15
ENDBRANCH   5  14
TORSDOF 7
ENDMDL
MODEL 3
REMARK VINA RESULT:    -7.016      2.440      2.696
REMARK INTER + INTRA:         -10.382
REMARK INTER:                  -9.497
REMARK INTRA:                  -0.885
REMARK UNBOUND:                -0.700
REMARK  Name = 
REMARK  7 active torsions:
REMARK  status: ('A' for Active; 'I' for Inactive)
REMARK    1  A    between atoms: C_2  and  C_4
REMARK    2  A    between atoms: N_8  and  C_9
REMARK    3  A    between atoms: C_9  and  C_10
REMARK    4  A    between atoms: C_10  and  C_11
REMARK    5  A    between atoms: C_15  and  C_16
REMARK    6  A    between atoms: C_17  and  C_18
REMARK    7  A    between atoms: C_18  and  O_19
REMARK                            x       y       z     vdW  Elec       q    Type
REMARK                         _______ _______ _______ _____ _____    ______ ____
ROOT
ATOM      1  C   UNL     1      46.452   2.728   7.360  0.00  0.00    +0.000 A 
ATOM      2  C   UNL     1      46.013   3.927   7.906  0.00  0.00    +0.000 A 
ATOM      3  C   UNL     1      45.291   3.907   9.100  0.00  0.00    +0.000 A 
ATOM      4  C   UNL     1      44.999   2.693   9.721  0.00  0.00    +0.000 A 
ATOM      5  N   UNL     1      44.358   2.624  10.952  0.00  0.00    +0.000 N 
ATOM      6  N   UNL     1      45.396   1.523   9.185  0.00  0.00    +0.000 NA
ATOM      7  C   UNL     1      46.103   1.557   8.017  0.00  0.00    +0.000 A 
ATOM      8  H   UNL     1      44.128   1.653  11.129  0.00  0.00    +0.000 HD
ENDROOT
BRANCH   1  10
ATOM      9  N   UNL     1      48.609   2.621   6.253  0.00  0.00    +0.000 N 
ATOM     10  C   UNL     1      47.248   2.675   6.116  0.00  0.00    +0.000 C 
ATOM     11  O   UNL     1      46.716   2.651   5.016  0.00  0.00    +0.000 OA
ATOM     12  H   UNL     1      49.148   2.503   5.405  0.00  0.00    +0.000 HD
ATOM     13  H   UNL     1      49.063   2.397   7.129  0.00  0.00    +0.000 HD
ENDBRANCH   1  10
BRANCH   5  14
ATOM     14  C   UNL     1      43.333   3.618  11.267  0.00  0.00    +0.000 C 
BRANCH  14  15
ATOM     15  C   UNL     1      43.638   4.338  12.585  0.00  0.00    +0.000 C 
BRANCH  15  16
ATOM     16  C   UNL     1      44.607   5.488  12.395  0.00  0.00    +0.000 A 
ATOM     17  C   UNL     1      44.202   6.645  11.717  0.00  0.00    +0.000 A 
ATOM     18  C   UNL     1      45.089   7.707  11.542  0.00  0.00    +0.000 A 
ATOM     19  C   UNL     1      46.383   7.633  12.059  0.00  0.00    +0.000 A 
ATOM     20  C   UNL     1      46.814   6.494  12.749  0.00  0.00    +0.000 A 
ATOM     21  C   UNL     1      45.919   5.420  12.897  0.00  0.00    +0.000 A 
BRANCH  20  22
ATOM     22  C   UNL     1      48.122   6.449  13.431  0.00  0.00    +0.000 C 
ATOM     23  C   UNL     1      48.415   7.079  14.580  0.00  0.00    +0.000 C 
BRANCH  23  24
ATOM     24  C   UNL     1      49.707   6.933  15.314  0.00  0.00    +0.000 C 
BRANCH  24  25
ATOM     25  O   UNL     1      50.698   7.695  14.645  0.00  0.00    +0.000 OA
ATOM     26  H   UNL     1      50.500   8.629  14.826  0.00  0.00    +0.000 HD
ENDBRANCH  24  25
ENDBRANCH  23  24
ENDBRANCH  20  22
ENDBRANCH  15  16
ENDBRANCH  14  15
ENDBRANCH   5  14
TORSDOF 7
ENDMDL
MODEL 4
REMARK VINA RESULT:    -6.843      3.263      8.117
REMARK INTER + INTRA:         -10.143
REMARK INTER:                  -9.675
REMARK INTRA:                  -0.467
REMARK UNBOUND:                -0.700
REMARK  Name = 
REMARK  7 active torsions:
REMARK  status: ('A' for Active; 'I' for Inactive)
REMARK    1  A    between atoms: C_2  and  C_4
REMARK    2  A    between atoms: N_8  and  C_9
REMARK    3  A    between atoms: C_9  and  C_10
REMARK    4  A    between atoms: C_10  and  C_11
REMARK    5  A    between atoms: C_15  and  C_16
REMARK    6  A    between atoms: C_17  and  C_18
REMARK    7  A    between atoms: C_18  and  O_19
REMARK                            x       y       z     vdW  Elec       q    Type
REMARK                         _______ _______ _______ _____ _____    ______ ____
ROOT
ATOM      1  C   UNL     1      48.431   4.706  16.730  0.00  0.00    +0.000 A 
ATOM      2  C   UNL     1      47.372   4.045  16.121  0.00  0.00    +0.000 A 
ATOM      3  C   UNL     1      46.880   4.522  14.906  0.00  0.00    +0.000 A 
ATOM      4  C   UNL     1      47.435   5.662  14.325  0.00  0.00    +0.000 A 
ATOM      5  N   UNL     1      47.038   6.128  13.078  0.00  0.00    +0.000 N 
ATOM      6  N   UNL     1      48.443   6.328  14.921  0.00  0.00    +0.000 NA
ATOM      7  C   UNL     1      48.916   5.849  16.110  0.00  0.00    +0.000 A 
ATOM      8  H   UNL     1      47.469   7.034  12.933  0.00  0.00    +0.000 HD
ENDROOT
BRANCH   1  10
ATOM      9  N   UNL     1      48.226   4.290  19.111  0.00  0.00    +0.000 N 
ATOM     10  C   UNL     1      49.024   4.241  18.000  0.00  0.00    +0.000 C 
ATOM     11  O   UNL     1      50.166   3.807  18.054  0.00  0.00    +0.000 OA
ATOM     12  H   UNL     1      48.606   3.897  19.963  0.00  0.00    +0.000 HD
ATOM     13  H   UNL     1      47.223   4.410  19.061  0.00  0.00    +0.000 HD
ENDBRANCH   1  10
BRANCH   5  14
ATOM     14  C   UNL     1      45.636   5.987  12.689  0.00  0.00    +0.000 C 
BRANCH  14  15
ATOM     15  C   UNL     1      45.444   6.233  11.188  0.00  0.00    +0.000 C 
BRANCH  15  16
ATOM     16  C   UNL     1      45.172   4.949  10.431  0.00  0.00    +0.000 A 
ATOM     17  C   UNL     1      44.370   3.951  10.999  0.00  0.00    +0.000 A 
ATOM     18  C   UNL     1      44.116   2.770  10.305  0.00  0.00    +0.000 A 
ATOM     19  C   UNL     1      44.644   2.578   9.027  0.00  0.00    +0.000 A 
ATOM     20  C   UNL     1      45.442   3.560   8.428  0.00  0.00    +0.000 A 
ATOM     21  C   UNL     1      45.713   4.737   9.149  0.00  0.00    +0.000 A 
BRANCH  20  22
ATOM     22  C   UNL     1      45.889   3.448   7.027  0.00  0.00    +0.000 C 
ATOM     23  C   UNL     1      46.940   2.722   6.609  0.00  0.00    +0.000 C 
BRANCH  23  24
ATOM     24  C   UNL     1      47.312   2.530   5.175  0.00  0.00    +0.000 C 
BRANCH  24  25
ATOM     25  O   UNL     1      48.441   1.675   5.110  0.00  0.00    +0.000 OA
ATOM     26  H   UNL     1      48.142   0.852   4.688  0.00  0.00    +0.000 HD
ENDBRANCH  24  25
ENDBRANCH  23  24
ENDBRANCH  20  22
ENDBRANCH  15  16
ENDBRANCH  14  15
ENDBRANCH   5  14
TORSDOF 7
ENDMDL
MODEL 5
REMARK VINA RESULT:    -6.835      2.920      7.191
REMARK INTER + INTRA:         -10.132
REMARK INTER:                  -9.863
REMARK INTRA:                  -0.268
REMARK UNBOUND:                -0.700
REMARK  Name = 
REMARK  7 active torsions:
REMARK  status: ('A' for Active; 'I' for Inactive)
REMARK    1  A    between atoms: C_2  and  C_4
REMARK    2  A    between atoms: N_8  and  C_9
REMARK    3  A    between atoms: C_9  and  C_10
REMARK    4  A    between atoms: C_10  and  C_11
REMARK    5  A    between atoms: C_15  and  C_16
REMARK    6  A    between atoms: C_17  and  C_18
REMARK    7  A    between atoms: C_18  and  O_19
REMARK                            x       y       z     vdW  Elec       q    Type
REMARK                         _______ _______ _______ _____ _____    ______ ____
ROOT
ATOM      1  C   UNL     1      47.404   6.244  13.792  0.00  0.00    +0.000 A 
ATOM      2  C   UNL     1      46.314   6.717  13.074  0.00  0.00    +0.000 A 
ATOM      3  C   UNL     1      45.208   5.887  12.889  0.00  0.00    +0.000 A 
ATOM      4  C   UNL     1      45.213   4.591  13.405  0.00  0.00    +0.000 A 
ATOM      5  N   UNL     1      44.106   3.754  13.322  0.00  0.00    +0.000 N 
ATOM      6  N   UNL     1      46.277   4.112  14.079  0.00  0.00    +0.000 NA
ATOM      7  C   UNL     1      47.352   4.936  14.252  0.00  0.00    +0.000 A 
ATOM      8  H   UNL     1      44.390   2.832  13.630  0.00  0.00    +0.000 HD
ENDROOT
BRANCH   1  10
ATOM      9  N   UNL     1      49.597   7.037  13.121  0.00  0.00    +0.000 N 
ATOM     10  C   UNL     1      48.596   7.078  14.053  0.00  0.00    +0.000 C 
ATOM     11  O   UNL     1      48.675   7.791  15.043  0.00  0.00    +0.000 OA
ATOM     12  H   UNL     1      50.376   7.668  13.260  0.00  0.00    +0.000 HD
ATOM     13  H   UNL     1      49.466   6.657  12.192  0.00  0.00    +0.000 HD
ENDBRANCH   1  10
BRANCH   5  14
ATOM     14  C   UNL     1      43.257   3.829  12.134  0.00  0.00    +0.000 C 
BRANCH  14  15
ATOM     15  C   UNL     1      43.690   2.813  11.072  0.00  0.00    +0.000 C 
BRANCH  15  16
ATOM     16  C   UNL     1      44.571   3.440  10.010  0.00  0.00    +0.000 A 
ATOM     17  C   UNL     1      44.894   4.801  10.076  0.00  0.00    +0.000 A 
ATOM     18  C   UNL     1      45.707   5.381   9.104  0.00  0.00    +0.000 A 
ATOM     19  C   UNL     1      46.221   4.606   8.063  0.00  0.00    +0.000 A 
ATOM     20  C   UNL     1      45.923   3.240   7.974  0.00  0.00    +0.000 A 
ATOM     21  C   UNL     1      45.081   2.672   8.947  0.00  0.00    +0.000 A 
BRANCH  20  22
ATOM     22  C   UNL     1      46.568   2.370   6.974  0.00  0.00    +0.000 C 
ATOM     23  C   UNL     1      46.657   2.637   5.661  0.00  0.00    +0.000 C 
BRANCH  23  24
ATOM     24  C   UNL     1      47.410   1.799   4.680  0.00  0.00    +0.000 C 
BRANCH  24  25
ATOM     25  O   UNL     1      48.484   1.166   5.355  0.00  0.00    +0.000 OA
ATOM     26  H   UNL     1      48.099   0.434   5.866  0.00  0.00    +0.000 HD
ENDBRANCH  24  25
ENDBRANCH  23  24
ENDBRANCH  20  22
ENDBRANCH  15  16
ENDBRANCH  14  15
ENDBRANCH   5  14
TORSDOF 7
ENDMDL
MODEL 6
REMARK VINA RESULT:    -6.402      3.283      5.578
REMARK INTER + INTRA:          -9.534
REMARK INTER:                  -8.800
REMARK INTRA:                  -0.734
REMARK UNBOUND:                -0.700
REMARK  Name = 
REMARK  7 active torsions:
REMARK  status: ('A' for Active; 'I' for Inactive)
REMARK    1  A    between atoms: C_2  and  C_4
REMARK    2  A    between atoms: N_8  and  C_9
REMARK    3  A    between atoms: C_9  and  C_10
REMARK    4  A    between atoms: C_10  and  C_11
REMARK    5  A    between atoms: C_15  and  C_16
REMARK    6  A    between atoms: C_17  and  C_18
REMARK    7  A    between atoms: C_18  and  O_19
REMARK                            x       y       z     vdW  Elec       q    Type
REMARK                         _______ _______ _______ _____ _____    ______ ____
ROOT
ATOM      1  C   UNL     1      44.849   4.865  11.479  0.00  0.00    +0.000 A 
ATOM      2  C   UNL     1      45.579   4.243  12.483  0.00  0.00    +0.000 A 
ATOM      3  C   UNL     1      46.416   5.012  13.292  0.00  0.00    +0.000 A 
ATOM      4  C   UNL     1      46.529   6.385  13.076  0.00  0.00    +0.000 A 
ATOM      5  N   UNL     1      47.281   7.209  13.905  0.00  0.00    +0.000 N 
ATOM      6  N   UNL     1      45.847   6.994  12.086  0.00  0.00    +0.000 NA
ATOM      7  C   UNL     1      45.031   6.229  11.302  0.00  0.00    +0.000 A 
ATOM      8  H   UNL     1      47.331   8.124  13.473  0.00  0.00    +0.000 HD
ENDROOT
BRANCH   1  10
ATOM      9  N   UNL     1      43.912   4.457   9.278  0.00  0.00    +0.000 N 
ATOM     10  C   UNL     1      43.920   4.119  10.604  0.00  0.00    +0.000 C 
ATOM     11  O   UNL     1      43.210   3.223  11.039  0.00  0.00    +0.000 OA
ATOM     12  H   UNL     1      43.336   3.892   8.667  0.00  0.00    +0.000 HD
ATOM     13  H   UNL     1      44.642   5.010   8.849  0.00  0.00    +0.000 HD
ENDBRANCH   1  10
BRANCH   5  14
ATOM     14  C   UNL     1      48.513   6.680  14.488  0.00  0.00    +0.000 C 
BRANCH  14  15
ATOM     15  C   UNL     1      48.466   6.713  16.020  0.00  0.00    +0.000 C 
BRANCH  15  16
ATOM     16  C   UNL     1      48.494   5.321  16.620  0.00  0.00    +0.000 A 
ATOM     17  C   UNL     1      47.302   4.610  16.806  0.00  0.00    +0.000 A 
ATOM     18  C   UNL     1      47.323   3.329  17.355  0.00  0.00    +0.000 A 
ATOM     19  C   UNL     1      48.536   2.735  17.707  0.00  0.00    +0.000 A 
ATOM     20  C   UNL     1      49.745   3.417  17.526  0.00  0.00    +0.000 A 
ATOM     21  C   UNL     1      49.709   4.719  16.995  0.00  0.00    +0.000 A 
BRANCH  20  22
ATOM     22  C   UNL     1      51.047   2.761  17.751  0.00  0.00    +0.000 C 
ATOM     23  C   UNL     1      51.368   1.523  17.340  0.00  0.00    +0.000 C 
BRANCH  23  24
ATOM     24  C   UNL     1      52.725   0.916  17.479  0.00  0.00    +0.000 C 
BRANCH  24  25
ATOM     25  O   UNL     1      52.626  -0.237  18.297  0.00  0.00    +0.000 OA
ATOM     26  H   UNL     1      53.105  -0.038  19.119  0.00  0.00    +0.000 HD
ENDBRANCH  24  25
ENDBRANCH  23  24
ENDBRANCH  20  22
ENDBRANCH  15  16
ENDBRANCH  14  15
ENDBRANCH   5  14
TORSDOF 7
ENDMDL
MODEL 7
REMARK VINA RESULT:    -6.385      4.305      6.853
REMARK INTER + INTRA:          -9.511
REMARK INTER:                  -8.166
REMARK INTRA:                  -1.345
REMARK UNBOUND:                -0.700
REMARK  Name = 
REMARK  7 active torsions:
REMARK  status: ('A' for Active; 'I' for Inactive)
REMARK    1  A    between atoms: C_2  and  C_4
REMARK    2  A    between atoms: N_8  and  C_9
REMARK    3  A    between atoms: C_9  and  C_10
REMARK    4  A    between atoms: C_10  and  C_11
REMARK    5  A    between atoms: C_15  and  C_16
REMARK    6  A    between atoms: C_17  and  C_18
REMARK    7  A    between atoms: C_18  and  O_19
REMARK                            x       y       z     vdW  Elec       q    Type
REMARK                         _______ _______ _______ _____ _____    ______ ____
ROOT
ATOM      1  C   UNL     1      44.450   5.481  11.948  0.00  0.00    +0.000 A 
ATOM      2  C   UNL     1      45.234   6.133  11.006  0.00  0.00    +0.000 A 
ATOM      3  C   UNL     1      46.552   6.460  11.325  0.00  0.00    +0.000 A 
ATOM      4  C   UNL     1      47.063   6.151  12.585  0.00  0.00    +0.000 A 
ATOM      5  N   UNL     1      48.392   6.378  12.924  0.00  0.00    +0.000 N 
ATOM      6  N   UNL     1      46.302   5.545  13.517  0.00  0.00    +0.000 NA
ATOM      7  C   UNL     1      45.014   5.230  13.191  0.00  0.00    +0.000 A 
ATOM      8  H   UNL     1      48.492   6.214  13.919  0.00  0.00    +0.000 HD
ENDROOT
BRANCH   1  10
ATOM      9  N   UNL     1      42.097   6.047  11.775  0.00  0.00    +0.000 N 
ATOM     10  C   UNL     1      43.056   5.077  11.670  0.00  0.00    +0.000 C 
ATOM     11  O   UNL     1      42.775   3.936  11.334  0.00  0.00    +0.000 OA
ATOM     12  H   UNL     1      41.156   5.789  11.506  0.00  0.00    +0.000 HD
ATOM     13  H   UNL     1      42.317   7.034  11.810  0.00  0.00    +0.000 HD
ENDBRANCH   1  10
BRANCH   5  14
ATOM     14  C   UNL     1      49.067   7.553  12.372  0.00  0.00    +0.000 C 
BRANCH  14  15
ATOM     15  C   UNL     1      48.666   8.830  13.117  0.00  0.00    +0.000 C 
BRANCH  15  16
ATOM     16  C   UNL     1      48.109   9.884  12.180  0.00  0.00    +0.000 A 
ATOM     17  C   UNL     1      48.975  10.685  11.425  0.00  0.00    +0.000 A 
ATOM     18  C   UNL     1      48.467  11.653  10.560  0.00  0.00    +0.000 A 
ATOM     19  C   UNL     1      47.088  11.821  10.426  0.00  0.00    +0.000 A 
ATOM     20  C   UNL     1      46.196  11.030  11.160  0.00  0.00    +0.000 A 
ATOM     21  C   UNL     1      46.721  10.074  12.048  0.00  0.00    +0.000 A 
BRANCH  20  22
ATOM     22  C   UNL     1      44.741  11.085  10.929  0.00  0.00    +0.000 C 
ATOM     23  C   UNL     1      43.946  10.015  10.763  0.00  0.00    +0.000 C 
BRANCH  23  24
ATOM     24  C   UNL     1      42.458  10.082  10.642  0.00  0.00    +0.000 C 
BRANCH  24  25
ATOM     25  O   UNL     1      41.910   8.856  11.093  0.00  0.00    +0.000 OA
ATOM     26  H   UNL     1      42.584   8.174  10.934  0.00  0.00    +0.000 HD
ENDBRANCH  24  25
ENDBRANCH  23  24
ENDBRANCH  20  22
ENDBRANCH  15  16
ENDBRANCH  14  15
ENDBRANCH   5  14
TORSDOF 7
ENDMDL
MODEL 8
REMARK VINA RESULT:    -6.107      3.947      9.355
REMARK INTER + INTRA:          -9.128
REMARK INTER:                  -8.654
REMARK INTRA:                  -0.474
REMARK UNBOUND:                -0.700
REMARK  Name = 
REMARK  7 active torsions:
REMARK  status: ('A' for Active; 'I' for Inactive)
REMARK    1  A    between atoms: C_2  and  C_4
REMARK    2  A    between atoms: N_8  and  C_9
REMARK    3  A    between atoms: C_9  and  C_10
REMARK    4  A    between atoms: C_10  and  C_11
REMARK    5  A    between atoms: C_15  and  C_16
REMARK    6  A    between atoms: C_17  and  C_18
REMARK    7  A    between atoms: C_18  and  O_19
REMARK                            x       y       z     vdW  Elec       q    Type
REMARK                         _______ _______ _______ _____ _____    ______ ____
ROOT
ATOM      1  C   UNL     1      44.468   4.208   9.908  0.00  0.00    +0.000 A 
ATOM      2  C   UNL     1      44.353   3.076   9.112  0.00  0.00    +0.000 A 
ATOM      3  C   UNL     1      45.193   2.933   8.007  0.00  0.00    +0.000 A 
ATOM      4  C   UNL     1      46.121   3.928   7.701  0.00  0.00    +0.000 A 
ATOM      5  N   UNL     1      47.037   3.796   6.664  0.00  0.00    +0.000 N 
ATOM      6  N   UNL     1      46.221   5.043   8.450  0.00  0.00    +0.000 NA
ATOM      7  C   UNL     1      45.393   5.170   9.529  0.00  0.00    +0.000 A 
ATOM      8  H   UNL     1      47.500   4.688   6.542  0.00  0.00    +0.000 HD
ENDROOT
BRANCH   1  10
ATOM      9  N   UNL     1      43.099   5.660  11.289  0.00  0.00    +0.000 N 
ATOM     10  C   UNL     1      43.633   4.413  11.110  0.00  0.00    +0.000 C 
ATOM     11  O   UNL     1      43.407   3.503  11.896  0.00  0.00    +0.000 OA
ATOM     12  H   UNL     1      42.463   5.776  12.067  0.00  0.00    +0.000 HD
ATOM     13  H   UNL     1      43.063   6.351  10.551  0.00  0.00    +0.000 HD
ENDBRANCH   1  10
BRANCH   5  14
ATOM     14  C   UNL     1      46.628   3.087   5.452  0.00  0.00    +0.000 C 
BRANCH  14  15
ATOM     15  C   UNL     1      47.578   1.927   5.135  0.00  0.00    +0.000 C 
BRANCH  15  16
ATOM     16  C   UNL     1      46.934   0.895   4.230  0.00  0.00    +0.000 A 
ATOM     17  C   UNL     1      46.082   1.299   3.194  0.00  0.00    +0.000 A 
ATOM     18  C   UNL     1      45.491   0.353   2.358  0.00  0.00    +0.000 A 
ATOM     19  C   UNL     1      45.756  -1.005   2.535  0.00  0.00    +0.000 A 
ATOM     20  C   UNL     1      46.609  -1.441   3.557  0.00  0.00    +0.000 A 
ATOM     21  C   UNL     1      47.180  -0.479   4.409  0.00  0.00    +0.000 A 
BRANCH  20  22
ATOM     22  C   UNL     1      47.022  -2.851   3.674  0.00  0.00    +0.000 C 
ATOM     23  C   UNL     1      46.632  -3.691   4.648  0.00  0.00    +0.000 C 
BRANCH  23  24
ATOM     24  C   UNL     1      46.969  -5.145   4.690  0.00  0.00    +0.000 C 
BRANCH  24  25
ATOM     25  O   UNL     1      48.380  -5.285   4.671  0.00  0.00    +0.000 OA
ATOM     26  H   UNL     1      48.698  -4.789   3.898  0.00  0.00    +0.000 HD
ENDBRANCH  24  25
ENDBRANCH  23  24
ENDBRANCH  20  22
ENDBRANCH  15  16
ENDBRANCH  14  15
ENDBRANCH   5  14
TORSDOF 7
ENDMDL
MODEL 9
REMARK VINA RESULT:    -6.030      3.387      5.197
REMARK INTER + INTRA:          -9.021
REMARK INTER:                  -7.955
REMARK INTRA:                  -1.065
REMARK UNBOUND:                -0.700
REMARK  Name = 
REMARK  7 active torsions:
REMARK  status: ('A' for Active; 'I' for Inactive)
REMARK    1  A    between atoms: C_2  and  C_4
REMARK    2  A    between atoms: N_8  and  C_9
REMARK    3  A    between atoms: C_9  and  C_10
REMARK    4  A    between atoms: C_10  and  C_11
REMARK    5  A    between atoms: C_15  and  C_16
REMARK    6  A    between atoms: C_17  and  C_18
REMARK    7  A    between atoms: C_18  and  O_19
REMARK                            x       y       z     vdW  Elec       q    Type
REMARK                         _______ _______ _______ _____ _____    ______ ____
ROOT
ATOM      1  C   UNL     1      44.884   4.758  12.254  0.00  0.00    +0.000 A 
ATOM      2  C   UNL     1      45.834   4.827  13.264  0.00  0.00    +0.000 A 
ATOM      3  C   UNL     1      46.904   5.712  13.133  0.00  0.00    +0.000 A 
ATOM      4  C   UNL     1      47.024   6.500  11.989  0.00  0.00    +0.000 A 
ATOM      5  N   UNL     1      48.023   7.456  11.847  0.00  0.00    +0.000 N 
ATOM      6  N   UNL     1      46.124   6.420  10.990  0.00  0.00    +0.000 NA
ATOM      7  C   UNL     1      45.081   5.550  11.132  0.00  0.00    +0.000 A 
ATOM      8  H   UNL     1      47.997   7.794  10.892  0.00  0.00    +0.000 HD
ENDROOT
BRANCH   1  10
ATOM      9  N   UNL     1      42.572   4.279  11.695  0.00  0.00    +0.000 N 
ATOM     10  C   UNL     1      43.708   3.867  12.338  0.00  0.00    +0.000 C 
ATOM     11  O   UNL     1      43.754   2.799  12.930  0.00  0.00    +0.000 OA
ATOM     12  H   UNL     1      41.794   3.632  11.685  0.00  0.00    +0.000 HD
ATOM     13  H   UNL     1      42.569   5.020  11.007  0.00  0.00    +0.000 HD
ENDBRANCH   1  10
BRANCH   5  14
ATOM     14  C   UNL     1      49.339   7.187  12.423  0.00  0.00    +0.000 C 
BRANCH  14  15
ATOM     15  C   UNL     1      49.814   8.351  13.301  0.00  0.00    +0.000 C 
BRANCH  15  16
ATOM     16  C   UNL     1      49.341   8.213  14.734  0.00  0.00    +0.000 A 
ATOM     17  C   UNL     1      48.844   9.327  15.422  0.00  0.00    +0.000 A 
ATOM     18  C   UNL     1      48.405   9.204  16.739  0.00  0.00    +0.000 A 
ATOM     19  C   UNL     1      48.439   7.963  17.379  0.00  0.00    +0.000 A 
ATOM     20  C   UNL     1      48.923   6.829  16.715  0.00  0.00    +0.000 A 
ATOM     21  C   UNL     1      49.386   6.971  15.394  0.00  0.00    +0.000 A 
BRANCH  20  22
ATOM     22  C   UNL     1      48.834   5.484  17.312  0.00  0.00    +0.000 C 
ATOM     23  C   UNL     1      47.806   4.635  17.151  0.00  0.00    +0.000 C 
BRANCH  23  24
ATOM     24  C   UNL     1      47.781   3.235  17.671  0.00  0.00    +0.000 C 
BRANCH  24  25
ATOM     25  O   UNL     1      46.439   2.780  17.688  0.00  0.00    +0.000 OA
ATOM     26  H   UNL     1      46.096   2.892  16.785  0.00  0.00    +0.000 HD
ENDBRANCH  24  25
ENDBRANCH  23  24
ENDBRANCH  20  22
ENDBRANCH  15  16
ENDBRANCH  14  15
ENDBRANCH   5  14
TORSDOF 7
ENDMDL
