MODEL 1
REMARK VINA RESULT:    -6.781      0.000      0.000
REMARK INTER + INTRA:          -9.661
REMARK INTER:                  -8.764
REMARK INTRA:                  -0.898
REMARK UNBOUND:                -0.898
REMARK  Name = 
REMARK  5 active torsions:
REMARK  status: ('A' for Active; 'I' for Inactive)
REMARK    1  A    between atoms: C_2  and  C_3
REMARK    2  A    between atoms: C_7  and  O_8
REMARK    3  A    between atoms: O_8  and  C_9
REMARK    4  A    between atoms: C_9  and  C_10
REMARK    5  A    between atoms: C_15  and  N_16
REMARK                            x       y       z     vdW  Elec       q    Type
REMARK                         _______ _______ _______ _____ _____    ______ ____
ROOT
ATOM      1  C   UNL     1      44.928   5.177  11.691  0.00  0.00    +0.000 A 
ATOM      2  C   UNL     1      44.161   6.321  11.450  0.00  0.00    +0.000 A 
ATOM      3  C   UNL     1      44.697   7.584  11.687  0.00  0.00    +0.000 A 
ATOM      4  C   UNL     1      45.998   7.710  12.178  0.00  0.00    +0.000 A 
ATOM      5  F   UNL     1      46.463   8.954  12.381  0.00  0.00    +0.000 F 
ATOM      6  C   UNL     1      46.809   6.593  12.434  0.00  0.00    +0.000 A 
ATOM      7  C   UNL     1      46.251   5.330  12.153  0.00  0.00    +0.000 A 
ENDROOT
BRANCH   6   8
ATOM      8  N   UNL     1      48.076   6.669  13.000  0.00  0.00    +0.000 N 
ATOM      9  C   UNL     1      48.253   6.775  14.455  0.00  0.00    +0.000 C 
ATOM     10  C   UNL     1      48.873   8.127  14.866  0.00  0.00    +0.000 C 
ATOM     11  N   UNL     1      50.114   8.447  14.128  0.00  0.00    +0.000 NA
ATOM     12  C   UNL     1      49.804   8.440  12.682  0.00  0.00    +0.000 C 
ATOM     13  C   UNL     1      49.215   7.102  12.173  0.00  0.00    +0.000 C 
ATOM     14  H   UNL     1      50.786   7.702  14.310  0.00  0.00    +0.000 HD
ENDBRANCH   6   8
BRANCH   1  15
ATOM     15  C   UNL     1      44.343   3.792  11.504  0.00  0.00    +0.000 C 
BRANCH  15  16
ATOM     16  O   UNL     1      43.897   3.626  10.159  0.00  0.00    +0.000 OA
BRANCH  16  21
ATOM     17  C   UNL     1      46.186   1.739   8.050  0.00  0.00    +0.000 A 
ATOM     18  C   UNL     1      46.803   2.740   7.292  0.00  0.00    +0.000 A 
ATOM     19  C   UNL     1      46.455   4.075   7.492  0.00  0.00    +0.000 A 
ATOM     20  C   UNL     1      45.488   4.419   8.447  0.00  0.00    +0.000 A 
ATOM     21  C   UNL     1      44.859   3.426   9.203  0.00  0.00    +0.000 A 
ATOM     22  C   UNL     1      45.216   2.089   8.999  0.00  0.00    +0.000 A 
BRANCH  17  24
ATOM     23  N   UNL     1      46.836  -0.750   7.713  0.00  0.00    +0.000 NA
ATOM     24  C   UNL     1      46.549   0.366   7.858  0.00  0.00    +0.000 C 
ENDBRANCH  17  24
ENDBRANCH  16  21
ENDBRANCH  15  16
ENDBRANCH   1  15
TORSDOF 5
ENDMDL
MODEL 2
REMARK VINA RESULT:    -6.479      3.275      7.130
REMARK INTER + INTRA:          -9.271
REMARK INTER:                  -8.451
REMARK INTRA:                  -0.820
REMARK UNBOUND:                -0.898
REMARK  Name = 
REMARK  5 active torsions:
REMARK  status: ('A' for Active; 'I' for Inactive)
REMARK    1  A    between atoms: C_2  and  C_3
REMARK    2  A    between atoms: C_7  and  O_8
REMARK    3  A    between atoms: O_8  and  C_9
REMARK    4  A    between atoms: C_9  and  C_10
REMARK    5  A    between atoms: C_15  and  N_16
REMARK                            x       y       z     vdW  Elec       q    Type
REMARK                         _______ _______ _______ _____ _____    ______ ____
ROOT
ATOM      1  C   UNL     1      47.010   6.937  12.438  0.00  0.00    +0.000 A 
ATOM      2  C   UNL     1      46.670   8.281  12.250  0.00  0.00    +0.000 A 
ATOM      3  C   UNL     1      45.407   8.622  11.772  0.00  0.00    +0.000 A 
ATOM      4  C   UNL     1      44.482   7.622  11.469  0.00  0.00    +0.000 A 
ATOM      5  F   UNL     1      43.278   8.011  11.018  0.00  0.00    +0.000 F 
ATOM      6  C   UNL     1      44.774   6.259  11.641  0.00  0.00    +0.000 A 
ATOM      7  C   UNL     1      46.047   5.947  12.158  0.00  0.00    +0.000 A 
ENDROOT
BRANCH   6   8
ATOM      8  N   UNL     1      43.915   5.230  11.274  0.00  0.00    +0.000 N 
ATOM      9  C   UNL     1      43.123   4.507  12.280  0.00  0.00    +0.000 C 
ATOM     10  C   UNL     1      43.543   3.027  12.393  0.00  0.00    +0.000 C 
ATOM     11  N   UNL     1      43.565   2.326  11.091  0.00  0.00    +0.000 NA
ATOM     12  C   UNL     1      44.485   3.056  10.191  0.00  0.00    +0.000 C 
ATOM     13  C   UNL     1      44.112   4.544   9.986  0.00  0.00    +0.000 C 
ATOM     14  H   UNL     1      42.628   2.378  10.692  0.00  0.00    +0.000 HD
ENDBRANCH   6   8
BRANCH   1  15
ATOM     15  C   UNL     1      48.399   6.540  12.892  0.00  0.00    +0.000 C 
BRANCH  15  16
ATOM     16  O   UNL     1      48.790   7.325  14.018  0.00  0.00    +0.000 OA
BRANCH  16  21
ATOM     17  C   UNL     1      48.397   4.899  16.704  0.00  0.00    +0.000 A 
ATOM     18  C   UNL     1      49.543   5.110  17.479  0.00  0.00    +0.000 A 
ATOM     19  C   UNL     1      50.464   6.087  17.105  0.00  0.00    +0.000 A 
ATOM     20  C   UNL     1      50.249   6.857  15.953  0.00  0.00    +0.000 A 
ATOM     21  C   UNL     1      49.113   6.649  15.166  0.00  0.00    +0.000 A 
ATOM     22  C   UNL     1      48.192   5.669  15.550  0.00  0.00    +0.000 A 
BRANCH  17  24
ATOM     23  N   UNL     1      46.655   3.107  17.399  0.00  0.00    +0.000 NA
ATOM     24  C   UNL     1      47.440   3.905  17.090  0.00  0.00    +0.000 C 
ENDBRANCH  17  24
ENDBRANCH  16  21
ENDBRANCH  15  16
ENDBRANCH   1  15
TORSDOF 5
ENDMDL
MODEL 3
REMARK VINA RESULT:    -6.411      3.847      7.643
REMARK INTER + INTRA:          -9.183
REMARK INTER:                  -8.295
REMARK INTRA:                  -0.888
REMARK UNBOUND:                -0.898
REMARK  Name = 
REMARK  5 active torsions:
REMARK  status: ('A' for Active; 'I' for Inactive)
REMARK    1  A    between atoms: C_2  and  C_3
REMARK    2  A    between atoms: C_7  and  O_8
REMARK    3  A    between atoms: O_8  and  C_9
REMARK    4  A    between atoms: C_9  and  C_10
REMARK    5  A    between atoms: C_15  and  N_16
REMARK                            x       y       z     vdW  Elec       q    Type
REMARK                         _______ _______ _______ _____ _____    ______ ____
ROOT
ATOM      1  C   UNL     1      48.189   6.603  13.811  0.00  0.00    +0.000 A 
ATOM      2  C   UNL     1      48.424   7.356  12.656  0.00  0.00    +0.000 A 
ATOM      3  C   UNL     1      47.548   7.271  11.576  0.00  0.00    +0.000 A 
ATOM      4  C   UNL     1      46.439   6.426  11.642  0.00  0.00    +0.000 A 
ATOM      5  F   UNL     1      45.626   6.391  10.573  0.00  0.00    +0.000 F 
ATOM      6  C   UNL     1      46.158   5.652  12.779  0.00  0.00    +0.000 A 
ATOM      7  C   UNL     1      47.044   5.784  13.867  0.00  0.00    +0.000 A 
ENDROOT
BRANCH   6   8
ATOM      8  N   UNL     1      45.115   4.737  12.855  0.00  0.00    +0.000 N 
ATOM      9  C   UNL     1      45.249   3.383  12.297  0.00  0.00    +0.000 C 
ATOM     10  C   UNL     1      44.294   3.149  11.109  0.00  0.00    +0.000 C 
ATOM     11  N   UNL     1      42.888   3.489  11.415  0.00  0.00    +0.000 NA
ATOM     12  C   UNL     1      42.840   4.903  11.845  0.00  0.00    +0.000 C 
ATOM     13  C   UNL     1      43.739   5.220  13.064  0.00  0.00    +0.000 C 
ATOM     14  H   UNL     1      42.591   2.911  12.202  0.00  0.00    +0.000 HD
ENDBRANCH   6   8
BRANCH   1  15
ATOM     15  C   UNL     1      49.164   6.629  14.969  0.00  0.00    +0.000 C 
BRANCH  15  16
ATOM     16  O   UNL     1      48.474   6.912  16.186  0.00  0.00    +0.000 OA
BRANCH  16  21
ATOM     17  C   UNL     1      49.379   3.748  17.745  0.00  0.00    +0.000 A 
ATOM     18  C   UNL     1      48.868   3.886  19.040  0.00  0.00    +0.000 A 
ATOM     19  C   UNL     1      48.200   5.055  19.402  0.00  0.00    +0.000 A 
ATOM     20  C   UNL     1      48.040   6.094  18.474  0.00  0.00    +0.000 A 
ATOM     21  C   UNL     1      48.555   5.971  17.181  0.00  0.00    +0.000 A 
ATOM     22  C   UNL     1      49.221   4.795  16.824  0.00  0.00    +0.000 A 
BRANCH  17  24
ATOM     23  N   UNL     1      50.609   1.568  17.065  0.00  0.00    +0.000 NA
ATOM     24  C   UNL     1      50.055   2.544  17.363  0.00  0.00    +0.000 C 
ENDBRANCH  17  24
ENDBRANCH  16  21
ENDBRANCH  15  16
ENDBRANCH   1  15
TORSDOF 5
ENDMDL
MODEL 4
REMARK VINA RESULT:    -6.316      4.371      7.674
REMARK INTER + INTRA:          -9.060
REMARK INTER:                  -8.196
REMARK INTRA:                  -0.864
REMARK UNBOUND:                -0.898
REMARK  Name = 
REMARK  5 active torsions:
REMARK  status: ('A' for Active; 'I' for Inactive)
REMARK    1  A    between atoms: C_2  and  C_3
REMARK    2  A    between atoms: C_7  and  O_8
REMARK    3  A    between atoms: O_8  and  C_9
REMARK    4  A    between atoms: C_9  and  C_10
REMARK    5  A    between atoms: C_15  and  N_16
REMARK                            x       y       z     vdW  Elec       q    Type
REMARK                         _______ _______ _______ _____ _____    ______ ____
ROOT
ATOM      1  C   UNL     1      45.060   8.676  11.837  0.00  0.00    +0.000 A 
ATOM      2  C   UNL     1      46.222   8.456  12.585  0.00  0.00    +0.000 A 
ATOM      3  C   UNL     1      46.635   7.156  12.867  0.00  0.00    +0.000 A 
ATOM      4  C   UNL     1      45.885   6.070  12.413  0.00  0.00    +0.000 A 
ATOM      5  F   UNL     1      46.336   4.841  12.710  0.00  0.00    +0.000 F 
ATOM      6  C   UNL     1      44.713   6.238  11.657  0.00  0.00    +0.000 A 
ATOM      7  C   UNL     1      44.339   7.564  11.360  0.00  0.00    +0.000 A 
ENDROOT
BRANCH   6   8
ATOM      8  N   UNL     1      43.893   5.191  11.257  0.00  0.00    +0.000 N 
ATOM      9  C   UNL     1      43.078   4.450  12.231  0.00  0.00    +0.000 C 
ATOM     10  C   UNL     1      43.526   2.979  12.363  0.00  0.00    +0.000 C 
ATOM     11  N   UNL     1      43.616   2.279  11.063  0.00  0.00    +0.000 NA
ATOM     12  C   UNL     1      44.554   3.030  10.200  0.00  0.00    +0.000 C 
ATOM     13  C   UNL     1      44.156   4.509   9.979  0.00  0.00    +0.000 C 
ATOM     14  H   UNL     1      42.694   2.310  10.627  0.00  0.00    +0.000 HD
ENDBRANCH   6   8
BRANCH   1  15
ATOM     15  C   UNL     1      44.556  10.080  11.576  0.00  0.00    +0.000 C 
BRANCH  15  16
ATOM     16  O   UNL     1      44.140  10.207  10.217  0.00  0.00    +0.000 OA
BRANCH  16  21
ATOM     17  C   UNL     1      40.549  10.723  10.528  0.00  0.00    +0.000 A 
ATOM     18  C   UNL     1      40.326  11.835   9.709  0.00  0.00    +0.000 A 
ATOM     19  C   UNL     1      41.393  12.423   9.031  0.00  0.00    +0.000 A 
ATOM     20  C   UNL     1      42.689  11.906   9.168  0.00  0.00    +0.000 A 
ATOM     21  C   UNL     1      42.924  10.802   9.991  0.00  0.00    +0.000 A 
ATOM     22  C   UNL     1      41.849  10.216  10.665  0.00  0.00    +0.000 A 
BRANCH  17  24
ATOM     23  N   UNL     1      38.562   9.603  11.764  0.00  0.00    +0.000 NA
ATOM     24  C   UNL     1      39.454  10.106  11.217  0.00  0.00    +0.000 C 
ENDBRANCH  17  24
ENDBRANCH  16  21
ENDBRANCH  15  16
ENDBRANCH   1  15
TORSDOF 5
ENDMDL
MODEL 5
REMARK VINA RESULT:    -6.214      4.495      7.820
REMARK INTER + INTRA:          -8.928
REMARK INTER:                  -8.255
REMARK INTRA:                  -0.673
REMARK UNBOUND:                -0.898
REMARK  Name = 
REMARK  5 active torsions:
REMARK  status: ('A' for Active; 'I' for Inactive)
REMARK    1  A    between atoms: C_2  and  C_3
REMARK    2  A    between atoms: C_7  and  O_8
REMARK    3  A    between atoms: O_8  and  C_9
REMARK    4  A    between atoms: C_9  and  C_10
REMARK    5  A    between atoms: C_15  and  N_16
REMARK                            x       y       z     vdW  Elec       q    Type
REMARK                         _______ _______ _______ _____ _____    ______ ____
ROOT
ATOM      1  C   UNL     1      47.240   4.990  14.999  0.00  0.00    +0.000 A 
ATOM      2  C   UNL     1      48.171   5.981  14.673  0.00  0.00    +0.000 A 
ATOM      3  C   UNL     1      48.127   6.597  13.424  0.00  0.00    +0.000 A 
ATOM      4  C   UNL     1      47.160   6.218  12.492  0.00  0.00    +0.000 A 
ATOM      5  F   UNL     1      47.163   6.852  11.308  0.00  0.00    +0.000 F 
ATOM      6  C   UNL     1      46.202   5.230  12.772  0.00  0.00    +0.000 A 
ATOM      7  C   UNL     1      46.251   4.649  14.055  0.00  0.00    +0.000 A 
ENDROOT
BRANCH   6   8
ATOM      8  N   UNL     1      45.276   4.764  11.846  0.00  0.00    +0.000 N 
ATOM      9  C   UNL     1      44.199   5.632  11.347  0.00  0.00    +0.000 C 
ATOM     10  C   UNL     1      42.806   5.133  11.782  0.00  0.00    +0.000 C 
ATOM     11  N   UNL     1      42.570   3.709  11.460  0.00  0.00    +0.000 NA
ATOM     12  C   UNL     1      43.630   2.909  12.110  0.00  0.00    +0.000 C 
ATOM     13  C   UNL     1      45.065   3.314  11.697  0.00  0.00    +0.000 C 
ATOM     14  H   UNL     1      42.665   3.597  10.450  0.00  0.00    +0.000 HD
ENDBRANCH   6   8
BRANCH   1  15
ATOM     15  C   UNL     1      47.311   4.260  16.324  0.00  0.00    +0.000 C 
BRANCH  15  16
ATOM     16  O   UNL     1      48.296   3.230  16.265  0.00  0.00    +0.000 OA
BRANCH  16  21
ATOM     17  C   UNL     1      51.541   2.400  17.691  0.00  0.00    +0.000 A 
ATOM     18  C   UNL     1      51.883   3.570  18.379  0.00  0.00    +0.000 A 
ATOM     19  C   UNL     1      51.010   4.657  18.376  0.00  0.00    +0.000 A 
ATOM     20  C   UNL     1      49.794   4.585  17.684  0.00  0.00    +0.000 A 
ATOM     21  C   UNL     1      49.446   3.426  16.985  0.00  0.00    +0.000 A 
ATOM     22  C   UNL     1      50.325   2.338  16.995  0.00  0.00    +0.000 A 
BRANCH  17  24
ATOM     23  N   UNL     1      53.136   0.354  17.710  0.00  0.00    +0.000 NA
ATOM     24  C   UNL     1      52.428   1.275  17.701  0.00  0.00    +0.000 C 
ENDBRANCH  17  24
ENDBRANCH  16  21
ENDBRANCH  15  16
ENDBRANCH   1  15
TORSDOF 5
ENDMDL
MODEL 6
REMARK VINA RESULT:    -6.100      3.759      8.374
REMARK INTER + INTRA:          -8.781
REMARK INTER:                  -7.917
REMARK INTRA:                  -0.864
REMARK UNBOUND:                -0.898
REMARK  Name = 
REMARK  5 active torsions:
REMARK  status: ('A' for Active; 'I' for Inactive)
REMARK    1  A    between atoms: C_2  and  C_3
REMARK    2  A    between atoms: C_7  and  O_8
REMARK    3  A    between atoms: O_8  and  C_9
REMARK    4  A    between atoms: C_9  and  C_10
REMARK    5  A    between atoms: C_15  and  N_16
REMARK                            x       y       z     vdW  Elec       q    Type
REMARK                         _______ _______ _______ _____ _____    ______ ____
ROOT
ATOM      1  C   UNL     1      48.019   6.828  13.813  0.00  0.00    +0.000 A 
ATOM      2  C   UNL     1      48.383   7.415  12.596  0.00  0.00    +0.000 A 
ATOM      3  C   UNL     1      47.630   7.169  11.450  0.00  0.00    +0.000 A 
ATOM      4  C   UNL     1      46.518   6.328  11.511  0.00  0.00    +0.000 A 
ATOM      5  F   UNL     1      45.827   6.134  10.376  0.00  0.00    +0.000 F 
ATOM      6  C   UNL     1      46.111   5.717  12.709  0.00  0.00    +0.000 A 
ATOM      7  C   UNL     1      46.872   6.011  13.858  0.00  0.00    +0.000 A 
ENDROOT
BRANCH   6   8
ATOM      8  N   UNL     1      45.062   4.809  12.798  0.00  0.00    +0.000 N 
ATOM      9  C   UNL     1      45.210   3.429  12.313  0.00  0.00    +0.000 C 
ATOM     10  C   UNL     1      44.293   3.137  11.108  0.00  0.00    +0.000 C 
ATOM     11  N   UNL     1      42.878   3.495  11.352  0.00  0.00    +0.000 NA
ATOM     12  C   UNL     1      42.821   4.929  11.708  0.00  0.00    +0.000 C 
ATOM     13  C   UNL     1      43.683   5.305  12.938  0.00  0.00    +0.000 C 
ATOM     14  H   UNL     1      42.555   2.958  12.157  0.00  0.00    +0.000 HD
ENDBRANCH   6   8
BRANCH   1  15
ATOM     15  C   UNL     1      48.861   7.027  15.056  0.00  0.00    +0.000 C 
BRANCH  15  16
ATOM     16  O   UNL     1      49.260   5.763  15.586  0.00  0.00    +0.000 OA
BRANCH  16  21
ATOM     17  C   UNL     1      48.159   6.499  18.977  0.00  0.00    +0.000 A 
ATOM     18  C   UNL     1      48.188   5.242  19.590  0.00  0.00    +0.000 A 
ATOM     19  C   UNL     1      48.590   4.124  18.861  0.00  0.00    +0.000 A 
ATOM     20  C   UNL     1      48.963   4.253  17.516  0.00  0.00    +0.000 A 
ATOM     21  C   UNL     1      48.929   5.503  16.891  0.00  0.00    +0.000 A 
ATOM     22  C   UNL     1      48.528   6.620  17.630  0.00  0.00    +0.000 A 
BRANCH  17  24
ATOM     23  N   UNL     1      47.437   8.584  20.343  0.00  0.00    +0.000 NA
ATOM     24  C   UNL     1      47.760   7.655  19.725  0.00  0.00    +0.000 C 
ENDBRANCH  17  24
ENDBRANCH  16  21
ENDBRANCH  15  16
ENDBRANCH   1  15
TORSDOF 5
ENDMDL
MODEL 7
REMARK VINA RESULT:    -5.923      2.757      7.052
REMARK INTER + INTRA:          -8.552
REMARK INTER:                  -8.079
REMARK INTRA:                  -0.473
REMARK UNBOUND:                -0.898
REMARK  Name = 
REMARK  5 active torsions:
REMARK  status: ('A' for Active; 'I' for Inactive)
REMARK    1  A    between atoms: C_2  and  C_3
REMARK    2  A    between atoms: C_7  and  O_8
REMARK    3  A    between atoms: O_8  and  C_9
REMARK    4  A    between atoms: C_9  and  C_10
REMARK    5  A    between atoms: C_15  and  N_16
REMARK                            x       y       z     vdW  Elec       q    Type
REMARK                         _______ _______ _______ _____ _____    ______ ____
ROOT
ATOM      1  C   UNL     1      45.330   5.522  12.328  0.00  0.00    +0.000 A 
ATOM      2  C   UNL     1      44.436   5.030  13.284  0.00  0.00    +0.000 A 
ATOM      3  C   UNL     1      43.606   3.954  12.975  0.00  0.00    +0.000 A 
ATOM      4  C   UNL     1      43.657   3.373  11.707  0.00  0.00    +0.000 A 
ATOM      5  F   UNL     1      42.838   2.336  11.470  0.00  0.00    +0.000 F 
ATOM      6  C   UNL     1      44.539   3.830  10.714  0.00  0.00    +0.000 A 
ATOM      7  C   UNL     1      45.389   4.897  11.066  0.00  0.00    +0.000 A 
ENDROOT
BRANCH   6   8
ATOM      8  N   UNL     1      44.565   3.337   9.415  0.00  0.00    +0.000 N 
ATOM      9  C   UNL     1      44.714   1.898   9.152  0.00  0.00    +0.000 C 
ATOM     10  C   UNL     1      46.043   1.574   8.439  0.00  0.00    +0.000 C 
ATOM     11  N   UNL     1      46.267   2.389   7.225  0.00  0.00    +0.000 NA
ATOM     12  C   UNL     1      46.224   3.815   7.615  0.00  0.00    +0.000 C 
ATOM     13  C   UNL     1      44.904   4.239   8.302  0.00  0.00    +0.000 C 
ATOM     14  H   UNL     1      45.493   2.215   6.585  0.00  0.00    +0.000 HD
ENDBRANCH   6   8
BRANCH   1  15
ATOM     15  C   UNL     1      46.194   6.732  12.618  0.00  0.00    +0.000 C 
BRANCH  15  16
ATOM     16  O   UNL     1      47.354   6.718  11.788  0.00  0.00    +0.000 OA
BRANCH  16  21
ATOM     17  C   UNL     1      50.405   8.692  11.566  0.00  0.00    +0.000 A 
ATOM     18  C   UNL     1      49.935  10.002  11.715  0.00  0.00    +0.000 A 
ATOM     19  C   UNL     1      48.573  10.234  11.902  0.00  0.00    +0.000 A 
ATOM     20  C   UNL     1      47.672   9.161  11.938  0.00  0.00    +0.000 A 
ATOM     21  C   UNL     1      48.128   7.850  11.780  0.00  0.00    +0.000 A 
ATOM     22  C   UNL     1      49.496   7.625  11.597  0.00  0.00    +0.000 A 
BRANCH  17  24
ATOM     23  N   UNL     1      52.939   8.251  11.229  0.00  0.00    +0.000 NA
ATOM     24  C   UNL     1      51.805   8.446  11.387  0.00  0.00    +0.000 C 
ENDBRANCH  17  24
ENDBRANCH  16  21
ENDBRANCH  15  16
ENDBRANCH   1  15
TORSDOF 5
ENDMDL
MODEL 8
REMARK VINA RESULT:    -5.884      3.914      8.058
REMARK INTER + INTRA:          -8.502
REMARK INTER:                  -7.772
REMARK INTRA:                  -0.730
REMARK UNBOUND:                -0.898
REMARK  Name = 
REMARK  5 active torsions:
REMARK  status: ('A' for Active; 'I' for Inactive)
REMARK    1  A    between atoms: C_2  and  C_3
REMARK    2  A    between atoms: C_7  and  O_8
REMARK    3  A    between atoms: O_8  and  C_9
REMARK    4  A    between atoms: C_9  and  C_10
REMARK    5  A    between atoms: C_15  and  N_16
REMARK                            x       y       z     vdW  Elec       q    Type
REMARK                         _______ _______ _______ _____ _____    ______ ____
ROOT
ATOM      1  C   UNL     1      47.171   4.988  14.147  0.00  0.00    +0.000 A 
ATOM      2  C   UNL     1      48.033   6.057  14.415  0.00  0.00    +0.000 A 
ATOM      3  C   UNL     1      47.991   7.203  13.623  0.00  0.00    +0.000 A 
ATOM      4  C   UNL     1      47.097   7.281  12.554  0.00  0.00    +0.000 A 
ATOM      5  F   UNL     1      47.098   8.413  11.831  0.00  0.00    +0.000 F 
ATOM      6  C   UNL     1      46.211   6.236  12.245  0.00  0.00    +0.000 A 
ATOM      7  C   UNL     1      46.254   5.105  13.084  0.00  0.00    +0.000 A 
ENDROOT
BRANCH   6   8
ATOM      8  N   UNL     1      45.365   6.238  11.143  0.00  0.00    +0.000 N 
ATOM      9  C   UNL     1      43.905   6.276  11.307  0.00  0.00    +0.000 C 
ATOM     10  C   UNL     1      43.231   4.981  10.806  0.00  0.00    +0.000 C 
ATOM     11  N   UNL     1      43.629   4.613   9.429  0.00  0.00    +0.000 NA
ATOM     12  C   UNL     1      45.101   4.475   9.398  0.00  0.00    +0.000 C 
ATOM     13  C   UNL     1      45.861   5.746   9.846  0.00  0.00    +0.000 C 
ATOM     14  H   UNL     1      43.372   5.384   8.813  0.00  0.00    +0.000 HD
ENDBRANCH   6   8
BRANCH   1  15
ATOM     15  C   UNL     1      47.246   3.708  14.952  0.00  0.00    +0.000 C 
BRANCH  15  16
ATOM     16  O   UNL     1      46.747   3.927  16.271  0.00  0.00    +0.000 OA
BRANCH  16  21
ATOM     17  C   UNL     1      48.116   5.305  19.350  0.00  0.00    +0.000 A 
ATOM     18  C   UNL     1      49.382   4.711  19.417  0.00  0.00    +0.000 A 
ATOM     19  C   UNL     1      49.793   3.838  18.410  0.00  0.00    +0.000 A 
ATOM     20  C   UNL     1      48.943   3.550  17.333  0.00  0.00    +0.000 A 
ATOM     21  C   UNL     1      47.674   4.130  17.261  0.00  0.00    +0.000 A 
ATOM     22  C   UNL     1      47.269   5.007  18.272  0.00  0.00    +0.000 A 
BRANCH  17  24
ATOM     23  N   UNL     1      47.363   6.951  21.208  0.00  0.00    +0.000 NA
ATOM     24  C   UNL     1      47.693   6.214  20.374  0.00  0.00    +0.000 C 
ENDBRANCH  17  24
ENDBRANCH  16  21
ENDBRANCH  15  16
ENDBRANCH   1  15
TORSDOF 5
ENDMDL
MODEL 9
REMARK VINA RESULT:    -5.783      2.945      4.639
REMARK INTER + INTRA:          -8.371
REMARK INTER:                  -7.567
REMARK INTRA:                  -0.804
REMARK UNBOUND:                -0.898
REMARK  Name = 
REMARK  5 active torsions:
REMARK  status: ('A' for Active; 'I' for Inactive)
REMARK    1  A    between atoms: C_2  and  C_3
REMARK    2  A    between atoms: C_7  and  O_8
REMARK    3  A    between atoms: O_8  and  C_9
REMARK    4  A    between atoms: C_9  and  C_10
REMARK    5  A    between atoms: C_15  and  N_16
REMARK                            x       y       z     vdW  Elec       q    Type
REMARK                         _______ _______ _______ _____ _____    ______ ____
ROOT
ATOM      1  C   UNL     1      47.569   7.128  13.299  0.00  0.00    +0.000 A 
ATOM      2  C   UNL     1      48.675   7.841  12.824  0.00  0.00    +0.000 A 
ATOM      3  C   UNL     1      49.851   7.883  13.570  0.00  0.00    +0.000 A 
ATOM      4  C   UNL     1      49.923   7.223  14.799  0.00  0.00    +0.000 A 
ATOM      5  F   UNL     1      51.085   7.294  15.469  0.00  0.00    +0.000 F 
ATOM      6  C   UNL     1      48.841   6.494  15.317  0.00  0.00    +0.000 A 
ATOM      7  C   UNL     1      47.677   6.442  14.525  0.00  0.00    +0.000 A 
ENDROOT
BRANCH   6   8
ATOM      8  N   UNL     1      48.841   5.893  16.570  0.00  0.00    +0.000 N 
ATOM      9  C   UNL     1      48.454   4.485  16.737  0.00  0.00    +0.000 C 
ATOM     10  C   UNL     1      47.158   4.334  17.559  0.00  0.00    +0.000 C 
ATOM     11  N   UNL     1      47.197   5.059  18.848  0.00  0.00    +0.000 NA
ATOM     12  C   UNL     1      47.465   6.485  18.566  0.00  0.00    +0.000 C 
ATOM     13  C   UNL     1      48.775   6.733  17.778  0.00  0.00    +0.000 C 
ATOM     14  H   UNL     1      47.980   4.692  19.389  0.00  0.00    +0.000 HD
ENDBRANCH   6   8
BRANCH   1  15
ATOM     15  C   UNL     1      46.260   7.125  12.538  0.00  0.00    +0.000 C 
BRANCH  15  16
ATOM     16  O   UNL     1      45.350   6.198  13.129  0.00  0.00    +0.000 OA
BRANCH  16  21
ATOM     17  C   UNL     1      44.926   4.262  10.075  0.00  0.00    +0.000 A 
ATOM     18  C   UNL     1      43.993   3.291  10.454  0.00  0.00    +0.000 A 
ATOM     19  C   UNL     1      43.486   3.284  11.752  0.00  0.00    +0.000 A 
ATOM     20  C   UNL     1      43.910   4.244  12.682  0.00  0.00    +0.000 A 
ATOM     21  C   UNL     1      44.849   5.213  12.318  0.00  0.00    +0.000 A 
ATOM     22  C   UNL     1      45.350   5.216  11.013  0.00  0.00    +0.000 A 
BRANCH  17  24
ATOM     23  N   UNL     1      45.845   4.300   7.649  0.00  0.00    +0.000 NA
ATOM     24  C   UNL     1      45.441   4.283   8.738  0.00  0.00    +0.000 C 
ENDBRANCH  17  24
ENDBRANCH  16  21
ENDBRANCH  15  16
ENDBRANCH   1  15
TORSDOF 5
ENDMDL
