MODEL 1
REMARK VINA RESULT:    -6.981      0.000      0.000
REMARK INTER + INTRA:          -9.353
REMARK INTER:                  -9.429
REMARK INTRA:                   0.076
REMARK UNBOUND:                 0.076
REMARK  Name = 
REMARK  7 active torsions:
REMARK  status: ('A' for Active; 'I' for Inactive)
REMARK    1  A    between atoms: C_1  and  O_2
REMARK    2  A    between atoms: O_2  and  C_3
REMARK    3  A    between atoms: C_5  and  C_6
REMARK    4  A    between atoms: C_10  and  N_11
REMARK    5  A    between atoms: N_11  and  C_12
REMARK    6  A    between atoms: C_12  and  C_13
REMARK    7  A    between atoms: C_17  and  C_18
REMARK                            x       y       z     vdW  Elec       q    Type
REMARK                         _______ _______ _______ _____ _____    ______ ____
ROOT
ATOM      1  C   UNL     1      44.985   6.356  11.758  0.00  0.00    +0.000 C 
ATOM      2  C   UNL     1      46.186   5.550  12.241  0.00  0.00    +0.000 C 
ATOM      3  C   UNL     1      44.969   5.654  13.101  0.00  0.00    +0.000 C 
ENDROOT
BRANCH   1   4
ATOM      4  C   UNL     1      45.089   7.877  11.733  0.00  0.00    +0.000 A 
ATOM      5  C   UNL     1      46.217   8.572  12.188  0.00  0.00    +0.000 A 
ATOM      6  C   UNL     1      46.327   9.953  12.014  0.00  0.00    +0.000 A 
ATOM      7  C   UNL     1      45.322  10.664  11.353  0.00  0.00    +0.000 A 
ATOM      8  C   UNL     1      44.166  10.019  10.905  0.00  0.00    +0.000 A 
ATOM      9  C   UNL     1      44.068   8.639  11.141  0.00  0.00    +0.000 A 
BRANCH   8  10
ATOM     10  C   UNL     1      43.073  10.674  10.062  0.00  0.00    +0.000 C 
ATOM     11  C   UNL     1      43.141  12.204   9.940  0.00  0.00    +0.000 C 
ATOM     12  C   UNL     1      42.629  12.903  11.199  0.00  0.00    +0.000 C 
ATOM     13  N   UNL     1      41.269  12.489  11.546  0.00  0.00    +0.000 NA
ATOM     14  C   UNL     1      41.188  11.038  11.729  0.00  0.00    +0.000 C 
ATOM     15  C   UNL     1      41.640  10.284  10.482  0.00  0.00    +0.000 C 
ATOM     16  H   UNL     1      40.635  12.768  10.797  0.00  0.00    +0.000 HD
ENDBRANCH   8  10
ENDBRANCH   1   4
BRANCH   1  17
ATOM     17  N   UNL     1      44.323   5.786  10.580  0.00  0.00    +0.000 N 
ATOM     18  H   UNL     1      43.307   5.798  10.576  0.00  0.00    +0.000 HD
BRANCH  17  24
ATOM     19  C   UNL     1      44.259   3.366   9.924  0.00  0.00    +0.000 A 
ATOM     20  C   UNL     1      44.850   2.394   9.102  0.00  0.00    +0.000 A 
ATOM     21  C   UNL     1      45.869   2.743   8.221  0.00  0.00    +0.000 A 
ATOM     22  C   UNL     1      46.253   4.067   8.169  0.00  0.00    +0.000 A 
ATOM     23  N   UNL     1      45.693   5.032   8.927  0.00  0.00    +0.000 NA
ATOM     24  C   UNL     1      44.710   4.694   9.807  0.00  0.00    +0.000 A 
BRANCH  19  26
ATOM     25  C   UNL     1      43.676   2.618  12.128  0.00  0.00    +0.000 C 
ATOM     26  O   UNL     1      43.286   3.072  10.838  0.00  0.00    +0.000 OA
ENDBRANCH  19  26
BRANCH  21  27
ATOM     27  C   UNL     1      46.522   1.764   7.415  0.00  0.00    +0.000 C 
ATOM     28  N   UNL     1      47.045   0.964   6.756  0.00  0.00    +0.000 NA
ENDBRANCH  21  27
ENDBRANCH  17  24
ENDBRANCH   1  17
TORSDOF 6
ENDMDL
MODEL 2
REMARK VINA RESULT:    -6.955      2.060      4.111
REMARK INTER + INTRA:          -9.319
REMARK INTER:                  -9.901
REMARK INTRA:                   0.582
REMARK UNBOUND:                 0.076
REMARK  Name = 
REMARK  7 active torsions:
REMARK  status: ('A' for Active; 'I' for Inactive)
REMARK    1  A    between atoms: C_1  and  O_2
REMARK    2  A    between atoms: O_2  and  C_3
REMARK    3  A    between atoms: C_5  and  C_6
REMARK    4  A    between atoms: C_10  and  N_11
REMARK    5  A    between atoms: N_11  and  C_12
REMARK    6  A    between atoms: C_12  and  C_13
REMARK    7  A    between atoms: C_17  and  C_18
REMARK                            x       y       z     vdW  Elec       q    Type
REMARK                         _______ _______ _______ _____ _____    ______ ____
ROOT
ATOM      1  C   UNL     1      44.627   6.265  11.663  0.00  0.00    +0.000 C 
ATOM      2  C   UNL     1      45.391   5.249  12.505  0.00  0.00    +0.000 C 
ATOM      3  C   UNL     1      44.059   5.741  12.967  0.00  0.00    +0.000 C 
ENDROOT
BRANCH   1   4
ATOM      4  C   UNL     1      45.134   7.702  11.616  0.00  0.00    +0.000 A 
ATOM      5  C   UNL     1      44.314   8.790  11.288  0.00  0.00    +0.000 A 
ATOM      6  C   UNL     1      44.784  10.101  11.397  0.00  0.00    +0.000 A 
ATOM      7  C   UNL     1      46.077  10.351  11.865  0.00  0.00    +0.000 A 
ATOM      8  C   UNL     1      46.941   9.299  12.179  0.00  0.00    +0.000 A 
ATOM      9  C   UNL     1      46.450   7.994  12.011  0.00  0.00    +0.000 A 
BRANCH   8  10
ATOM     10  C   UNL     1      48.318   9.461  12.817  0.00  0.00    +0.000 C 
ATOM     11  C   UNL     1      49.492   8.817  12.062  0.00  0.00    +0.000 C 
ATOM     12  C   UNL     1      49.543   7.302  12.268  0.00  0.00    +0.000 C 
ATOM     13  N   UNL     1      49.600   6.939  13.684  0.00  0.00    +0.000 NA
ATOM     14  C   UNL     1      48.458   7.490  14.418  0.00  0.00    +0.000 C 
ATOM     15  C   UNL     1      48.383   9.009  14.291  0.00  0.00    +0.000 C 
ATOM     16  H   UNL     1      50.463   7.303  14.087  0.00  0.00    +0.000 HD
ENDBRANCH   8  10
ENDBRANCH   1   4
BRANCH   1  17
ATOM     17  N   UNL     1      44.186   5.748  10.365  0.00  0.00    +0.000 N 
ATOM     18  H   UNL     1      43.201   5.856  10.139  0.00  0.00    +0.000 HD
BRANCH  17  24
ATOM     19  C   UNL     1      44.221   3.283   9.896  0.00  0.00    +0.000 A 
ATOM     20  C   UNL     1      44.861   2.274   9.160  0.00  0.00    +0.000 A 
ATOM     21  C   UNL     1      45.882   2.593   8.270  0.00  0.00    +0.000 A 
ATOM     22  C   UNL     1      46.219   3.922   8.122  0.00  0.00    +0.000 A 
ATOM     23  N   UNL     1      45.611   4.921   8.795  0.00  0.00    +0.000 NA
ATOM     24  C   UNL     1      44.626   4.615   9.683  0.00  0.00    +0.000 A 
BRANCH  19  26
ATOM     25  C   UNL     1      43.591   2.320  12.002  0.00  0.00    +0.000 C 
ATOM     26  O   UNL     1      43.244   3.025  10.816  0.00  0.00    +0.000 OA
ENDBRANCH  19  26
BRANCH  21  27
ATOM     27  C   UNL     1      46.585   1.580   7.552  0.00  0.00    +0.000 C 
ATOM     28  N   UNL     1      47.148   0.754   6.962  0.00  0.00    +0.000 NA
ENDBRANCH  21  27
ENDBRANCH  17  24
ENDBRANCH   1  17
TORSDOF 6
ENDMDL
MODEL 3
REMARK VINA RESULT:    -6.789      2.982      7.742
REMARK INTER + INTRA:          -9.094
REMARK INTER:                  -8.351
REMARK INTRA:                  -0.743
REMARK UNBOUND:                 0.076
REMARK  Name = 
REMARK  7 active torsions:
REMARK  status: ('A' for Active; 'I' for Inactive)
REMARK    1  A    between atoms: C_1  and  O_2
REMARK    2  A    between atoms: O_2  and  C_3
REMARK    3  A    between atoms: C_5  and  C_6
REMARK    4  A    between atoms: C_10  and  N_11
REMARK    5  A    between atoms: N_11  and  C_12
REMARK    6  A    between atoms: C_12  and  C_13
REMARK    7  A    between atoms: C_17  and  C_18
REMARK                            x       y       z     vdW  Elec       q    Type
REMARK                         _______ _______ _______ _____ _____    ______ ____
ROOT
ATOM      1  C   UNL     1      48.255   7.900  12.506  0.00  0.00    +0.000 C 
ATOM      2  C   UNL     1      49.751   7.869  12.796  0.00  0.00    +0.000 C 
ATOM      3  C   UNL     1      49.272   7.926  11.383  0.00  0.00    +0.000 C 
ENDROOT
BRANCH   1   4
ATOM      4  C   UNL     1      47.443   6.628  12.724  0.00  0.00    +0.000 A 
ATOM      5  C   UNL     1      47.505   5.876  13.904  0.00  0.00    +0.000 A 
ATOM      6  C   UNL     1      46.639   4.801  14.116  0.00  0.00    +0.000 A 
ATOM      7  C   UNL     1      45.672   4.475  13.162  0.00  0.00    +0.000 A 
ATOM      8  C   UNL     1      45.589   5.178  11.958  0.00  0.00    +0.000 A 
ATOM      9  C   UNL     1      46.507   6.221  11.759  0.00  0.00    +0.000 A 
BRANCH   8  10
ATOM     10  C   UNL     1      44.493   4.988  10.911  0.00  0.00    +0.000 C 
ATOM     11  C   UNL     1      43.208   4.298  11.396  0.00  0.00    +0.000 C 
ATOM     12  C   UNL     1      43.385   2.785  11.527  0.00  0.00    +0.000 C 
ATOM     13  N   UNL     1      43.841   2.172  10.279  0.00  0.00    +0.000 NA
ATOM     14  C   UNL     1      45.099   2.770   9.825  0.00  0.00    +0.000 C 
ATOM     15  C   UNL     1      44.970   4.277   9.627  0.00  0.00    +0.000 C 
ATOM     16  H   UNL     1      43.129   2.306   9.562  0.00  0.00    +0.000 HD
ENDBRANCH   8  10
ENDBRANCH   1   4
BRANCH   1  17
ATOM     17  N   UNL     1      47.586   9.119  12.970  0.00  0.00    +0.000 N 
ATOM     18  H   UNL     1      47.283   9.134  13.940  0.00  0.00    +0.000 HD
BRANCH  17  24
ATOM     19  C   UNL     1      47.044  11.152  11.604  0.00  0.00    +0.000 A 
ATOM     20  C   UNL     1      45.998  11.898  11.039  0.00  0.00    +0.000 A 
ATOM     21  C   UNL     1      44.680  11.469  11.166  0.00  0.00    +0.000 A 
ATOM     22  C   UNL     1      44.447  10.287  11.837  0.00  0.00    +0.000 A 
ATOM     23  N   UNL     1      45.429   9.532  12.374  0.00  0.00    +0.000 NA
ATOM     24  C   UNL     1      46.718   9.957  12.272  0.00  0.00    +0.000 A 
BRANCH  19  26
ATOM     25  C   UNL     1      49.022  11.516  10.295  0.00  0.00    +0.000 C 
ATOM     26  O   UNL     1      48.351  11.548  11.548  0.00  0.00    +0.000 OA
ENDBRANCH  19  26
BRANCH  21  27
ATOM     27  C   UNL     1      43.595  12.237  10.649  0.00  0.00    +0.000 C 
ATOM     28  N   UNL     1      42.706  12.856  10.233  0.00  0.00    +0.000 NA
ENDBRANCH  21  27
ENDBRANCH  17  24
ENDBRANCH   1  17
TORSDOF 6
ENDMDL
MODEL 4
REMARK VINA RESULT:    -6.741      4.520      7.581
REMARK INTER + INTRA:          -9.029
REMARK INTER:                  -7.825
REMARK INTRA:                  -1.204
REMARK UNBOUND:                 0.076
REMARK  Name = 
REMARK  7 active torsions:
REMARK  status: ('A' for Active; 'I' for Inactive)
REMARK    1  A    between atoms: C_1  and  O_2
REMARK    2  A    between atoms: O_2  and  C_3
REMARK    3  A    between atoms: C_5  and  C_6
REMARK    4  A    between atoms: C_10  and  N_11
REMARK    5  A    between atoms: N_11  and  C_12
REMARK    6  A    between atoms: C_12  and  C_13
REMARK    7  A    between atoms: C_17  and  C_18
REMARK                            x       y       z     vdW  Elec       q    Type
REMARK                         _______ _______ _______ _____ _____    ______ ____
ROOT
ATOM      1  C   UNL     1      49.068   7.894  12.428  0.00  0.00    +0.000 C 
ATOM      2  C   UNL     1      49.860   7.783  11.130  0.00  0.00    +0.000 C 
ATOM      3  C   UNL     1      49.923   9.042  11.931  0.00  0.00    +0.000 C 
ENDROOT
BRANCH   1   4
ATOM      4  C   UNL     1      47.551   8.029  12.347  0.00  0.00    +0.000 A 
ATOM      5  C   UNL     1      46.883   9.248  12.516  0.00  0.00    +0.000 A 
ATOM      6  C   UNL     1      45.509   9.350  12.292  0.00  0.00    +0.000 A 
ATOM      7  C   UNL     1      44.778   8.239  11.865  0.00  0.00    +0.000 A 
ATOM      8  C   UNL     1      45.394   6.994  11.709  0.00  0.00    +0.000 A 
ATOM      9  C   UNL     1      46.768   6.919  11.990  0.00  0.00    +0.000 A 
BRANCH   8  10
ATOM     10  C   UNL     1      44.720   5.753  11.127  0.00  0.00    +0.000 C 
ATOM     11  C   UNL     1      43.214   5.614  11.400  0.00  0.00    +0.000 C 
ATOM     12  C   UNL     1      42.931   5.135  12.824  0.00  0.00    +0.000 C 
ATOM     13  N   UNL     1      43.613   3.877  13.130  0.00  0.00    +0.000 NA
ATOM     14  C   UNL     1      45.060   4.000  12.938  0.00  0.00    +0.000 C 
ATOM     15  C   UNL     1      45.408   4.427  11.515  0.00  0.00    +0.000 C 
ATOM     16  H   UNL     1      43.255   3.146  12.516  0.00  0.00    +0.000 HD
ENDBRANCH   8  10
ENDBRANCH   1   4
BRANCH   1  17
ATOM     17  N   UNL     1      49.528   6.988  13.483  0.00  0.00    +0.000 N 
ATOM     18  H   UNL     1      49.741   6.033  13.207  0.00  0.00    +0.000 HD
BRANCH  17  24
ATOM     19  C   UNL     1      49.312   7.928  15.799  0.00  0.00    +0.000 A 
ATOM     20  C   UNL     1      48.924   7.634  17.115  0.00  0.00    +0.000 A 
ATOM     21  C   UNL     1      48.404   6.383  17.432  0.00  0.00    +0.000 A 
ATOM     22  C   UNL     1      48.264   5.465  16.412  0.00  0.00    +0.000 A 
ATOM     23  N   UNL     1      48.605   5.719  15.132  0.00  0.00    +0.000 NA
ATOM     24  C   UNL     1      49.134   6.934  14.819  0.00  0.00    +0.000 A 
BRANCH  19  26
ATOM     25  C   UNL     1      49.039  10.277  15.389  0.00  0.00    +0.000 C 
ATOM     26  O   UNL     1      49.870   9.124  15.440  0.00  0.00    +0.000 OA
ENDBRANCH  19  26
BRANCH  21  27
ATOM     27  C   UNL     1      48.054   6.041  18.772  0.00  0.00    +0.000 C 
ATOM     28  N   UNL     1      47.769   5.773  19.865  0.00  0.00    +0.000 NA
ENDBRANCH  21  27
ENDBRANCH  17  24
ENDBRANCH   1  17
TORSDOF 6
ENDMDL
MODEL 5
REMARK VINA RESULT:    -6.688      4.794      7.923
REMARK INTER + INTRA:          -8.958
REMARK INTER:                  -8.072
REMARK INTRA:                  -0.886
REMARK UNBOUND:                 0.076
REMARK  Name = 
REMARK  7 active torsions:
REMARK  status: ('A' for Active; 'I' for Inactive)
REMARK    1  A    between atoms: C_1  and  O_2
REMARK    2  A    between atoms: O_2  and  C_3
REMARK    3  A    between atoms: C_5  and  C_6
REMARK    4  A    between atoms: C_10  and  N_11
REMARK    5  A    between atoms: N_11  and  C_12
REMARK    6  A    between atoms: C_12  and  C_13
REMARK    7  A    between atoms: C_17  and  C_18
REMARK                            x       y       z     vdW  Elec       q    Type
REMARK                         _______ _______ _______ _____ _____    ______ ____
ROOT
ATOM      1  C   UNL     1      49.191   7.798  13.568  0.00  0.00    +0.000 C 
ATOM      2  C   UNL     1      50.172   7.994  12.417  0.00  0.00    +0.000 C 
ATOM      3  C   UNL     1      49.810   9.153  13.287  0.00  0.00    +0.000 C 
ENDROOT
BRANCH   1   4
ATOM      4  C   UNL     1      47.716   7.590  13.242  0.00  0.00    +0.000 A 
ATOM      5  C   UNL     1      46.770   8.622  13.293  0.00  0.00    +0.000 A 
ATOM      6  C   UNL     1      45.462   8.419  12.849  0.00  0.00    +0.000 A 
ATOM      7  C   UNL     1      45.081   7.185  12.316  0.00  0.00    +0.000 A 
ATOM      8  C   UNL     1      45.981   6.117  12.268  0.00  0.00    +0.000 A 
ATOM      9  C   UNL     1      47.272   6.344  12.768  0.00  0.00    +0.000 A 
BRANCH   8  10
ATOM     10  C   UNL     1      45.708   4.775  11.591  0.00  0.00    +0.000 C 
ATOM     11  C   UNL     1      44.831   4.822  10.330  0.00  0.00    +0.000 C 
ATOM     12  C   UNL     1      43.349   4.986  10.669  0.00  0.00    +0.000 C 
ATOM     13  N   UNL     1      42.870   3.939  11.572  0.00  0.00    +0.000 NA
ATOM     14  C   UNL     1      43.651   3.913  12.812  0.00  0.00    +0.000 C 
ATOM     15  C   UNL     1      45.137   3.700  12.539  0.00  0.00    +0.000 C 
ATOM     16  H   UNL     1      42.950   3.035  11.107  0.00  0.00    +0.000 HD
ENDBRANCH   8  10
ENDBRANCH   1   4
BRANCH   1  17
ATOM     17  N   UNL     1      49.693   6.925  14.632  0.00  0.00    +0.000 N 
ATOM     18  H   UNL     1      49.988   5.992  14.358  0.00  0.00    +0.000 HD
BRANCH  17  24
ATOM     19  C   UNL     1      48.662   5.725  16.580  0.00  0.00    +0.000 A 
ATOM     20  C   UNL     1      48.223   5.873  17.904  0.00  0.00    +0.000 A 
ATOM     21  C   UNL     1      48.364   7.092  18.560  0.00  0.00    +0.000 A 
ATOM     22  C   UNL     1      48.968   8.127  17.876  0.00  0.00    +0.000 A 
ATOM     23  N   UNL     1      49.422   8.015  16.611  0.00  0.00    +0.000 NA
ATOM     24  C   UNL     1      49.268   6.832  15.956  0.00  0.00    +0.000 A 
BRANCH  19  26
ATOM     25  C   UNL     1      47.236   3.932  15.867  0.00  0.00    +0.000 C 
ATOM     26  O   UNL     1      48.509   4.566  15.873  0.00  0.00    +0.000 OA
ENDBRANCH  19  26
BRANCH  21  27
ATOM     27  C   UNL     1      47.875   7.284  19.886  0.00  0.00    +0.000 C 
ATOM     28  N   UNL     1      47.475   7.430  20.966  0.00  0.00    +0.000 NA
ENDBRANCH  21  27
ENDBRANCH  17  24
ENDBRANCH   1  17
TORSDOF 6
ENDMDL
MODEL 6
REMARK VINA RESULT:    -6.657      5.040      7.700
REMARK INTER + INTRA:          -8.916
REMARK INTER:                  -8.027
REMARK INTRA:                  -0.889
REMARK UNBOUND:                 0.076
REMARK  Name = 
REMARK  7 active torsions:
REMARK  status: ('A' for Active; 'I' for Inactive)
REMARK    1  A    between atoms: C_1  and  O_2
REMARK    2  A    between atoms: O_2  and  C_3
REMARK    3  A    between atoms: C_5  and  C_6
REMARK    4  A    between atoms: C_10  and  N_11
REMARK    5  A    between atoms: N_11  and  C_12
REMARK    6  A    between atoms: C_12  and  C_13
REMARK    7  A    between atoms: C_17  and  C_18
REMARK                            x       y       z     vdW  Elec       q    Type
REMARK                         _______ _______ _______ _____ _____    ______ ____
ROOT
ATOM      1  C   UNL     1      48.171   7.363  13.863  0.00  0.00    +0.000 C 
ATOM      2  C   UNL     1      48.754   8.286  12.799  0.00  0.00    +0.000 C 
ATOM      3  C   UNL     1      49.192   6.860  12.863  0.00  0.00    +0.000 C 
ENDROOT
BRANCH   1   4
ATOM      4  C   UNL     1      48.605   7.554  15.312  0.00  0.00    +0.000 A 
ATOM      5  C   UNL     1      48.199   8.644  16.093  0.00  0.00    +0.000 A 
ATOM      6  C   UNL     1      48.503   8.704  17.454  0.00  0.00    +0.000 A 
ATOM      7  C   UNL     1      49.195   7.659  18.070  0.00  0.00    +0.000 A 
ATOM      8  C   UNL     1      49.644   6.563  17.329  0.00  0.00    +0.000 A 
ATOM      9  C   UNL     1      49.362   6.560  15.954  0.00  0.00    +0.000 A 
BRANCH   8  10
ATOM     10  C   UNL     1      50.291   5.313  17.922  0.00  0.00    +0.000 C 
ATOM     11  C   UNL     1      49.635   3.973  17.553  0.00  0.00    +0.000 C 
ATOM     12  C   UNL     1      48.353   3.723  18.348  0.00  0.00    +0.000 C 
ATOM     13  N   UNL     1      48.579   3.788  19.793  0.00  0.00    +0.000 NA
ATOM     14  C   UNL     1      49.147   5.081  20.182  0.00  0.00    +0.000 C 
ATOM     15  C   UNL     1      50.459   5.364  19.456  0.00  0.00    +0.000 C 
ATOM     16  H   UNL     1      49.222   3.045  20.063  0.00  0.00    +0.000 HD
ENDBRANCH   8  10
ENDBRANCH   1   4
BRANCH   1  17
ATOM     17  N   UNL     1      46.737   7.103  13.702  0.00  0.00    +0.000 N 
ATOM     18  H   UNL     1      46.143   7.303  14.501  0.00  0.00    +0.000 HD
BRANCH  17  24
ATOM     19  C   UNL     1      45.901   4.756  13.409  0.00  0.00    +0.000 A 
ATOM     20  C   UNL     1      45.331   3.857  12.495  0.00  0.00    +0.000 A 
ATOM     21  C   UNL     1      45.013   4.272  11.205  0.00  0.00    +0.000 A 
ATOM     22  C   UNL     1      45.254   5.589  10.873  0.00  0.00    +0.000 A 
ATOM     23  N   UNL     1      45.779   6.487  11.732  0.00  0.00    +0.000 NA
ATOM     24  C   UNL     1      46.112   6.083  12.988  0.00  0.00    +0.000 A 
BRANCH  19  26
ATOM     25  C   UNL     1      47.369   3.500  14.833  0.00  0.00    +0.000 C 
ATOM     26  O   UNL     1      46.273   4.393  14.673  0.00  0.00    +0.000 OA
ENDBRANCH  19  26
BRANCH  21  27
ATOM     27  C   UNL     1      44.485   3.364  10.241  0.00  0.00    +0.000 C 
ATOM     28  N   UNL     1      44.049   2.620   9.464  0.00  0.00    +0.000 NA
ENDBRANCH  21  27
ENDBRANCH  17  24
ENDBRANCH   1  17
TORSDOF 6
ENDMDL
MODEL 7
REMARK VINA RESULT:    -6.576      3.707      6.163
REMARK INTER + INTRA:          -8.806
REMARK INTER:                  -7.792
REMARK INTRA:                  -1.015
REMARK UNBOUND:                 0.076
REMARK  Name = 
REMARK  7 active torsions:
REMARK  status: ('A' for Active; 'I' for Inactive)
REMARK    1  A    between atoms: C_1  and  O_2
REMARK    2  A    between atoms: O_2  and  C_3
REMARK    3  A    between atoms: C_5  and  C_6
REMARK    4  A    between atoms: C_10  and  N_11
REMARK    5  A    between atoms: N_11  and  C_12
REMARK    6  A    between atoms: C_12  and  C_13
REMARK    7  A    between atoms: C_17  and  C_18
REMARK                            x       y       z     vdW  Elec       q    Type
REMARK                         _______ _______ _______ _____ _____    ______ ____
ROOT
ATOM      1  C   UNL     1      45.714   7.977  12.483  0.00  0.00    +0.000 C 
ATOM      2  C   UNL     1      45.087   9.310  12.877  0.00  0.00    +0.000 C 
ATOM      3  C   UNL     1      45.311   8.995  11.435  0.00  0.00    +0.000 C 
ENDROOT
BRANCH   1   4
ATOM      4  C   UNL     1      47.199   7.762  12.754  0.00  0.00    +0.000 A 
ATOM      5  C   UNL     1      48.151   7.635  11.734  0.00  0.00    +0.000 A 
ATOM      6  C   UNL     1      49.515   7.583  12.028  0.00  0.00    +0.000 A 
ATOM      7  C   UNL     1      49.957   7.686  13.350  0.00  0.00    +0.000 A 
ATOM      8  C   UNL     1      49.045   7.787  14.404  0.00  0.00    +0.000 A 
ATOM      9  C   UNL     1      47.681   7.787  14.074  0.00  0.00    +0.000 A 
BRANCH   8  10
ATOM     10  C   UNL     1      49.422   8.034  15.863  0.00  0.00    +0.000 C 
ATOM     11  C   UNL     1      50.922   7.967  16.193  0.00  0.00    +0.000 C 
ATOM     12  C   UNL     1      51.427   6.527  16.276  0.00  0.00    +0.000 C 
ATOM     13  N   UNL     1      50.668   5.730  17.239  0.00  0.00    +0.000 NA
ATOM     14  C   UNL     1      49.240   5.724  16.913  0.00  0.00    +0.000 C 
ATOM     15  C   UNL     1      48.665   7.137  16.866  0.00  0.00    +0.000 C 
ATOM     16  H   UNL     1      50.796   6.122  18.171  0.00  0.00    +0.000 HD
ENDBRANCH   8  10
ENDBRANCH   1   4
BRANCH   1  17
ATOM     17  N   UNL     1      44.879   6.813  12.792  0.00  0.00    +0.000 N 
ATOM     18  H   UNL     1      44.700   6.626  13.775  0.00  0.00    +0.000 HD
BRANCH  17  24
ATOM     19  C   UNL     1      45.195   4.328  12.653  0.00  0.00    +0.000 A 
ATOM     20  C   UNL     1      45.146   3.222  11.792  0.00  0.00    +0.000 A 
ATOM     21  C   UNL     1      44.762   3.381  10.464  0.00  0.00    +0.000 A 
ATOM     22  C   UNL     1      44.412   4.646  10.039  0.00  0.00    +0.000 A 
ATOM     23  N   UNL     1      44.426   5.728  10.844  0.00  0.00    +0.000 NA
ATOM     24  C   UNL     1      44.821   5.584  12.138  0.00  0.00    +0.000 A 
BRANCH  19  26
ATOM     25  C   UNL     1      47.002   4.192  14.226  0.00  0.00    +0.000 C 
ATOM     26  O   UNL     1      45.607   4.239  13.953  0.00  0.00    +0.000 OA
ENDBRANCH  19  26
BRANCH  21  27
ATOM     27  C   UNL     1      44.757   2.282   9.555  0.00  0.00    +0.000 C 
ATOM     28  N   UNL     1      44.745   1.383   8.819  0.00  0.00    +0.000 NA
ENDBRANCH  21  27
ENDBRANCH  17  24
ENDBRANCH   1  17
TORSDOF 6
ENDMDL
MODEL 8
REMARK VINA RESULT:    -6.446      4.623      7.697
REMARK INTER + INTRA:          -8.632
REMARK INTER:                  -7.883
REMARK INTRA:                  -0.749
REMARK UNBOUND:                 0.076
REMARK  Name = 
REMARK  7 active torsions:
REMARK  status: ('A' for Active; 'I' for Inactive)
REMARK    1  A    between atoms: C_1  and  O_2
REMARK    2  A    between atoms: O_2  and  C_3
REMARK    3  A    between atoms: C_5  and  C_6
REMARK    4  A    between atoms: C_10  and  N_11
REMARK    5  A    between atoms: N_11  and  C_12
REMARK    6  A    between atoms: C_12  and  C_13
REMARK    7  A    between atoms: C_17  and  C_18
REMARK                            x       y       z     vdW  Elec       q    Type
REMARK                         _______ _______ _______ _____ _____    ______ ____
ROOT
ATOM      1  C   UNL     1      48.424   7.867  13.649  0.00  0.00    +0.000 C 
ATOM      2  C   UNL     1      48.574   9.325  13.230  0.00  0.00    +0.000 C 
ATOM      3  C   UNL     1      48.960   8.238  12.282  0.00  0.00    +0.000 C 
ENDROOT
BRANCH   1   4
ATOM      4  C   UNL     1      49.392   7.300  14.682  0.00  0.00    +0.000 A 
ATOM      5  C   UNL     1      50.758   7.609  14.696  0.00  0.00    +0.000 A 
ATOM      6  C   UNL     1      51.579   7.183  15.743  0.00  0.00    +0.000 A 
ATOM      7  C   UNL     1      51.042   6.463  16.813  0.00  0.00    +0.000 A 
ATOM      8  C   UNL     1      49.691   6.108  16.831  0.00  0.00    +0.000 A 
ATOM      9  C   UNL     1      48.907   6.512  15.739  0.00  0.00    +0.000 A 
BRANCH   8  10
ATOM     10  C   UNL     1      48.980   5.440  18.006  0.00  0.00    +0.000 C 
ATOM     11  C   UNL     1      49.630   4.157  18.546  0.00  0.00    +0.000 C 
ATOM     12  C   UNL     1      49.347   2.950  17.651  0.00  0.00    +0.000 C 
ATOM     13  N   UNL     1      47.914   2.737  17.448  0.00  0.00    +0.000 NA
ATOM     14  C   UNL     1      47.278   3.926  16.874  0.00  0.00    +0.000 C 
ATOM     15  C   UNL     1      47.484   5.157  17.753  0.00  0.00    +0.000 C 
ATOM     16  H   UNL     1      47.478   2.525  18.345  0.00  0.00    +0.000 HD
ENDBRANCH   8  10
ENDBRANCH   1   4
BRANCH   1  17
ATOM     17  N   UNL     1      47.033   7.447  13.846  0.00  0.00    +0.000 N 
ATOM     18  H   UNL     1      46.707   7.377  14.806  0.00  0.00    +0.000 HD
BRANCH  17  24
ATOM     19  C   UNL     1      45.535   6.786  11.945  0.00  0.00    +0.000 A 
ATOM     20  C   UNL     1      44.776   5.735  11.407  0.00  0.00    +0.000 A 
ATOM     21  C   UNL     1      44.756   4.491  12.031  0.00  0.00    +0.000 A 
ATOM     22  C   UNL     1      45.520   4.325  13.167  0.00  0.00    +0.000 A 
ATOM     23  N   UNL     1      46.279   5.305  13.700  0.00  0.00    +0.000 NA
ATOM     24  C   UNL     1      46.287   6.530  13.108  0.00  0.00    +0.000 A 
BRANCH  19  26
ATOM     25  C   UNL     1      44.336   8.761  11.299  0.00  0.00    +0.000 C 
ATOM     26  O   UNL     1      45.557   8.039  11.401  0.00  0.00    +0.000 OA
ENDBRANCH  19  26
BRANCH  21  27
ATOM     27  C   UNL     1      43.949   3.425  11.534  0.00  0.00    +0.000 C 
ATOM     28  N   UNL     1      43.296   2.558  11.121  0.00  0.00    +0.000 NA
ENDBRANCH  21  27
ENDBRANCH  17  24
ENDBRANCH   1  17
TORSDOF 6
ENDMDL
MODEL 9
REMARK VINA RESULT:    -6.389      4.875      7.950
REMARK INTER + INTRA:          -8.554
REMARK INTER:                  -7.493
REMARK INTRA:                  -1.061
REMARK UNBOUND:                 0.076
REMARK  Name = 
REMARK  7 active torsions:
REMARK  status: ('A' for Active; 'I' for Inactive)
REMARK    1  A    between atoms: C_1  and  O_2
REMARK    2  A    between atoms: O_2  and  C_3
REMARK    3  A    between atoms: C_5  and  C_6
REMARK    4  A    between atoms: C_10  and  N_11
REMARK    5  A    between atoms: N_11  and  C_12
REMARK    6  A    between atoms: C_12  and  C_13
REMARK    7  A    between atoms: C_17  and  C_18
REMARK                            x       y       z     vdW  Elec       q    Type
REMARK                         _______ _______ _______ _____ _____    ______ ____
ROOT
ATOM      1  C   UNL     1      50.307   8.073  13.703  0.00  0.00    +0.000 C 
ATOM      2  C   UNL     1      50.776   9.310  12.945  0.00  0.00    +0.000 C 
ATOM      3  C   UNL     1      51.781   8.379  13.538  0.00  0.00    +0.000 C 
ENDROOT
BRANCH   1   4
ATOM      4  C   UNL     1      49.674   8.255  15.078  0.00  0.00    +0.000 A 
ATOM      5  C   UNL     1      48.853   9.343  15.402  0.00  0.00    +0.000 A 
ATOM      6  C   UNL     1      48.181   9.395  16.625  0.00  0.00    +0.000 A 
ATOM      7  C   UNL     1      48.293   8.344  17.538  0.00  0.00    +0.000 A 
ATOM      8  C   UNL     1      49.121   7.250  17.272  0.00  0.00    +0.000 A 
ATOM      9  C   UNL     1      49.819   7.255  16.054  0.00  0.00    +0.000 A 
BRANCH   8  10
ATOM     10  C   UNL     1      49.215   5.995  18.137  0.00  0.00    +0.000 C 
ATOM     11  C   UNL     1      49.172   4.654  17.388  0.00  0.00    +0.000 C 
ATOM     12  C   UNL     1      47.754   4.284  16.955  0.00  0.00    +0.000 C 
ATOM     13  N   UNL     1      46.821   4.257  18.082  0.00  0.00    +0.000 NA
ATOM     14  C   UNL     1      46.796   5.546  18.779  0.00  0.00    +0.000 C 
ATOM     15  C   UNL     1      48.180   5.945  19.281  0.00  0.00    +0.000 C 
ATOM     16  H   UNL     1      47.110   3.529  18.735  0.00  0.00    +0.000 HD
ENDBRANCH   8  10
ENDBRANCH   1   4
BRANCH   1  17
ATOM     17  N   UNL     1      49.624   7.086  12.861  0.00  0.00    +0.000 N 
ATOM     18  H   UNL     1      50.011   6.928  11.935  0.00  0.00    +0.000 HD
BRANCH  17  24
ATOM     19  C   UNL     1      47.249   7.663  12.293  0.00  0.00    +0.000 A 
ATOM     20  C   UNL     1      45.920   7.222  12.378  0.00  0.00    +0.000 A 
ATOM     21  C   UNL     1      45.623   5.988  12.947  0.00  0.00    +0.000 A 
ATOM     22  C   UNL     1      46.673   5.214  13.395  0.00  0.00    +0.000 A 
ATOM     23  N   UNL     1      47.965   5.594  13.309  0.00  0.00    +0.000 NA
ATOM     24  C   UNL     1      48.261   6.810  12.773  0.00  0.00    +0.000 A 
BRANCH  19  26
ATOM     25  C   UNL     1      46.891  10.035  12.233  0.00  0.00    +0.000 C 
ATOM     26  O   UNL     1      47.595   8.883  11.785  0.00  0.00    +0.000 OA
ENDBRANCH  19  26
BRANCH  21  27
ATOM     27  C   UNL     1      44.276   5.542  13.096  0.00  0.00    +0.000 C 
ATOM     28  N   UNL     1      43.181   5.175  13.207  0.00  0.00    +0.000 NA
ENDBRANCH  21  27
ENDBRANCH  17  24
ENDBRANCH   1  17
TORSDOF 6
ENDMDL
