MODEL 1
REMARK VINA RESULT:    -7.178      0.000      0.000
REMARK INTER + INTRA:          -9.579
REMARK INTER:                  -8.856
REMARK INTRA:                  -0.722
REMARK UNBOUND:                -0.722
REMARK  Name = 
REMARK  4 active torsions:
REMARK  status: ('A' for Active; 'I' for Inactive)
REMARK    1  A    between atoms: C_3  and  C_4
REMARK    2  A    between atoms: C_4  and  N_5
REMARK    3  A    between atoms: N_5  and  C_6
REMARK    4  A    between atoms: C_13  and  N_14
REMARK                            x       y       z     vdW  Elec       q    Type
REMARK                         _______ _______ _______ _____ _____    ______ ____
ROOT
ATOM      1  C   UNL     1      43.101   4.668  12.831  0.00  0.00    +0.000 A 
ATOM      2  C   UNL     1      43.183   3.780  11.765  0.00  0.00    +0.000 A 
ATOM      3  C   UNL     1      44.233   3.887  10.844  0.00  0.00    +0.000 A 
ATOM      4  C   UNL     1      45.207   4.889  11.029  0.00  0.00    +0.000 A 
ATOM      5  C   UNL     1      45.133   5.815  12.080  0.00  0.00    +0.000 A 
ATOM      6  C   UNL     1      44.064   5.668  12.979  0.00  0.00    +0.000 A 
ENDROOT
BRANCH   5   7
ATOM      7  N   UNL     1      46.071   6.816  12.280  0.00  0.00    +0.000 N 
ATOM      8  C   UNL     1      45.721   8.091  12.906  0.00  0.00    +0.000 C 
ATOM      9  C   UNL     1      46.542   9.196  12.232  0.00  0.00    +0.000 C 
ATOM     10  C   UNL     1      48.041   8.888  12.245  0.00  0.00    +0.000 C 
ATOM     11  C   UNL     1      48.332   7.488  11.705  0.00  0.00    +0.000 C 
ATOM     12  C   UNL     1      47.482   6.437  12.416  0.00  0.00    +0.000 C 
ENDBRANCH   5   7
BRANCH   3  13
ATOM     13  C   UNL     1      44.320   2.955   9.658  0.00  0.00    +0.000 C 
BRANCH  13  14
ATOM     14  N   UNL     1      44.983   3.612   8.538  0.00  0.00    +0.000 N 
ATOM     15  H   UNL     1      45.349   4.525   8.798  0.00  0.00    +0.000 HD
BRANCH  14  16
ATOM     16  C   UNL     1      45.895   2.870   7.773  0.00  0.00    +0.000 A 
ATOM     17  C   UNL     1      46.652   3.420   6.738  0.00  0.00    +0.000 A 
ATOM     18  C   UNL     1      47.590   2.631   6.084  0.00  0.00    +0.000 A 
ATOM     19  N   UNL     1      47.839   1.344   6.399  0.00  0.00    +0.000 NA
ATOM     20  C   UNL     1      47.135   0.838   7.427  0.00  0.00    +0.000 A 
ATOM     21  C   UNL     1      46.183   1.553   8.140  0.00  0.00    +0.000 A 
ENDBRANCH  14  16
ENDBRANCH  13  14
ENDBRANCH   3  13
TORSDOF 4
ENDMDL
MODEL 2
REMARK VINA RESULT:    -6.827      1.306      2.194
REMARK INTER + INTRA:          -9.146
REMARK INTER:                  -8.253
REMARK INTRA:                  -0.893
REMARK UNBOUND:                -0.722
REMARK  Name = 
REMARK  4 active torsions:
REMARK  status: ('A' for Active; 'I' for Inactive)
REMARK    1  A    between atoms: C_3  and  C_4
REMARK    2  A    between atoms: C_4  and  N_5
REMARK    3  A    between atoms: N_5  and  C_6
REMARK    4  A    between atoms: C_13  and  N_14
REMARK                            x       y       z     vdW  Elec       q    Type
REMARK                         _______ _______ _______ _____ _____    ______ ____
ROOT
ATOM      1  C   UNL     1      46.446   4.621  13.290  0.00  0.00    +0.000 A 
ATOM      2  C   UNL     1      45.447   4.059  12.502  0.00  0.00    +0.000 A 
ATOM      3  C   UNL     1      44.696   4.868  11.642  0.00  0.00    +0.000 A 
ATOM      4  C   UNL     1      44.983   6.247  11.573  0.00  0.00    +0.000 A 
ATOM      5  C   UNL     1      45.965   6.844  12.377  0.00  0.00    +0.000 A 
ATOM      6  C   UNL     1      46.694   5.993  13.224  0.00  0.00    +0.000 A 
ENDROOT
BRANCH   5   7
ATOM      7  N   UNL     1      46.260   8.198  12.339  0.00  0.00    +0.000 N 
ATOM      8  C   UNL     1      45.228   9.221  12.511  0.00  0.00    +0.000 C 
ATOM      9  C   UNL     1      45.573  10.406  11.603  0.00  0.00    +0.000 C 
ATOM     10  C   UNL     1      46.998  10.915  11.837  0.00  0.00    +0.000 C 
ATOM     11  C   UNL     1      48.018   9.777  11.781  0.00  0.00    +0.000 C 
ATOM     12  C   UNL     1      47.614   8.630  12.704  0.00  0.00    +0.000 C 
ENDBRANCH   5   7
BRANCH   3  13
ATOM     13  C   UNL     1      43.582   4.284  10.804  0.00  0.00    +0.000 C 
BRANCH  13  14
ATOM     14  N   UNL     1      43.875   4.437   9.384  0.00  0.00    +0.000 N 
ATOM     15  H   UNL     1      43.965   5.415   9.120  0.00  0.00    +0.000 HD
BRANCH  14  16
ATOM     16  C   UNL     1      44.878   3.636   8.818  0.00  0.00    +0.000 A 
ATOM     17  C   UNL     1      44.959   2.257   9.014  0.00  0.00    +0.000 A 
ATOM     18  C   UNL     1      45.939   1.530   8.350  0.00  0.00    +0.000 A 
ATOM     19  N   UNL     1      46.828   2.073   7.494  0.00  0.00    +0.000 NA
ATOM     20  C   UNL     1      46.712   3.396   7.279  0.00  0.00    +0.000 A 
ATOM     21  C   UNL     1      45.761   4.200   7.894  0.00  0.00    +0.000 A 
ENDBRANCH  14  16
ENDBRANCH  13  14
ENDBRANCH   3  13
TORSDOF 4
ENDMDL
MODEL 3
REMARK VINA RESULT:    -6.725      1.174      1.850
REMARK INTER + INTRA:          -9.020
REMARK INTER:                  -8.197
REMARK INTRA:                  -0.823
REMARK UNBOUND:                -0.722
REMARK  Name = 
REMARK  4 active torsions:
REMARK  status: ('A' for Active; 'I' for Inactive)
REMARK    1  A    between atoms: C_3  and  C_4
REMARK    2  A    between atoms: C_4  and  N_5
REMARK    3  A    between atoms: N_5  and  C_6
REMARK    4  A    between atoms: C_13  and  N_14
REMARK                            x       y       z     vdW  Elec       q    Type
REMARK                         _______ _______ _______ _____ _____    ______ ____
ROOT
ATOM      1  C   UNL     1      46.411   3.836  13.371  0.00  0.00    +0.000 A 
ATOM      2  C   UNL     1      45.480   3.300  12.488  0.00  0.00    +0.000 A 
ATOM      3  C   UNL     1      44.977   4.081  11.442  0.00  0.00    +0.000 A 
ATOM      4  C   UNL     1      45.443   5.403  11.288  0.00  0.00    +0.000 A 
ATOM      5  C   UNL     1      46.360   5.978  12.180  0.00  0.00    +0.000 A 
ATOM      6  C   UNL     1      46.839   5.156  13.213  0.00  0.00    +0.000 A 
ENDROOT
BRANCH   5   7
ATOM      7  N   UNL     1      46.827   7.278  12.059  0.00  0.00    +0.000 N 
ATOM      8  C   UNL     1      48.173   7.575  11.569  0.00  0.00    +0.000 C 
ATOM      9  C   UNL     1      48.700   8.796  12.330  0.00  0.00    +0.000 C 
ATOM     10  C   UNL     1      47.736   9.982  12.254  0.00  0.00    +0.000 C 
ATOM     11  C   UNL     1      46.315   9.577  12.646  0.00  0.00    +0.000 C 
ATOM     12  C   UNL     1      45.852   8.356  11.855  0.00  0.00    +0.000 C 
ENDBRANCH   5   7
BRANCH   3  13
ATOM     13  C   UNL     1      43.937   3.529  10.494  0.00  0.00    +0.000 C 
BRANCH  13  14
ATOM     14  N   UNL     1      44.236   3.921   9.122  0.00  0.00    +0.000 N 
ATOM     15  H   UNL     1      44.348   4.928   9.032  0.00  0.00    +0.000 HD
BRANCH  14  16
ATOM     16  C   UNL     1      45.222   3.210   8.423  0.00  0.00    +0.000 A 
ATOM     17  C   UNL     1      46.165   3.820   7.595  0.00  0.00    +0.000 A 
ATOM     18  C   UNL     1      47.156   3.047   7.005  0.00  0.00    +0.000 A 
ATOM     19  N   UNL     1      47.287   1.718   7.194  0.00  0.00    +0.000 NA
ATOM     20  C   UNL     1      46.400   1.149   8.030  0.00  0.00    +0.000 A 
ATOM     21  C   UNL     1      45.380   1.843   8.667  0.00  0.00    +0.000 A 
ENDBRANCH  14  16
ENDBRANCH  13  14
ENDBRANCH   3  13
TORSDOF 4
ENDMDL
MODEL 4
REMARK VINA RESULT:    -6.676      1.313      6.455
REMARK INTER + INTRA:          -8.959
REMARK INTER:                  -8.189
REMARK INTRA:                  -0.771
REMARK UNBOUND:                -0.722
REMARK  Name = 
REMARK  4 active torsions:
REMARK  status: ('A' for Active; 'I' for Inactive)
REMARK    1  A    between atoms: C_3  and  C_4
REMARK    2  A    between atoms: C_4  and  N_5
REMARK    3  A    between atoms: N_5  and  C_6
REMARK    4  A    between atoms: C_13  and  N_14
REMARK                            x       y       z     vdW  Elec       q    Type
REMARK                         _______ _______ _______ _____ _____    ______ ____
ROOT
ATOM      1  C   UNL     1      43.361   2.868  11.723  0.00  0.00    +0.000 A 
ATOM      2  C   UNL     1      43.329   4.228  12.010  0.00  0.00    +0.000 A 
ATOM      3  C   UNL     1      43.981   5.136  11.167  0.00  0.00    +0.000 A 
ATOM      4  C   UNL     1      44.646   4.653  10.022  0.00  0.00    +0.000 A 
ATOM      5  C   UNL     1      44.717   3.284   9.724  0.00  0.00    +0.000 A 
ATOM      6  C   UNL     1      44.047   2.410  10.597  0.00  0.00    +0.000 A 
ENDROOT
BRANCH   5   7
ATOM      7  N   UNL     1      45.373   2.780   8.612  0.00  0.00    +0.000 N 
ATOM      8  C   UNL     1      45.562   1.343   8.409  0.00  0.00    +0.000 C 
ATOM      9  C   UNL     1      46.926   1.130   7.744  0.00  0.00    +0.000 C 
ATOM     10  C   UNL     1      47.082   1.963   6.470  0.00  0.00    +0.000 C 
ATOM     11  C   UNL     1      46.738   3.432   6.713  0.00  0.00    +0.000 C 
ATOM     12  C   UNL     1      45.371   3.574   7.378  0.00  0.00    +0.000 C 
ENDBRANCH   5   7
BRANCH   3  13
ATOM     13  C   UNL     1      43.990   6.615  11.481  0.00  0.00    +0.000 C 
BRANCH  13  14
ATOM     14  N   UNL     1      44.571   6.856  12.796  0.00  0.00    +0.000 N 
ATOM     15  H   UNL     1      44.360   6.103  13.446  0.00  0.00    +0.000 HD
BRANCH  14  16
ATOM     16  C   UNL     1      45.910   7.267  12.870  0.00  0.00    +0.000 A 
ATOM     17  C   UNL     1      46.295   8.591  13.085  0.00  0.00    +0.000 A 
ATOM     18  C   UNL     1      47.642   8.896  13.224  0.00  0.00    +0.000 A 
ATOM     19  N   UNL     1      48.629   7.978  13.184  0.00  0.00    +0.000 NA
ATOM     20  C   UNL     1      48.243   6.699  13.021  0.00  0.00    +0.000 A 
ATOM     21  C   UNL     1      46.921   6.301  12.879  0.00  0.00    +0.000 A 
ENDBRANCH  14  16
ENDBRANCH  13  14
ENDBRANCH   3  13
TORSDOF 4
ENDMDL
MODEL 5
REMARK VINA RESULT:    -6.538      2.171      6.710
REMARK INTER + INTRA:          -8.790
REMARK INTER:                  -8.117
REMARK INTRA:                  -0.673
REMARK UNBOUND:                -0.722
REMARK  Name = 
REMARK  4 active torsions:
REMARK  status: ('A' for Active; 'I' for Inactive)
REMARK    1  A    between atoms: C_3  and  C_4
REMARK    2  A    between atoms: C_4  and  N_5
REMARK    3  A    between atoms: N_5  and  C_6
REMARK    4  A    between atoms: C_13  and  N_14
REMARK                            x       y       z     vdW  Elec       q    Type
REMARK                         _______ _______ _______ _____ _____    ______ ____
ROOT
ATOM      1  C   UNL     1      43.252   3.632  12.321  0.00  0.00    +0.000 A 
ATOM      2  C   UNL     1      43.819   4.766  12.892  0.00  0.00    +0.000 A 
ATOM      3  C   UNL     1      44.885   5.411  12.254  0.00  0.00    +0.000 A 
ATOM      4  C   UNL     1      45.354   4.908  11.024  0.00  0.00    +0.000 A 
ATOM      5  C   UNL     1      44.819   3.751  10.440  0.00  0.00    +0.000 A 
ATOM      6  C   UNL     1      43.750   3.137  11.115  0.00  0.00    +0.000 A 
ENDROOT
BRANCH   5   7
ATOM      7  N   UNL     1      45.267   3.227   9.237  0.00  0.00    +0.000 N 
ATOM      8  C   UNL     1      45.092   1.816   8.893  0.00  0.00    +0.000 C 
ATOM      9  C   UNL     1      46.324   1.360   8.103  0.00  0.00    +0.000 C 
ATOM     10  C   UNL     1      46.601   2.263   6.899  0.00  0.00    +0.000 C 
ATOM     11  C   UNL     1      46.635   3.738   7.298  0.00  0.00    +0.000 C 
ATOM     12  C   UNL     1      45.384   4.125   8.083  0.00  0.00    +0.000 C 
ENDBRANCH   5   7
BRANCH   3  13
ATOM     13  C   UNL     1      45.540   6.624  12.875  0.00  0.00    +0.000 C 
BRANCH  13  14
ATOM     14  N   UNL     1      46.973   6.406  13.035  0.00  0.00    +0.000 N 
ATOM     15  H   UNL     1      47.514   7.204  12.712  0.00  0.00    +0.000 HD
BRANCH  14  16
ATOM     16  C   UNL     1      47.440   5.903  14.258  0.00  0.00    +0.000 A 
ATOM     17  C   UNL     1      47.053   4.667  14.777  0.00  0.00    +0.000 A 
ATOM     18  C   UNL     1      47.627   4.212  15.956  0.00  0.00    +0.000 A 
ATOM     19  N   UNL     1      48.569   4.888  16.644  0.00  0.00    +0.000 NA
ATOM     20  C   UNL     1      48.966   6.058  16.112  0.00  0.00    +0.000 A 
ATOM     21  C   UNL     1      48.453   6.588  14.936  0.00  0.00    +0.000 A 
ENDBRANCH  14  16
ENDBRANCH  13  14
ENDBRANCH   3  13
TORSDOF 4
ENDMDL
MODEL 6
REMARK VINA RESULT:    -6.529      2.537      3.519
REMARK INTER + INTRA:          -8.778
REMARK INTER:                  -7.992
REMARK INTRA:                  -0.786
REMARK UNBOUND:                -0.722
REMARK  Name = 
REMARK  4 active torsions:
REMARK  status: ('A' for Active; 'I' for Inactive)
REMARK    1  A    between atoms: C_3  and  C_4
REMARK    2  A    between atoms: C_4  and  N_5
REMARK    3  A    between atoms: N_5  and  C_6
REMARK    4  A    between atoms: C_13  and  N_14
REMARK                            x       y       z     vdW  Elec       q    Type
REMARK                         _______ _______ _______ _____ _____    ______ ____
ROOT
ATOM      1  C   UNL     1      46.521   7.133  11.696  0.00  0.00    +0.000 A 
ATOM      2  C   UNL     1      45.492   6.378  11.143  0.00  0.00    +0.000 A 
ATOM      3  C   UNL     1      45.056   5.213  11.785  0.00  0.00    +0.000 A 
ATOM      4  C   UNL     1      45.660   4.834  13.001  0.00  0.00    +0.000 A 
ATOM      5  C   UNL     1      46.717   5.561  13.566  0.00  0.00    +0.000 A 
ATOM      6  C   UNL     1      47.120   6.724  12.888  0.00  0.00    +0.000 A 
ENDROOT
BRANCH   5   7
ATOM      7  N   UNL     1      47.336   5.206  14.755  0.00  0.00    +0.000 N 
ATOM      8  C   UNL     1      47.296   3.838  15.271  0.00  0.00    +0.000 C 
ATOM      9  C   UNL     1      47.212   3.905  16.799  0.00  0.00    +0.000 C 
ATOM     10  C   UNL     1      48.329   4.762  17.400  0.00  0.00    +0.000 C 
ATOM     11  C   UNL     1      48.411   6.132  16.725  0.00  0.00    +0.000 C 
ATOM     12  C   UNL     1      48.489   5.994  15.207  0.00  0.00    +0.000 C 
ENDBRANCH   5   7
BRANCH   3  13
ATOM     13  C   UNL     1      43.965   4.359  11.183  0.00  0.00    +0.000 C 
BRANCH  13  14
ATOM     14  N   UNL     1      43.940   4.507   9.733  0.00  0.00    +0.000 N 
ATOM     15  H   UNL     1      43.957   5.485   9.452  0.00  0.00    +0.000 HD
BRANCH  14  16
ATOM     16  C   UNL     1      44.807   3.716   8.965  0.00  0.00    +0.000 A 
ATOM     17  C   UNL     1      45.729   4.244   8.061  0.00  0.00    +0.000 A 
ATOM     18  C   UNL     1      46.604   3.391   7.401  0.00  0.00    +0.000 A 
ATOM     19  N   UNL     1      46.639   2.056   7.591  0.00  0.00    +0.000 NA
ATOM     20  C   UNL     1      45.777   1.564   8.498  0.00  0.00    +0.000 A 
ATOM     21  C   UNL     1      44.871   2.341   9.208  0.00  0.00    +0.000 A 
ENDBRANCH  14  16
ENDBRANCH  13  14
ENDBRANCH   3  13
TORSDOF 4
ENDMDL
MODEL 7
REMARK VINA RESULT:    -5.790      3.469      7.365
REMARK INTER + INTRA:          -7.866
REMARK INTER:                  -7.127
REMARK INTRA:                  -0.739
REMARK UNBOUND:                -0.722
REMARK  Name = 
REMARK  4 active torsions:
REMARK  status: ('A' for Active; 'I' for Inactive)
REMARK    1  A    between atoms: C_3  and  C_4
REMARK    2  A    between atoms: C_4  and  N_5
REMARK    3  A    between atoms: N_5  and  C_6
REMARK    4  A    between atoms: C_13  and  N_14
REMARK                            x       y       z     vdW  Elec       q    Type
REMARK                         _______ _______ _______ _____ _____    ______ ____
ROOT
ATOM      1  C   UNL     1      46.159   8.684  12.532  0.00  0.00    +0.000 A 
ATOM      2  C   UNL     1      47.252   8.455  13.360  0.00  0.00    +0.000 A 
ATOM      3  C   UNL     1      47.573   7.150  13.751  0.00  0.00    +0.000 A 
ATOM      4  C   UNL     1      46.786   6.080  13.278  0.00  0.00    +0.000 A 
ATOM      5  C   UNL     1      45.662   6.285  12.465  0.00  0.00    +0.000 A 
ATOM      6  C   UNL     1      45.379   7.611  12.096  0.00  0.00    +0.000 A 
ENDROOT
BRANCH   5   7
ATOM      7  N   UNL     1      44.865   5.253  11.994  0.00  0.00    +0.000 N 
ATOM      8  C   UNL     1      43.681   4.794  12.722  0.00  0.00    +0.000 C 
ATOM      9  C   UNL     1      43.568   3.276  12.542  0.00  0.00    +0.000 C 
ATOM     10  C   UNL     1      43.586   2.869  11.066  0.00  0.00    +0.000 C 
ATOM     11  C   UNL     1      44.770   3.491  10.326  0.00  0.00    +0.000 C 
ATOM     12  C   UNL     1      44.827   5.001  10.549  0.00  0.00    +0.000 C 
ENDBRANCH   5   7
BRANCH   3  13
ATOM     13  C   UNL     1      48.735   6.883  14.679  0.00  0.00    +0.000 C 
BRANCH  13  14
ATOM     14  N   UNL     1      48.262   6.656  16.040  0.00  0.00    +0.000 N 
ATOM     15  H   UNL     1      47.307   6.982  16.167  0.00  0.00    +0.000 HD
BRANCH  14  16
ATOM     16  C   UNL     1      48.480   5.399  16.621  0.00  0.00    +0.000 A 
ATOM     17  C   UNL     1      47.635   4.305  16.422  0.00  0.00    +0.000 A 
ATOM     18  C   UNL     1      47.970   3.075  16.973  0.00  0.00    +0.000 A 
ATOM     19  N   UNL     1      49.090   2.852  17.689  0.00  0.00    +0.000 NA
ATOM     20  C   UNL     1      49.919   3.901  17.837  0.00  0.00    +0.000 A 
ATOM     21  C   UNL     1      49.669   5.164  17.318  0.00  0.00    +0.000 A 
ENDBRANCH  14  16
ENDBRANCH  13  14
ENDBRANCH   3  13
TORSDOF 4
ENDMDL
MODEL 8
REMARK VINA RESULT:    -5.604      4.914      7.793
REMARK INTER + INTRA:          -7.636
REMARK INTER:                  -6.908
REMARK INTRA:                  -0.729
REMARK UNBOUND:                -0.722
REMARK  Name = 
REMARK  4 active torsions:
REMARK  status: ('A' for Active; 'I' for Inactive)
REMARK    1  A    between atoms: C_3  and  C_4
REMARK    2  A    between atoms: C_4  and  N_5
REMARK    3  A    between atoms: N_5  and  C_6
REMARK    4  A    between atoms: C_13  and  N_14
REMARK                            x       y       z     vdW  Elec       q    Type
REMARK                         _______ _______ _______ _____ _____    ______ ____
ROOT
ATOM      1  C   UNL     1      48.521   6.852  14.499  0.00  0.00    +0.000 A 
ATOM      2  C   UNL     1      48.546   6.094  15.665  0.00  0.00    +0.000 A 
ATOM      3  C   UNL     1      47.706   4.982  15.795  0.00  0.00    +0.000 A 
ATOM      4  C   UNL     1      46.858   4.635  14.724  0.00  0.00    +0.000 A 
ATOM      5  C   UNL     1      46.792   5.397  13.548  0.00  0.00    +0.000 A 
ATOM      6  C   UNL     1      47.654   6.503  13.461  0.00  0.00    +0.000 A 
ENDROOT
BRANCH   5   7
ATOM      7  N   UNL     1      45.960   5.085  12.484  0.00  0.00    +0.000 N 
ATOM      8  C   UNL     1      44.942   4.038  12.577  0.00  0.00    +0.000 C 
ATOM      9  C   UNL     1      44.851   3.338  11.218  0.00  0.00    +0.000 C 
ATOM     10  C   UNL     1      44.619   4.329  10.074  0.00  0.00    +0.000 C 
ATOM     11  C   UNL     1      45.630   5.475  10.111  0.00  0.00    +0.000 C 
ATOM     12  C   UNL     1      45.673   6.127  11.491  0.00  0.00    +0.000 C 
ENDBRANCH   5   7
BRANCH   3  13
ATOM     13  C   UNL     1      47.692   4.168  17.067  0.00  0.00    +0.000 C 
BRANCH  13  14
ATOM     14  N   UNL     1      48.408   2.912  16.880  0.00  0.00    +0.000 N 
ATOM     15  H   UNL     1      48.234   2.511  15.961  0.00  0.00    +0.000 HD
BRANCH  14  16
ATOM     16  C   UNL     1      49.762   2.855  17.241  0.00  0.00    +0.000 A 
ATOM     17  C   UNL     1      50.408   3.864  17.957  0.00  0.00    +0.000 A 
ATOM     18  C   UNL     1      51.731   3.688  18.341  0.00  0.00    +0.000 A 
ATOM     19  N   UNL     1      52.448   2.576  18.081  0.00  0.00    +0.000 NA
ATOM     20  C   UNL     1      51.802   1.593  17.429  0.00  0.00    +0.000 A 
ATOM     21  C   UNL     1      50.481   1.678  17.012  0.00  0.00    +0.000 A 
ENDBRANCH  14  16
ENDBRANCH  13  14
ENDBRANCH   3  13
TORSDOF 4
ENDMDL
MODEL 9
REMARK VINA RESULT:    -5.264      3.129      7.520
REMARK INTER + INTRA:          -7.218
REMARK INTER:                  -6.337
REMARK INTRA:                  -0.880
REMARK UNBOUND:                -0.722
REMARK  Name = 
REMARK  4 active torsions:
REMARK  status: ('A' for Active; 'I' for Inactive)
REMARK    1  A    between atoms: C_3  and  C_4
REMARK    2  A    between atoms: C_4  and  N_5
REMARK    3  A    between atoms: N_5  and  C_6
REMARK    4  A    between atoms: C_13  and  N_14
REMARK                            x       y       z     vdW  Elec       q    Type
REMARK                         _______ _______ _______ _____ _____    ______ ____
ROOT
ATOM      1  C   UNL     1      45.846   9.248  12.349  0.00  0.00    +0.000 A 
ATOM      2  C   UNL     1      47.231   9.284  12.236  0.00  0.00    +0.000 A 
ATOM      3  C   UNL     1      47.944   8.106  11.989  0.00  0.00    +0.000 A 
ATOM      4  C   UNL     1      47.237   6.896  11.836  0.00  0.00    +0.000 A 
ATOM      5  C   UNL     1      45.843   6.826  11.973  0.00  0.00    +0.000 A 
ATOM      6  C   UNL     1      45.169   8.033  12.219  0.00  0.00    +0.000 A 
ENDROOT
BRANCH   5   7
ATOM      7  N   UNL     1      45.123   5.649  11.838  0.00  0.00    +0.000 N 
ATOM      8  C   UNL     1      45.091   4.899  10.583  0.00  0.00    +0.000 C 
ATOM      9  C   UNL     1      43.693   4.293  10.422  0.00  0.00    +0.000 C 
ATOM     10  C   UNL     1      43.277   3.473  11.646  0.00  0.00    +0.000 C 
ATOM     11  C   UNL     1      43.463   4.263  12.942  0.00  0.00    +0.000 C 
ATOM     12  C   UNL     1      44.873   4.840  13.037  0.00  0.00    +0.000 C 
ENDBRANCH   5   7
BRANCH   3  13
ATOM     13  C   UNL     1      49.453   8.118  11.899  0.00  0.00    +0.000 C 
BRANCH  13  14
ATOM     14  N   UNL     1      50.034   7.276  12.938  0.00  0.00    +0.000 N 
ATOM     15  H   UNL     1      51.004   7.041  12.735  0.00  0.00    +0.000 HD
BRANCH  14  16
ATOM     16  C   UNL     1      49.841   7.639  14.278  0.00  0.00    +0.000 A 
ATOM     17  C   UNL     1      49.173   6.833  15.202  0.00  0.00    +0.000 A 
ATOM     18  C   UNL     1      49.098   7.235  16.529  0.00  0.00    +0.000 A 
ATOM     19  N   UNL     1      49.652   8.368  17.004  0.00  0.00    +0.000 NA
ATOM     20  C   UNL     1      50.332   9.114  16.115  0.00  0.00    +0.000 A 
ATOM     21  C   UNL     1      50.464   8.788  14.772  0.00  0.00    +0.000 A 
ENDBRANCH  14  16
ENDBRANCH  13  14
ENDBRANCH   3  13
TORSDOF 4
ENDMDL
