MODEL 1
REMARK VINA RESULT:    -7.287      0.000      0.000
REMARK INTER + INTRA:         -10.776
REMARK INTER:                  -9.842
REMARK INTRA:                  -0.933
REMARK UNBOUND:                -0.933
REMARK  Name = 
REMARK  7 active torsions:
REMARK  status: ('A' for Active; 'I' for Inactive)
REMARK    1  A    between atoms: C_1  and  O_2
REMARK    2  A    between atoms: O_2  and  C_3
REMARK    3  A    between atoms: C_5  and  C_6
REMARK    4  A    between atoms: C_10  and  N_11
REMARK    5  A    between atoms: N_11  and  C_12
REMARK    6  A    between atoms: C_12  and  C_13
REMARK    7  A    between atoms: C_17  and  C_18
REMARK                            x       y       z     vdW  Elec       q    Type
REMARK                         _______ _______ _______ _____ _____    ______ ____
ROOT
ATOM      1  C   UNL     1      44.282   5.831  11.332  0.00  0.00    +0.000 C 
ATOM      2  C   UNL     1      43.251   5.641  12.426  0.00  0.00    +0.000 C 
ATOM      3  C   UNL     1      43.322   6.953  11.721  0.00  0.00    +0.000 C 
ENDROOT
BRANCH   1   4
ATOM      4  C   UNL     1      45.726   5.974  11.807  0.00  0.00    +0.000 A 
ATOM      5  C   UNL     1      46.652   6.840  11.204  0.00  0.00    +0.000 A 
ATOM      6  C   UNL     1      47.855   7.150  11.836  0.00  0.00    +0.000 A 
ATOM      7  C   UNL     1      48.158   6.582  13.076  0.00  0.00    +0.000 A 
ATOM      8  C   UNL     1      47.292   5.655  13.676  0.00  0.00    +0.000 A 
ATOM      9  C   UNL     1      46.112   5.334  12.994  0.00  0.00    +0.000 A 
BRANCH   8  10
ATOM     10  C   UNL     1      47.516   5.126  15.031  0.00  0.00    +0.000 A 
ATOM     11  C   UNL     1      48.333   5.796  15.949  0.00  0.00    +0.000 A 
ATOM     12  C   UNL     1      48.444   5.341  17.260  0.00  0.00    +0.000 A 
ATOM     13  C   UNL     1      47.722   4.220  17.630  0.00  0.00    +0.000 A 
ATOM     14  N   UNL     1      46.917   3.539  16.789  0.00  0.00    +0.000 NA
ATOM     15  C   UNL     1      46.837   4.006  15.519  0.00  0.00    +0.000 A 
ENDBRANCH   8  10
ENDBRANCH   1   4
BRANCH   1  16
ATOM     16  N   UNL     1      44.160   5.323   9.975  0.00  0.00    +0.000 N 
ATOM     17  H   UNL     1      43.312   5.542   9.463  0.00  0.00    +0.000 HD
BRANCH  16  23
ATOM     18  C   UNL     1      44.561   2.875   9.547  0.00  0.00    +0.000 A 
ATOM     19  C   UNL     1      45.321   1.971   8.781  0.00  0.00    +0.000 A 
ATOM     20  C   UNL     1      46.261   2.436   7.864  0.00  0.00    +0.000 A 
ATOM     21  C   UNL     1      46.409   3.797   7.733  0.00  0.00    +0.000 A 
ATOM     22  N   UNL     1      45.689   4.694   8.438  0.00  0.00    +0.000 NA
ATOM     23  C   UNL     1      44.769   4.250   9.330  0.00  0.00    +0.000 A 
BRANCH  18  25
ATOM     24  C   UNL     1      44.104   2.374  11.838  0.00  0.00    +0.000 C 
ATOM     25  O   UNL     1      43.652   2.455  10.486  0.00  0.00    +0.000 OA
ENDBRANCH  18  25
BRANCH  20  26
ATOM     26  C   UNL     1      47.059   1.540   7.093  0.00  0.00    +0.000 C 
ATOM     27  N   UNL     1      47.713   0.813   6.465  0.00  0.00    +0.000 NA
ENDBRANCH  20  26
ENDBRANCH  16  23
ENDBRANCH   1  16
TORSDOF 6
ENDMDL
MODEL 2
REMARK VINA RESULT:    -6.715      1.860      3.045
REMARK INTER + INTRA:         -10.004
REMARK INTER:                  -9.295
REMARK INTRA:                  -0.708
REMARK UNBOUND:                -0.933
REMARK  Name = 
REMARK  7 active torsions:
REMARK  status: ('A' for Active; 'I' for Inactive)
REMARK    1  A    between atoms: C_1  and  O_2
REMARK    2  A    between atoms: O_2  and  C_3
REMARK    3  A    between atoms: C_5  and  C_6
REMARK    4  A    between atoms: C_10  and  N_11
REMARK    5  A    between atoms: N_11  and  C_12
REMARK    6  A    between atoms: C_12  and  C_13
REMARK    7  A    between atoms: C_17  and  C_18
REMARK                            x       y       z     vdW  Elec       q    Type
REMARK                         _______ _______ _______ _____ _____    ______ ____
ROOT
ATOM      1  C   UNL     1      44.051   5.888  11.243  0.00  0.00    +0.000 C 
ATOM      2  C   UNL     1      42.630   5.552  11.648  0.00  0.00    +0.000 C 
ATOM      3  C   UNL     1      42.995   6.979  11.413  0.00  0.00    +0.000 C 
ENDROOT
BRANCH   1   4
ATOM      4  C   UNL     1      45.095   5.771  12.351  0.00  0.00    +0.000 A 
ATOM      5  C   UNL     1      45.075   4.757  13.322  0.00  0.00    +0.000 A 
ATOM      6  C   UNL     1      46.188   4.520  14.127  0.00  0.00    +0.000 A 
ATOM      7  C   UNL     1      47.333   5.307  13.984  0.00  0.00    +0.000 A 
ATOM      8  C   UNL     1      47.366   6.377  13.076  0.00  0.00    +0.000 A 
ATOM      9  C   UNL     1      46.216   6.613  12.313  0.00  0.00    +0.000 A 
BRANCH   8  10
ATOM     10  C   UNL     1      48.588   7.151  12.811  0.00  0.00    +0.000 A 
ATOM     11  C   UNL     1      48.782   7.813  11.593  0.00  0.00    +0.000 A 
ATOM     12  C   UNL     1      49.892   8.632  11.402  0.00  0.00    +0.000 A 
ATOM     13  C   UNL     1      50.788   8.779  12.446  0.00  0.00    +0.000 A 
ATOM     14  N   UNL     1      50.648   8.169  13.641  0.00  0.00    +0.000 NA
ATOM     15  C   UNL     1      49.560   7.375  13.791  0.00  0.00    +0.000 A 
ENDBRANCH   8  10
ENDBRANCH   1   4
BRANCH   1  16
ATOM     16  N   UNL     1      44.596   5.725   9.904  0.00  0.00    +0.000 N 
ATOM     17  H   UNL     1      44.350   6.419   9.207  0.00  0.00    +0.000 HD
BRANCH  16  23
ATOM     18  C   UNL     1      44.641   3.269   9.357  0.00  0.00    +0.000 A 
ATOM     19  C   UNL     1      45.293   2.297   8.575  0.00  0.00    +0.000 A 
ATOM     20  C   UNL     1      46.341   2.654   7.729  0.00  0.00    +0.000 A 
ATOM     21  C   UNL     1      46.702   3.981   7.683  0.00  0.00    +0.000 A 
ATOM     22  N   UNL     1      46.091   4.943   8.405  0.00  0.00    +0.000 NA
ATOM     23  C   UNL     1      45.067   4.604   9.227  0.00  0.00    +0.000 A 
BRANCH  18  25
ATOM     24  C   UNL     1      43.980   2.178  11.377  0.00  0.00    +0.000 C 
ATOM     25  O   UNL     1      43.629   2.949  10.227  0.00  0.00    +0.000 OA
ENDBRANCH  18  25
BRANCH  20  26
ATOM     26  C   UNL     1      47.033   1.685   6.946  0.00  0.00    +0.000 C 
ATOM     27  N   UNL     1      47.600   0.897   6.307  0.00  0.00    +0.000 NA
ENDBRANCH  20  26
ENDBRANCH  16  23
ENDBRANCH   1  16
TORSDOF 6
ENDMDL
MODEL 3
REMARK VINA RESULT:    -6.705      2.546      7.498
REMARK INTER + INTRA:          -9.991
REMARK INTER:                  -9.093
REMARK INTRA:                  -0.898
REMARK UNBOUND:                -0.933
REMARK  Name = 
REMARK  7 active torsions:
REMARK  status: ('A' for Active; 'I' for Inactive)
REMARK    1  A    between atoms: C_1  and  O_2
REMARK    2  A    between atoms: O_2  and  C_3
REMARK    3  A    between atoms: C_5  and  C_6
REMARK    4  A    between atoms: C_10  and  N_11
REMARK    5  A    between atoms: N_11  and  C_12
REMARK    6  A    between atoms: C_12  and  C_13
REMARK    7  A    between atoms: C_17  and  C_18
REMARK                            x       y       z     vdW  Elec       q    Type
REMARK                         _______ _______ _______ _____ _____    ______ ____
ROOT
ATOM      1  C   UNL     1      46.550   5.624  13.654  0.00  0.00    +0.000 C 
ATOM      2  C   UNL     1      47.759   6.118  12.886  0.00  0.00    +0.000 C 
ATOM      3  C   UNL     1      46.850   7.115  13.520  0.00  0.00    +0.000 C 
ENDROOT
BRANCH   1   4
ATOM      4  C   UNL     1      45.407   5.078  12.802  0.00  0.00    +0.000 A 
ATOM      5  C   UNL     1      44.062   5.423  13.009  0.00  0.00    +0.000 A 
ATOM      6  C   UNL     1      43.097   5.135  12.046  0.00  0.00    +0.000 A 
ATOM      7  C   UNL     1      43.461   4.481  10.866  0.00  0.00    +0.000 A 
ATOM      8  C   UNL     1      44.781   4.055  10.655  0.00  0.00    +0.000 A 
ATOM      9  C   UNL     1      45.717   4.323  11.662  0.00  0.00    +0.000 A 
BRANCH   8  10
ATOM     10  C   UNL     1      45.229   3.472   9.381  0.00  0.00    +0.000 A 
ATOM     11  C   UNL     1      45.677   4.277   8.328  0.00  0.00    +0.000 A 
ATOM     12  C   UNL     1      46.202   3.703   7.173  0.00  0.00    +0.000 A 
ATOM     13  C   UNL     1      46.276   2.323   7.099  0.00  0.00    +0.000 A 
ATOM     14  N   UNL     1      45.863   1.500   8.085  0.00  0.00    +0.000 NA
ATOM     15  C   UNL     1      45.353   2.091   9.192  0.00  0.00    +0.000 A 
ENDBRANCH   8  10
ENDBRANCH   1   4
BRANCH   1  16
ATOM     16  N   UNL     1      46.586   5.081  15.003  0.00  0.00    +0.000 N 
ATOM     17  H   UNL     1      45.955   5.479  15.689  0.00  0.00    +0.000 HD
BRANCH  16  23
ATOM     18  C   UNL     1      48.456   4.899  16.679  0.00  0.00    +0.000 A 
ATOM     19  C   UNL     1      49.400   4.011  17.227  0.00  0.00    +0.000 A 
ATOM     20  C   UNL     1      49.472   2.692  16.785  0.00  0.00    +0.000 A 
ATOM     21  C   UNL     1      48.587   2.295  15.810  0.00  0.00    +0.000 A 
ATOM     22  N   UNL     1      47.659   3.112  15.272  0.00  0.00    +0.000 NA
ATOM     23  C   UNL     1      47.579   4.397  15.699  0.00  0.00    +0.000 A 
BRANCH  18  25
ATOM     24  C   UNL     1      49.202   7.147  16.360  0.00  0.00    +0.000 C 
ATOM     25  O   UNL     1      48.380   6.214  17.064  0.00  0.00    +0.000 OA
ENDBRANCH  18  25
BRANCH  20  26
ATOM     26  C   UNL     1      50.435   1.780  17.307  0.00  0.00    +0.000 C 
ATOM     27  N   UNL     1      51.218   1.036  17.737  0.00  0.00    +0.000 NA
ENDBRANCH  20  26
ENDBRANCH  16  23
ENDBRANCH   1  16
TORSDOF 6
ENDMDL
MODEL 4
REMARK VINA RESULT:    -6.517      3.060      5.723
REMARK INTER + INTRA:          -9.736
REMARK INTER:                  -8.842
REMARK INTRA:                  -0.894
REMARK UNBOUND:                -0.933
REMARK  Name = 
REMARK  7 active torsions:
REMARK  status: ('A' for Active; 'I' for Inactive)
REMARK    1  A    between atoms: C_1  and  O_2
REMARK    2  A    between atoms: O_2  and  C_3
REMARK    3  A    between atoms: C_5  and  C_6
REMARK    4  A    between atoms: C_10  and  N_11
REMARK    5  A    between atoms: N_11  and  C_12
REMARK    6  A    between atoms: C_12  and  C_13
REMARK    7  A    between atoms: C_17  and  C_18
REMARK                            x       y       z     vdW  Elec       q    Type
REMARK                         _______ _______ _______ _____ _____    ______ ____
ROOT
ATOM      1  C   UNL     1      44.838   6.313  11.770  0.00  0.00    +0.000 C 
ATOM      2  C   UNL     1      45.518   5.447  12.812  0.00  0.00    +0.000 C 
ATOM      3  C   UNL     1      44.050   5.687  12.919  0.00  0.00    +0.000 C 
ENDROOT
BRANCH   1   4
ATOM      4  C   UNL     1      45.121   7.810  11.873  0.00  0.00    +0.000 A 
ATOM      5  C   UNL     1      46.323   8.332  12.376  0.00  0.00    +0.000 A 
ATOM      6  C   UNL     1      46.651   9.673  12.188  0.00  0.00    +0.000 A 
ATOM      7  C   UNL     1      45.771  10.519  11.509  0.00  0.00    +0.000 A 
ATOM      8  C   UNL     1      44.527  10.052  11.056  0.00  0.00    +0.000 A 
ATOM      9  C   UNL     1      44.212   8.709  11.298  0.00  0.00    +0.000 A 
BRANCH   8  10
ATOM     10  C   UNL     1      43.626  10.875  10.234  0.00  0.00    +0.000 A 
ATOM     11  C   UNL     1      44.038  11.403   9.006  0.00  0.00    +0.000 A 
ATOM     12  C   UNL     1      43.137  12.085   8.191  0.00  0.00    +0.000 A 
ATOM     13  C   UNL     1      41.830  12.216   8.623  0.00  0.00    +0.000 A 
ATOM     14  N   UNL     1      41.377  11.723   9.794  0.00  0.00    +0.000 NA
ATOM     15  C   UNL     1      42.282  11.071  10.565  0.00  0.00    +0.000 A 
ENDBRANCH   8  10
ENDBRANCH   1   4
BRANCH   1  16
ATOM     16  N   UNL     1      44.477   5.876  10.431  0.00  0.00    +0.000 N 
ATOM     17  H   UNL     1      43.604   6.215  10.043  0.00  0.00    +0.000 HD
BRANCH  16  23
ATOM     18  C   UNL     1      44.347   3.453   9.759  0.00  0.00    +0.000 A 
ATOM     19  C   UNL     1      44.916   2.482   8.913  0.00  0.00    +0.000 A 
ATOM     20  C   UNL     1      45.966   2.815   8.060  0.00  0.00    +0.000 A 
ATOM     21  C   UNL     1      46.413   4.116   8.071  0.00  0.00    +0.000 A 
ATOM     22  N   UNL     1      45.883   5.076   8.856  0.00  0.00    +0.000 NA
ATOM     23  C   UNL     1      44.858   4.763   9.686  0.00  0.00    +0.000 A 
BRANCH  18  25
ATOM     24  C   UNL     1      43.677   2.361  11.776  0.00  0.00    +0.000 C 
ATOM     25  O   UNL     1      43.336   3.155  10.639  0.00  0.00    +0.000 OA
ENDBRANCH  18  25
BRANCH  20  26
ATOM     26  C   UNL     1      46.574   1.844   7.211  0.00  0.00    +0.000 C 
ATOM     27  N   UNL     1      47.068   1.054   6.516  0.00  0.00    +0.000 NA
ENDBRANCH  20  26
ENDBRANCH  16  23
ENDBRANCH   1  16
TORSDOF 6
ENDMDL
MODEL 5
REMARK VINA RESULT:    -6.238      3.539      6.119
REMARK INTER + INTRA:          -9.359
REMARK INTER:                  -8.045
REMARK INTRA:                  -1.314
REMARK UNBOUND:                -0.933
REMARK  Name = 
REMARK  7 active torsions:
REMARK  status: ('A' for Active; 'I' for Inactive)
REMARK    1  A    between atoms: C_1  and  O_2
REMARK    2  A    between atoms: O_2  and  C_3
REMARK    3  A    between atoms: C_5  and  C_6
REMARK    4  A    between atoms: C_10  and  N_11
REMARK    5  A    between atoms: N_11  and  C_12
REMARK    6  A    between atoms: C_12  and  C_13
REMARK    7  A    between atoms: C_17  and  C_18
REMARK                            x       y       z     vdW  Elec       q    Type
REMARK                         _______ _______ _______ _____ _____    ______ ____
ROOT
ATOM      1  C   UNL     1      48.991   7.624  15.700  0.00  0.00    +0.000 C 
ATOM      2  C   UNL     1      48.462   9.032  15.888  0.00  0.00    +0.000 C 
ATOM      3  C   UNL     1      49.881   8.844  15.472  0.00  0.00    +0.000 C 
ENDROOT
BRANCH   1   4
ATOM      4  C   UNL     1      49.231   6.835  16.986  0.00  0.00    +0.000 A 
ATOM      5  C   UNL     1      48.483   7.030  18.158  0.00  0.00    +0.000 A 
ATOM      6  C   UNL     1      48.539   6.107  19.200  0.00  0.00    +0.000 A 
ATOM      7  C   UNL     1      49.360   4.982  19.093  0.00  0.00    +0.000 A 
ATOM      8  C   UNL     1      50.178   4.790  17.969  0.00  0.00    +0.000 A 
ATOM      9  C   UNL     1      50.129   5.758  16.959  0.00  0.00    +0.000 A 
BRANCH   8  10
ATOM     10  C   UNL     1      50.964   3.563  17.763  0.00  0.00    +0.000 A 
ATOM     11  C   UNL     1      52.287   3.462  18.208  0.00  0.00    +0.000 A 
ATOM     12  C   UNL     1      52.978   2.257  18.104  0.00  0.00    +0.000 A 
ATOM     13  C   UNL     1      52.320   1.167  17.561  0.00  0.00    +0.000 A 
ATOM     14  N   UNL     1      51.046   1.207  17.121  0.00  0.00    +0.000 NA
ATOM     15  C   UNL     1      50.405   2.397  17.231  0.00  0.00    +0.000 A 
ENDBRANCH   8  10
ENDBRANCH   1   4
BRANCH   1  16
ATOM     16  N   UNL     1      48.737   6.787  14.538  0.00  0.00    +0.000 N 
ATOM     17  H   UNL     1      49.418   6.803  13.787  0.00  0.00    +0.000 HD
BRANCH  16  23
ATOM     18  C   UNL     1      47.017   4.974  14.240  0.00  0.00    +0.000 A 
ATOM     19  C   UNL     1      45.815   4.653  13.581  0.00  0.00    +0.000 A 
ATOM     20  C   UNL     1      45.212   5.570  12.722  0.00  0.00    +0.000 A 
ATOM     21  C   UNL     1      45.825   6.790  12.555  0.00  0.00    +0.000 A 
ATOM     22  N   UNL     1      46.968   7.139  13.181  0.00  0.00    +0.000 NA
ATOM     23  C   UNL     1      47.560   6.254  14.021  0.00  0.00    +0.000 A 
BRANCH  18  25
ATOM     24  C   UNL     1      47.068   3.837  16.341  0.00  0.00    +0.000 C 
ATOM     25  O   UNL     1      47.659   4.084  15.064  0.00  0.00    +0.000 OA
ENDBRANCH  18  25
BRANCH  20  26
ATOM     26  C   UNL     1      44.008   5.260  12.025  0.00  0.00    +0.000 C 
ATOM     27  N   UNL     1      43.029   5.006  11.452  0.00  0.00    +0.000 NA
ENDBRANCH  20  26
ENDBRANCH  16  23
ENDBRANCH   1  16
TORSDOF 6
ENDMDL
MODEL 6
REMARK VINA RESULT:    -6.144      3.201      8.065
REMARK INTER + INTRA:          -9.232
REMARK INTER:                  -8.249
REMARK INTRA:                  -0.983
REMARK UNBOUND:                -0.933
REMARK  Name = 
REMARK  7 active torsions:
REMARK  status: ('A' for Active; 'I' for Inactive)
REMARK    1  A    between atoms: C_1  and  O_2
REMARK    2  A    between atoms: O_2  and  C_3
REMARK    3  A    between atoms: C_5  and  C_6
REMARK    4  A    between atoms: C_10  and  N_11
REMARK    5  A    between atoms: N_11  and  C_12
REMARK    6  A    between atoms: C_12  and  C_13
REMARK    7  A    between atoms: C_17  and  C_18
REMARK                            x       y       z     vdW  Elec       q    Type
REMARK                         _______ _______ _______ _____ _____    ______ ____
ROOT
ATOM      1  C   UNL     1      49.352   7.707  12.734  0.00  0.00    +0.000 C 
ATOM      2  C   UNL     1      50.015   7.695  11.371  0.00  0.00    +0.000 C 
ATOM      3  C   UNL     1      49.943   8.978  12.127  0.00  0.00    +0.000 C 
ENDROOT
BRANCH   1   4
ATOM      4  C   UNL     1      47.830   7.591  12.726  0.00  0.00    +0.000 A 
ATOM      5  C   UNL     1      46.980   8.592  13.222  0.00  0.00    +0.000 A 
ATOM      6  C   UNL     1      45.616   8.573  12.939  0.00  0.00    +0.000 A 
ATOM      7  C   UNL     1      45.077   7.541  12.167  0.00  0.00    +0.000 A 
ATOM      8  C   UNL     1      45.881   6.483  11.715  0.00  0.00    +0.000 A 
ATOM      9  C   UNL     1      47.239   6.511  12.054  0.00  0.00    +0.000 A 
BRANCH   8  10
ATOM     10  C   UNL     1      45.379   5.443  10.803  0.00  0.00    +0.000 A 
ATOM     11  C   UNL     1      45.794   5.381   9.469  0.00  0.00    +0.000 A 
ATOM     12  C   UNL     1      45.397   4.325   8.652  0.00  0.00    +0.000 A 
ATOM     13  C   UNL     1      44.591   3.340   9.197  0.00  0.00    +0.000 A 
ATOM     14  N   UNL     1      44.166   3.347  10.477  0.00  0.00    +0.000 NA
ATOM     15  C   UNL     1      44.567   4.392  11.242  0.00  0.00    +0.000 A 
ENDBRANCH   8  10
ENDBRANCH   1   4
BRANCH   1  16
ATOM     16  N   UNL     1      49.969   7.236  13.964  0.00  0.00    +0.000 N 
ATOM     17  H   UNL     1      50.750   6.594  13.885  0.00  0.00    +0.000 HD
BRANCH  16  23
ATOM     18  C   UNL     1      49.491   8.131  16.268  0.00  0.00    +0.000 A 
ATOM     19  C   UNL     1      48.961   7.788  17.526  0.00  0.00    +0.000 A 
ATOM     20  C   UNL     1      48.477   6.503  17.765  0.00  0.00    +0.000 A 
ATOM     21  C   UNL     1      48.530   5.597  16.731  0.00  0.00    +0.000 A 
ATOM     22  N   UNL     1      49.016   5.893  15.508  0.00  0.00    +0.000 NA
ATOM     23  C   UNL     1      49.485   7.142  15.266  0.00  0.00    +0.000 A 
BRANCH  18  25
ATOM     24  C   UNL     1      49.084  10.401  15.645  0.00  0.00    +0.000 C 
ATOM     25  O   UNL     1      50.009   9.375  16.006  0.00  0.00    +0.000 OA
ENDBRANCH  18  25
BRANCH  20  26
ATOM     26  C   UNL     1      47.958   6.125  19.037  0.00  0.00    +0.000 C 
ATOM     27  N   UNL     1      47.533   5.822  20.075  0.00  0.00    +0.000 NA
ENDBRANCH  20  26
ENDBRANCH  16  23
ENDBRANCH   1  16
TORSDOF 6
ENDMDL
MODEL 7
REMARK VINA RESULT:    -6.136      3.536      6.003
REMARK INTER + INTRA:          -9.221
REMARK INTER:                  -8.128
REMARK INTRA:                  -1.093
REMARK UNBOUND:                -0.933
REMARK  Name = 
REMARK  7 active torsions:
REMARK  status: ('A' for Active; 'I' for Inactive)
REMARK    1  A    between atoms: C_1  and  O_2
REMARK    2  A    between atoms: O_2  and  C_3
REMARK    3  A    between atoms: C_5  and  C_6
REMARK    4  A    between atoms: C_10  and  N_11
REMARK    5  A    between atoms: N_11  and  C_12
REMARK    6  A    between atoms: C_12  and  C_13
REMARK    7  A    between atoms: C_17  and  C_18
REMARK                            x       y       z     vdW  Elec       q    Type
REMARK                         _______ _______ _______ _____ _____    ______ ____
ROOT
ATOM      1  C   UNL     1      48.994   7.712  15.374  0.00  0.00    +0.000 C 
ATOM      2  C   UNL     1      48.420   9.109  15.495  0.00  0.00    +0.000 C 
ATOM      3  C   UNL     1      49.865   8.949  15.165  0.00  0.00    +0.000 C 
ENDROOT
BRANCH   1   4
ATOM      4  C   UNL     1      49.180   6.961  16.691  0.00  0.00    +0.000 A 
ATOM      5  C   UNL     1      48.415   7.223  17.839  0.00  0.00    +0.000 A 
ATOM      6  C   UNL     1      48.418   6.336  18.914  0.00  0.00    +0.000 A 
ATOM      7  C   UNL     1      49.200   5.180  18.863  0.00  0.00    +0.000 A 
ATOM      8  C   UNL     1      50.034   4.920  17.764  0.00  0.00    +0.000 A 
ATOM      9  C   UNL     1      50.039   5.854  16.720  0.00  0.00    +0.000 A 
BRANCH   8  10
ATOM     10  C   UNL     1      50.780   3.661  17.618  0.00  0.00    +0.000 A 
ATOM     11  C   UNL     1      52.112   3.550  18.033  0.00  0.00    +0.000 A 
ATOM     12  C   UNL     1      52.766   2.321  17.990  0.00  0.00    +0.000 A 
ATOM     13  C   UNL     1      52.064   1.219  17.536  0.00  0.00    +0.000 A 
ATOM     14  N   UNL     1      50.779   1.267  17.129  0.00  0.00    +0.000 NA
ATOM     15  C   UNL     1      50.175   2.479  17.178  0.00  0.00    +0.000 A 
ENDBRANCH   8  10
ENDBRANCH   1   4
BRANCH   1  16
ATOM     16  N   UNL     1      48.829   6.841  14.221  0.00  0.00    +0.000 N 
ATOM     17  H   UNL     1      49.494   6.931  13.462  0.00  0.00    +0.000 HD
BRANCH  16  23
ATOM     18  C   UNL     1      46.709   6.664  12.875  0.00  0.00    +0.000 A 
ATOM     19  C   UNL     1      45.663   5.790  12.522  0.00  0.00    +0.000 A 
ATOM     20  C   UNL     1      45.626   4.491  13.026  0.00  0.00    +0.000 A 
ATOM     21  C   UNL     1      46.645   4.100  13.863  0.00  0.00    +0.000 A 
ATOM     22  N   UNL     1      47.671   4.903  14.211  0.00  0.00    +0.000 NA
ATOM     23  C   UNL     1      47.717   6.167  13.722  0.00  0.00    +0.000 A 
BRANCH  18  25
ATOM     24  C   UNL     1      45.748   8.851  12.897  0.00  0.00    +0.000 C 
ATOM     25  O   UNL     1      46.761   7.960  12.428  0.00  0.00    +0.000 OA
ENDBRANCH  18  25
BRANCH  20  26
ATOM     26  C   UNL     1      44.565   3.595  12.703  0.00  0.00    +0.000 C 
ATOM     27  N   UNL     1      43.698   2.869  12.437  0.00  0.00    +0.000 NA
ENDBRANCH  20  26
ENDBRANCH  16  23
ENDBRANCH   1  16
TORSDOF 6
ENDMDL
MODEL 8
REMARK VINA RESULT:    -6.105      3.018      7.950
REMARK INTER + INTRA:          -9.179
REMARK INTER:                  -8.226
REMARK INTRA:                  -0.953
REMARK UNBOUND:                -0.933
REMARK  Name = 
REMARK  7 active torsions:
REMARK  status: ('A' for Active; 'I' for Inactive)
REMARK    1  A    between atoms: C_1  and  O_2
REMARK    2  A    between atoms: O_2  and  C_3
REMARK    3  A    between atoms: C_5  and  C_6
REMARK    4  A    between atoms: C_10  and  N_11
REMARK    5  A    between atoms: N_11  and  C_12
REMARK    6  A    between atoms: C_12  and  C_13
REMARK    7  A    between atoms: C_17  and  C_18
REMARK                            x       y       z     vdW  Elec       q    Type
REMARK                         _______ _______ _______ _____ _____    ______ ____
ROOT
ATOM      1  C   UNL     1      49.335   7.701  12.795  0.00  0.00    +0.000 C 
ATOM      2  C   UNL     1      50.021   7.678  11.444  0.00  0.00    +0.000 C 
ATOM      3  C   UNL     1      49.929   8.969  12.185  0.00  0.00    +0.000 C 
ENDROOT
BRANCH   1   4
ATOM      4  C   UNL     1      47.814   7.576  12.763  0.00  0.00    +0.000 A 
ATOM      5  C   UNL     1      46.949   8.598  13.187  0.00  0.00    +0.000 A 
ATOM      6  C   UNL     1      45.592   8.557  12.877  0.00  0.00    +0.000 A 
ATOM      7  C   UNL     1      45.073   7.480  12.153  0.00  0.00    +0.000 A 
ATOM      8  C   UNL     1      45.891   6.403  11.776  0.00  0.00    +0.000 A 
ATOM      9  C   UNL     1      47.242   6.458  12.140  0.00  0.00    +0.000 A 
BRANCH   8  10
ATOM     10  C   UNL     1      45.412   5.312  10.913  0.00  0.00    +0.000 A 
ATOM     11  C   UNL     1      45.655   5.312   9.535  0.00  0.00    +0.000 A 
ATOM     12  C   UNL     1      45.293   4.218   8.753  0.00  0.00    +0.000 A 
ATOM     13  C   UNL     1      44.698   3.135   9.374  0.00  0.00    +0.000 A 
ATOM     14  N   UNL     1      44.444   3.079  10.698  0.00  0.00    +0.000 NA
ATOM     15  C   UNL     1      44.804   4.163  11.428  0.00  0.00    +0.000 A 
ENDBRANCH   8  10
ENDBRANCH   1   4
BRANCH   1  16
ATOM     16  N   UNL     1      49.934   7.246  14.040  0.00  0.00    +0.000 N 
ATOM     17  H   UNL     1      50.644   6.524  13.987  0.00  0.00    +0.000 HD
BRANCH  16  23
ATOM     18  C   UNL     1      48.773   6.287  16.057  0.00  0.00    +0.000 A 
ATOM     19  C   UNL     1      48.393   6.568  17.383  0.00  0.00    +0.000 A 
ATOM     20  C   UNL     1      48.686   7.804  17.957  0.00  0.00    +0.000 A 
ATOM     21  C   UNL     1      49.362   8.723  17.187  0.00  0.00    +0.000 A 
ATOM     22  N   UNL     1      49.755   8.484  15.920  0.00  0.00    +0.000 NA
ATOM     23  C   UNL     1      49.477   7.283  15.355  0.00  0.00    +0.000 A 
BRANCH  18  25
ATOM     24  C   UNL     1      47.278   4.433  15.870  0.00  0.00    +0.000 C 
ATOM     25  O   UNL     1      48.470   5.096  15.447  0.00  0.00    +0.000 OA
ENDBRANCH  18  25
BRANCH  20  26
ATOM     26  C   UNL     1      48.291   8.121  19.290  0.00  0.00    +0.000 C 
ATOM     27  N   UNL     1      47.966   8.377  20.375  0.00  0.00    +0.000 NA
ENDBRANCH  20  26
ENDBRANCH  16  23
ENDBRANCH   1  16
TORSDOF 6
ENDMDL
MODEL 9
REMARK VINA RESULT:    -6.033      3.519      7.234
REMARK INTER + INTRA:          -9.083
REMARK INTER:                  -7.906
REMARK INTRA:                  -1.176
REMARK UNBOUND:                -0.933
REMARK  Name = 
REMARK  7 active torsions:
REMARK  status: ('A' for Active; 'I' for Inactive)
REMARK    1  A    between atoms: C_1  and  O_2
REMARK    2  A    between atoms: O_2  and  C_3
REMARK    3  A    between atoms: C_5  and  C_6
REMARK    4  A    between atoms: C_10  and  N_11
REMARK    5  A    between atoms: N_11  and  C_12
REMARK    6  A    between atoms: C_12  and  C_13
REMARK    7  A    between atoms: C_17  and  C_18
REMARK                            x       y       z     vdW  Elec       q    Type
REMARK                         _______ _______ _______ _____ _____    ______ ____
ROOT
ATOM      1  C   UNL     1      45.959   5.089  13.057  0.00  0.00    +0.000 C 
ATOM      2  C   UNL     1      44.526   4.634  13.247  0.00  0.00    +0.000 C 
ATOM      3  C   UNL     1      45.291   4.138  12.067  0.00  0.00    +0.000 C 
ENDROOT
BRANCH   1   4
ATOM      4  C   UNL     1      46.135   6.536  12.600  0.00  0.00    +0.000 A 
ATOM      5  C   UNL     1      45.176   7.536  12.829  0.00  0.00    +0.000 A 
ATOM      6  C   UNL     1      45.495   8.881  12.655  0.00  0.00    +0.000 A 
ATOM      7  C   UNL     1      46.775   9.246  12.233  0.00  0.00    +0.000 A 
ATOM      8  C   UNL     1      47.738   8.273  11.923  0.00  0.00    +0.000 A 
ATOM      9  C   UNL     1      47.371   6.930  12.068  0.00  0.00    +0.000 A 
BRANCH   8  10
ATOM     10  C   UNL     1      49.130   8.615  11.591  0.00  0.00    +0.000 A 
ATOM     11  C   UNL     1      49.552   9.946  11.504  0.00  0.00    +0.000 A 
ATOM     12  C   UNL     1      50.896  10.250  11.299  0.00  0.00    +0.000 A 
ATOM     13  C   UNL     1      51.797   9.206  11.193  0.00  0.00    +0.000 A 
ATOM     14  N   UNL     1      51.446   7.906  11.274  0.00  0.00    +0.000 NA
ATOM     15  C   UNL     1      50.130   7.646  11.468  0.00  0.00    +0.000 A 
ENDBRANCH   8  10
ENDBRANCH   1   4
BRANCH   1  16
ATOM     16  N   UNL     1      47.103   4.561  13.783  0.00  0.00    +0.000 N 
ATOM     17  H   UNL     1      47.533   3.713  13.433  0.00  0.00    +0.000 HD
BRANCH  16  23
ATOM     18  C   UNL     1      48.460   5.640  15.609  0.00  0.00    +0.000 A 
ATOM     19  C   UNL     1      48.733   5.598  16.989  0.00  0.00    +0.000 A 
ATOM     20  C   UNL     1      48.108   4.659  17.807  0.00  0.00    +0.000 A 
ATOM     21  C   UNL     1      47.217   3.791  17.219  0.00  0.00    +0.000 A 
ATOM     22  N   UNL     1      46.917   3.811  15.904  0.00  0.00    +0.000 NA
ATOM     23  C   UNL     1      47.518   4.724  15.102  0.00  0.00    +0.000 A 
BRANCH  18  25
ATOM     24  C   UNL     1      50.044   7.409  15.346  0.00  0.00    +0.000 C 
ATOM     25  O   UNL     1      49.082   6.526  14.766  0.00  0.00    +0.000 OA
ENDBRANCH  18  25
BRANCH  20  26
ATOM     26  C   UNL     1      48.387   4.581  19.203  0.00  0.00    +0.000 C 
ATOM     27  N   UNL     1      48.617   4.513  20.340  0.00  0.00    +0.000 NA
ENDBRANCH  20  26
ENDBRANCH  16  23
ENDBRANCH   1  16
TORSDOF 6
ENDMDL
