MODEL 1
REMARK VINA RESULT:    -7.704      0.000      0.000
REMARK INTER + INTRA:         -14.954
REMARK INTER:                 -13.784
REMARK INTRA:                  -1.171
REMARK UNBOUND:                -1.171
REMARK  Name = 
REMARK  15 active torsions:
REMARK  status: ('A' for Active; 'I' for Inactive)
REMARK    1  A    between atoms: N_1  and  CA_2
REMARK    2  A    between atoms: CA_2  and  C_3
REMARK    3  A    between atoms: CA_2  and  C_5
REMARK    4  A    between atoms: C_3  and  O_4
REMARK    5  A    between atoms: C_9  and  C_10
REMARK    6  A    between atoms: C_10  and  N_11
REMARK    7  A    between atoms: N_11  and  C_12
REMARK    8  A    between atoms: N_11  and  C_15
REMARK    9  A    between atoms: C_12  and  C_13
REMARK   10  A    between atoms: C_13  and  O_14
REMARK   11  A    between atoms: C_15  and  C_16
REMARK   12  A    between atoms: C_19  and  C_20
REMARK   13  A    between atoms: C_20  and  N_21
REMARK   14  A    between atoms: N_21  and  C_22
REMARK   15  A    between atoms: C_22  and  C_23
REMARK                            x       y       z     vdW  Elec       q    Type
REMARK                         _______ _______ _______ _____ _____    ______ ____
ROOT
ATOM      1  N   UNL     1      47.281   8.197  13.074  0.00  0.00    +0.000 NA
ENDROOT
BRANCH   1   2
ATOM      2  C   UNL     1      47.702   6.777  13.150  0.00  0.00    +0.000 C 
BRANCH   2   7
ATOM      3  C   UNL     1      47.770   4.571  16.273  0.00  0.00    +0.000 C 
ATOM      4  C   UNL     1      48.489   5.525  17.131  0.00  0.00    +0.000 C 
ATOM      5  N   UNL     1      48.991   6.646  16.726  0.00  0.00    +0.000 NA
ATOM      6  C   UNL     1      48.779   6.987  15.413  0.00  0.00    +0.000 C 
ATOM      7  C   UNL     1      48.124   6.264  14.489  0.00  0.00    +0.000 C 
ATOM      8  C   UNL     1      47.677   4.902  14.845  0.00  0.00    +0.000 C 
ATOM      9  O   UNL     1      47.276   4.098  14.012  0.00  0.00    +0.000 OA
BRANCH   3  10
ATOM     10  CA  UNL     1      47.606   3.135  16.660  0.00  0.00    +0.000 C 
BRANCH  10  11
ATOM     11  N   UNL     1      46.622   2.913  17.730  0.00  0.00    +0.000 NA
ATOM     12  H1  UNL     1      47.077   3.040  18.638  0.00  0.00    +0.000 HD
ATOM     13  H2  UNL     1      46.239   1.974  17.713  0.00  0.00    +0.000 HD
ENDBRANCH  10  11
BRANCH  10  14
ATOM     14  C   UNL     1      48.994   2.543  17.003  0.00  0.00    +0.000 C 
BRANCH  14  15
ATOM     15  O   UNL     1      49.509   1.742  15.939  0.00  0.00    +0.000 OA
ATOM     16  H   UNL     1      48.945   1.910  15.164  0.00  0.00    +0.000 HD
ENDBRANCH  14  15
ENDBRANCH  10  14
ENDBRANCH   3  10
ENDBRANCH   2   7
ENDBRANCH   1   2
BRANCH   1  17
ATOM     17  C   UNL     1      48.152   8.934  12.126  0.00  0.00    +0.000 C 
BRANCH  17  18
ATOM     18  C   UNL     1      47.961  10.464  12.138  0.00  0.00    +0.000 C 
BRANCH  18  19
ATOM     19  O   UNL     1      47.891  10.971  13.466  0.00  0.00    +0.000 OA
ATOM     20  H   UNL     1      48.294  11.859  13.438  0.00  0.00    +0.000 HD
ENDBRANCH  18  19
ENDBRANCH  17  18
ENDBRANCH   1  17
BRANCH   1  21
ATOM     21  C   UNL     1      45.859   8.241  12.653  0.00  0.00    +0.000 C 
BRANCH  21  22
ATOM     22  C   UNL     1      45.348   6.880  12.222  0.00  0.00    +0.000 A 
ATOM     23  C   UNL     1      45.665   6.386  10.949  0.00  0.00    +0.000 A 
ATOM     24  C   UNL     1      45.135   5.166  10.514  0.00  0.00    +0.000 A 
ATOM     25  C   UNL     1      44.295   4.410  11.345  0.00  0.00    +0.000 A 
ATOM     26  C   UNL     1      44.005   4.899  12.631  0.00  0.00    +0.000 A 
ATOM     27  C   UNL     1      44.529   6.121  13.067  0.00  0.00    +0.000 A 
BRANCH  25  28
ATOM     28  C   UNL     1      43.697   3.117  10.858  0.00  0.00    +0.000 C 
BRANCH  28  29
ATOM     29  N   UNL     1      43.997   2.917   9.446  0.00  0.00    +0.000 NA
ATOM     30  H   UNL     1      44.431   3.758   9.070  0.00  0.00    +0.000 HD
BRANCH  29  31
ATOM     31  C   UNL     1      44.887   1.781   9.231  0.00  0.00    +0.000 C 
BRANCH  31  32
ATOM     32  C   UNL     1      45.842   2.059   8.088  0.00  0.00    +0.000 A 
ATOM     33  C   UNL     1      45.850   3.286   7.427  0.00  0.00    +0.000 A 
ATOM     34  C   UNL     1      46.752   3.525   6.383  0.00  0.00    +0.000 A 
ATOM     35  C   UNL     1      47.649   2.535   5.996  0.00  0.00    +0.000 A 
ATOM     36  C   UNL     1      47.648   1.297   6.641  0.00  0.00    +0.000 A 
ATOM     37  C   UNL     1      46.750   1.062   7.685  0.00  0.00    +0.000 A 
ENDBRANCH  31  32
ENDBRANCH  29  31
ENDBRANCH  28  29
ENDBRANCH  25  28
ENDBRANCH  21  22
ENDBRANCH   1  21
TORSDOF 15
ENDMDL
MODEL 2
REMARK VINA RESULT:    -7.513      1.909      2.370
REMARK INTER + INTRA:         -14.613
REMARK INTER:                 -12.730
REMARK INTRA:                  -1.883
REMARK UNBOUND:                -1.171
REMARK  Name = 
REMARK  15 active torsions:
REMARK  status: ('A' for Active; 'I' for Inactive)
REMARK    1  A    between atoms: N_1  and  CA_2
REMARK    2  A    between atoms: CA_2  and  C_3
REMARK    3  A    between atoms: CA_2  and  C_5
REMARK    4  A    between atoms: C_3  and  O_4
REMARK    5  A    between atoms: C_9  and  C_10
REMARK    6  A    between atoms: C_10  and  N_11
REMARK    7  A    between atoms: N_11  and  C_12
REMARK    8  A    between atoms: N_11  and  C_15
REMARK    9  A    between atoms: C_12  and  C_13
REMARK   10  A    between atoms: C_13  and  O_14
REMARK   11  A    between atoms: C_15  and  C_16
REMARK   12  A    between atoms: C_19  and  C_20
REMARK   13  A    between atoms: C_20  and  N_21
REMARK   14  A    between atoms: N_21  and  C_22
REMARK   15  A    between atoms: C_22  and  C_23
REMARK                            x       y       z     vdW  Elec       q    Type
REMARK                         _______ _______ _______ _____ _____    ______ ____
ROOT
ATOM      1  N   UNL     1      48.548   8.257  14.558  0.00  0.00    +0.000 NA
ENDROOT
BRANCH   1   2
ATOM      2  C   UNL     1      49.491   8.083  15.689  0.00  0.00    +0.000 C 
BRANCH   2   7
ATOM      3  C   UNL     1      48.190   5.398  18.080  0.00  0.00    +0.000 C 
ATOM      4  C   UNL     1      47.511   6.318  19.006  0.00  0.00    +0.000 C 
ATOM      5  N   UNL     1      47.579   7.608  18.942  0.00  0.00    +0.000 NA
ATOM      6  C   UNL     1      48.288   8.146  17.896  0.00  0.00    +0.000 C 
ATOM      7  C   UNL     1      48.946   7.471  16.939  0.00  0.00    +0.000 C 
ATOM      8  C   UNL     1      49.049   6.002  17.054  0.00  0.00    +0.000 C 
ATOM      9  O   UNL     1      49.807   5.335  16.360  0.00  0.00    +0.000 OA
BRANCH   3  10
ATOM     10  CA  UNL     1      48.448   3.969  18.442  0.00  0.00    +0.000 C 
BRANCH  10  11
ATOM     11  N   UNL     1      49.870   3.651  18.640  0.00  0.00    +0.000 NA
ATOM     12  H1  UNL     1      50.070   3.610  19.643  0.00  0.00    +0.000 HD
ATOM     13  H2  UNL     1      50.482   4.354  18.239  0.00  0.00    +0.000 HD
ENDBRANCH  10  11
BRANCH  10  14
ATOM     14  C   UNL     1      47.779   3.052  17.389  0.00  0.00    +0.000 C 
BRANCH  14  15
ATOM     15  O   UNL     1      46.404   2.812  17.690  0.00  0.00    +0.000 OA
ATOM     16  H   UNL     1      46.243   1.867  17.527  0.00  0.00    +0.000 HD
ENDBRANCH  14  15
ENDBRANCH  10  14
ENDBRANCH   3  10
ENDBRANCH   2   7
ENDBRANCH   1   2
BRANCH   1  17
ATOM     17  C   UNL     1      48.571   9.666  14.090  0.00  0.00    +0.000 C 
BRANCH  17  18
ATOM     18  C   UNL     1      49.344  10.632  15.009  0.00  0.00    +0.000 C 
BRANCH  18  19
ATOM     19  O   UNL     1      48.497  11.656  15.521  0.00  0.00    +0.000 OA
ATOM     20  H   UNL     1      49.008  12.485  15.460  0.00  0.00    +0.000 HD
ENDBRANCH  18  19
ENDBRANCH  17  18
ENDBRANCH   1  17
BRANCH   1  21
ATOM     21  C   UNL     1      48.936   7.319  13.476  0.00  0.00    +0.000 C 
BRANCH  21  22
ATOM     22  C   UNL     1      47.797   6.399  13.083  0.00  0.00    +0.000 A 
ATOM     23  C   UNL     1      47.124   6.599  11.869  0.00  0.00    +0.000 A 
ATOM     24  C   UNL     1      46.022   5.804  11.535  0.00  0.00    +0.000 A 
ATOM     25  C   UNL     1      45.584   4.785  12.394  0.00  0.00    +0.000 A 
ATOM     26  C   UNL     1      46.281   4.572  13.596  0.00  0.00    +0.000 A 
ATOM     27  C   UNL     1      47.380   5.369  13.937  0.00  0.00    +0.000 A 
BRANCH  25  28
ATOM     28  C   UNL     1      44.375   3.958  12.046  0.00  0.00    +0.000 C 
BRANCH  28  29
ATOM     29  N   UNL     1      44.764   2.784  11.276  0.00  0.00    +0.000 NA
ATOM     30  H   UNL     1      44.482   1.943  11.777  0.00  0.00    +0.000 HD
BRANCH  29  31
ATOM     31  C   UNL     1      44.162   2.776   9.947  0.00  0.00    +0.000 C 
BRANCH  31  32
ATOM     32  C   UNL     1      45.233   2.760   8.876  0.00  0.00    +0.000 A 
ATOM     33  C   UNL     1      45.637   3.929   8.232  0.00  0.00    +0.000 A 
ATOM     34  C   UNL     1      46.639   3.891   7.255  0.00  0.00    +0.000 A 
ATOM     35  C   UNL     1      47.240   2.682   6.918  0.00  0.00    +0.000 A 
ATOM     36  C   UNL     1      46.841   1.502   7.546  0.00  0.00    +0.000 A 
ATOM     37  C   UNL     1      45.843   1.542   8.523  0.00  0.00    +0.000 A 
ENDBRANCH  31  32
ENDBRANCH  29  31
ENDBRANCH  28  29
ENDBRANCH  25  28
ENDBRANCH  21  22
ENDBRANCH   1  21
TORSDOF 15
ENDMDL
MODEL 3
REMARK VINA RESULT:    -7.428      2.977      5.281
REMARK INTER + INTRA:         -14.460
REMARK INTER:                 -11.988
REMARK INTRA:                  -2.472
REMARK UNBOUND:                -1.171
REMARK  Name = 
REMARK  15 active torsions:
REMARK  status: ('A' for Active; 'I' for Inactive)
REMARK    1  A    between atoms: N_1  and  CA_2
REMARK    2  A    between atoms: CA_2  and  C_3
REMARK    3  A    between atoms: CA_2  and  C_5
REMARK    4  A    between atoms: C_3  and  O_4
REMARK    5  A    between atoms: C_9  and  C_10
REMARK    6  A    between atoms: C_10  and  N_11
REMARK    7  A    between atoms: N_11  and  C_12
REMARK    8  A    between atoms: N_11  and  C_15
REMARK    9  A    between atoms: C_12  and  C_13
REMARK   10  A    between atoms: C_13  and  O_14
REMARK   11  A    between atoms: C_15  and  C_16
REMARK   12  A    between atoms: C_19  and  C_20
REMARK   13  A    between atoms: C_20  and  N_21
REMARK   14  A    between atoms: N_21  and  C_22
REMARK   15  A    between atoms: C_22  and  C_23
REMARK                            x       y       z     vdW  Elec       q    Type
REMARK                         _______ _______ _______ _____ _____    ______ ____
ROOT
ATOM      1  N   UNL     1      48.688   8.037  12.792  0.00  0.00    +0.000 NA
ENDROOT
BRANCH   1   2
ATOM      2  C   UNL     1      47.907   9.086  13.492  0.00  0.00    +0.000 C 
BRANCH   2   7
ATOM      3  C   UNL     1      45.312  10.668  11.171  0.00  0.00    +0.000 C 
ATOM      4  C   UNL     1      46.171  11.758  10.684  0.00  0.00    +0.000 C 
ATOM      5  N   UNL     1      47.355  12.020  11.136  0.00  0.00    +0.000 NA
ATOM      6  C   UNL     1      47.858  11.177  12.095  0.00  0.00    +0.000 C 
ATOM      7  C   UNL     1      47.239  10.116  12.640  0.00  0.00    +0.000 C 
ATOM      8  C   UNL     1      45.825   9.868  12.291  0.00  0.00    +0.000 C 
ATOM      9  O   UNL     1      45.124   9.069  12.899  0.00  0.00    +0.000 OA
BRANCH   3  10
ATOM     10  CA  UNL     1      43.832  10.676  10.951  0.00  0.00    +0.000 C 
BRANCH  10  11
ATOM     11  N   UNL     1      43.045  10.799  12.187  0.00  0.00    +0.000 NA
ATOM     12  H1  UNL     1      42.429   9.987  12.276  0.00  0.00    +0.000 HD
ATOM     13  H2  UNL     1      42.456  11.625  12.188  0.00  0.00    +0.000 HD
ENDBRANCH  10  11
BRANCH  10  14
ATOM     14  C   UNL     1      43.437   9.430  10.121  0.00  0.00    +0.000 C 
BRANCH  14  15
ATOM     15  O   UNL     1      42.746   8.463  10.911  0.00  0.00    +0.000 OA
ATOM     16  H   UNL     1      43.423   7.963  11.398  0.00  0.00    +0.000 HD
ENDBRANCH  14  15
ENDBRANCH  10  14
ENDBRANCH   3  10
ENDBRANCH   2   7
ENDBRANCH   1   2
BRANCH   1  17
ATOM     17  C   UNL     1      50.140   8.268  12.993  0.00  0.00    +0.000 C 
BRANCH  17  18
ATOM     18  C   UNL     1      50.942   8.472  11.692  0.00  0.00    +0.000 C 
BRANCH  18  19
ATOM     19  O   UNL     1      51.609   7.278  11.296  0.00  0.00    +0.000 OA
ATOM     20  H   UNL     1      52.213   7.533  10.574  0.00  0.00    +0.000 HD
ENDBRANCH  18  19
ENDBRANCH  17  18
ENDBRANCH   1  17
BRANCH   1  21
ATOM     21  C   UNL     1      48.270   6.714  13.317  0.00  0.00    +0.000 C 
BRANCH  21  22
ATOM     22  C   UNL     1      47.050   6.174  12.597  0.00  0.00    +0.000 A 
ATOM     23  C   UNL     1      46.811   6.533  11.262  0.00  0.00    +0.000 A 
ATOM     24  C   UNL     1      45.648   6.102  10.615  0.00  0.00    +0.000 A 
ATOM     25  C   UNL     1      44.713   5.294  11.278  0.00  0.00    +0.000 A 
ATOM     26  C   UNL     1      44.973   4.916  12.607  0.00  0.00    +0.000 A 
ATOM     27  C   UNL     1      46.132   5.349  13.260  0.00  0.00    +0.000 A 
BRANCH  25  28
ATOM     28  C   UNL     1      43.445   4.866  10.588  0.00  0.00    +0.000 C 
BRANCH  28  29
ATOM     29  N   UNL     1      43.747   4.248   9.303  0.00  0.00    +0.000 NA
ATOM     30  H   UNL     1      44.388   4.845   8.783  0.00  0.00    +0.000 HD
BRANCH  29  31
ATOM     31  C   UNL     1      44.341   2.925   9.457  0.00  0.00    +0.000 C 
BRANCH  31  32
ATOM     32  C   UNL     1      45.462   2.723   8.458  0.00  0.00    +0.000 A 
ATOM     33  C   UNL     1      46.077   1.483   8.294  0.00  0.00    +0.000 A 
ATOM     34  C   UNL     1      47.102   1.317   7.354  0.00  0.00    +0.000 A 
ATOM     35  C   UNL     1      47.515   2.394   6.575  0.00  0.00    +0.000 A 
ATOM     36  C   UNL     1      46.916   3.644   6.734  0.00  0.00    +0.000 A 
ATOM     37  C   UNL     1      45.892   3.806   7.670  0.00  0.00    +0.000 A 
ENDBRANCH  31  32
ENDBRANCH  29  31
ENDBRANCH  28  29
ENDBRANCH  25  28
ENDBRANCH  21  22
ENDBRANCH   1  21
TORSDOF 15
ENDMDL
MODEL 4
REMARK VINA RESULT:    -7.055      2.692      8.600
REMARK INTER + INTRA:         -13.793
REMARK INTER:                 -12.588
REMARK INTRA:                  -1.206
REMARK UNBOUND:                -1.171
REMARK  Name = 
REMARK  15 active torsions:
REMARK  status: ('A' for Active; 'I' for Inactive)
REMARK    1  A    between atoms: N_1  and  CA_2
REMARK    2  A    between atoms: CA_2  and  C_3
REMARK    3  A    between atoms: CA_2  and  C_5
REMARK    4  A    between atoms: C_3  and  O_4
REMARK    5  A    between atoms: C_9  and  C_10
REMARK    6  A    between atoms: C_10  and  N_11
REMARK    7  A    between atoms: N_11  and  C_12
REMARK    8  A    between atoms: N_11  and  C_15
REMARK    9  A    between atoms: C_12  and  C_13
REMARK   10  A    between atoms: C_13  and  O_14
REMARK   11  A    between atoms: C_15  and  C_16
REMARK   12  A    between atoms: C_19  and  C_20
REMARK   13  A    between atoms: C_20  and  N_21
REMARK   14  A    between atoms: N_21  and  C_22
REMARK   15  A    between atoms: C_22  and  C_23
REMARK                            x       y       z     vdW  Elec       q    Type
REMARK                         _______ _______ _______ _____ _____    ______ ____
ROOT
ATOM      1  N   UNL     1      45.014   5.829  11.786  0.00  0.00    +0.000 NA
ENDROOT
BRANCH   1   2
ATOM      2  C   UNL     1      44.281   5.381  10.578  0.00  0.00    +0.000 C 
BRANCH   2   7
ATOM      3  C   UNL     1      45.912   3.166   7.921  0.00  0.00    +0.000 C 
ATOM      4  C   UNL     1      45.298   1.904   8.361  0.00  0.00    +0.000 C 
ATOM      5  N   UNL     1      44.580   1.767   9.428  0.00  0.00    +0.000 NA
ATOM      6  C   UNL     1      44.329   2.901  10.161  0.00  0.00    +0.000 C 
ATOM      7  C   UNL     1      44.776   4.142   9.903  0.00  0.00    +0.000 C 
ATOM      8  C   UNL     1      45.738   4.331   8.799  0.00  0.00    +0.000 C 
ATOM      9  O   UNL     1      46.361   5.372   8.634  0.00  0.00    +0.000 OA
BRANCH   3  10
ATOM     10  CA  UNL     1      47.065   3.188   6.967  0.00  0.00    +0.000 C 
BRANCH  10  11
ATOM     11  N   UNL     1      46.819   3.978   5.751  0.00  0.00    +0.000 NA
ATOM     12  H1  UNL     1      47.193   3.475   4.942  0.00  0.00    +0.000 HD
ATOM     13  H2  UNL     1      47.275   4.883   5.781  0.00  0.00    +0.000 HD
ENDBRANCH  10  11
BRANCH  10  14
ATOM     14  C   UNL     1      47.487   1.733   6.650  0.00  0.00    +0.000 C 
BRANCH  14  15
ATOM     15  O   UNL     1      48.517   1.681   5.663  0.00  0.00    +0.000 OA
ATOM     16  H   UNL     1      48.189   2.172   4.891  0.00  0.00    +0.000 HD
ENDBRANCH  14  15
ENDBRANCH  10  14
ENDBRANCH   3  10
ENDBRANCH   2   7
ENDBRANCH   1   2
BRANCH   1  17
ATOM     17  C   UNL     1      44.073   5.979  12.924  0.00  0.00    +0.000 C 
BRANCH  17  18
ATOM     18  C   UNL     1      42.927   4.948  12.947  0.00  0.00    +0.000 C 
BRANCH  18  19
ATOM     19  O   UNL     1      43.313   3.752  13.615  0.00  0.00    +0.000 OA
ATOM     20  H   UNL     1      44.220   3.555  13.315  0.00  0.00    +0.000 HD
ENDBRANCH  18  19
ENDBRANCH  17  18
ENDBRANCH   1  17
BRANCH   1  21
ATOM     21  C   UNL     1      46.075   4.836  12.086  0.00  0.00    +0.000 C 
BRANCH  21  22
ATOM     22  C   UNL     1      46.924   5.248  13.273  0.00  0.00    +0.000 A 
ATOM     23  C   UNL     1      46.914   4.474  14.442  0.00  0.00    +0.000 A 
ATOM     24  C   UNL     1      47.633   4.890  15.568  0.00  0.00    +0.000 A 
ATOM     25  C   UNL     1      48.388   6.071  15.544  0.00  0.00    +0.000 A 
ATOM     26  C   UNL     1      48.415   6.828  14.359  0.00  0.00    +0.000 A 
ATOM     27  C   UNL     1      47.692   6.419  13.232  0.00  0.00    +0.000 A 
BRANCH  25  28
ATOM     28  C   UNL     1      49.128   6.532  16.771  0.00  0.00    +0.000 C 
BRANCH  28  29
ATOM     29  N   UNL     1      48.850   5.650  17.896  0.00  0.00    +0.000 NA
ATOM     30  H   UNL     1      48.429   4.788  17.554  0.00  0.00    +0.000 HD
BRANCH  29  31
ATOM     31  C   UNL     1      50.056   5.328  18.652  0.00  0.00    +0.000 C 
BRANCH  31  32
ATOM     32  C   UNL     1      50.633   4.002  18.199  0.00  0.00    +0.000 A 
ATOM     33  C   UNL     1      51.980   3.694  18.378  0.00  0.00    +0.000 A 
ATOM     34  C   UNL     1      52.487   2.456  17.964  0.00  0.00    +0.000 A 
ATOM     35  C   UNL     1      51.646   1.522  17.368  0.00  0.00    +0.000 A 
ATOM     36  C   UNL     1      50.296   1.818  17.173  0.00  0.00    +0.000 A 
ATOM     37  C   UNL     1      49.792   3.053  17.590  0.00  0.00    +0.000 A 
ENDBRANCH  31  32
ENDBRANCH  29  31
ENDBRANCH  28  29
ENDBRANCH  25  28
ENDBRANCH  21  22
ENDBRANCH   1  21
TORSDOF 15
ENDMDL
MODEL 5
REMARK VINA RESULT:    -6.666      2.496      8.206
REMARK INTER + INTRA:         -13.098
REMARK INTER:                 -12.142
REMARK INTRA:                  -0.956
REMARK UNBOUND:                -1.171
REMARK  Name = 
REMARK  15 active torsions:
REMARK  status: ('A' for Active; 'I' for Inactive)
REMARK    1  A    between atoms: N_1  and  CA_2
REMARK    2  A    between atoms: CA_2  and  C_3
REMARK    3  A    between atoms: CA_2  and  C_5
REMARK    4  A    between atoms: C_3  and  O_4
REMARK    5  A    between atoms: C_9  and  C_10
REMARK    6  A    between atoms: C_10  and  N_11
REMARK    7  A    between atoms: N_11  and  C_12
REMARK    8  A    between atoms: N_11  and  C_15
REMARK    9  A    between atoms: C_12  and  C_13
REMARK   10  A    between atoms: C_13  and  O_14
REMARK   11  A    between atoms: C_15  and  C_16
REMARK   12  A    between atoms: C_19  and  C_20
REMARK   13  A    between atoms: C_20  and  N_21
REMARK   14  A    between atoms: N_21  and  C_22
REMARK   15  A    between atoms: C_22  and  C_23
REMARK                            x       y       z     vdW  Elec       q    Type
REMARK                         _______ _______ _______ _____ _____    ______ ____
ROOT
ATOM      1  N   UNL     1      44.601   5.882  11.693  0.00  0.00    +0.000 NA
ENDROOT
BRANCH   1   2
ATOM      2  C   UNL     1      43.967   5.347  10.464  0.00  0.00    +0.000 C 
BRANCH   2   7
ATOM      3  C   UNL     1      45.883   3.153   7.987  0.00  0.00    +0.000 C 
ATOM      4  C   UNL     1      45.322   1.870   8.437  0.00  0.00    +0.000 C 
ATOM      5  N   UNL     1      44.553   1.724   9.466  0.00  0.00    +0.000 NA
ATOM      6  C   UNL     1      44.191   2.863  10.142  0.00  0.00    +0.000 C 
ATOM      7  C   UNL     1      44.575   4.120   9.865  0.00  0.00    +0.000 C 
ATOM      8  C   UNL     1      45.587   4.333   8.810  0.00  0.00    +0.000 C 
ATOM      9  O   UNL     1      46.153   5.406   8.642  0.00  0.00    +0.000 OA
BRANCH   3  10
ATOM     10  CA  UNL     1      47.086   3.216   7.099  0.00  0.00    +0.000 C 
BRANCH  10  11
ATOM     11  N   UNL     1      46.861   3.940   5.838  0.00  0.00    +0.000 NA
ATOM     12  H1  UNL     1      46.090   3.500   5.330  0.00  0.00    +0.000 HD
ATOM     13  H2  UNL     1      47.674   3.919   5.232  0.00  0.00    +0.000 HD
ENDBRANCH  10  11
BRANCH  10  14
ATOM     14  C   UNL     1      47.620   1.782   6.869  0.00  0.00    +0.000 C 
BRANCH  14  15
ATOM     15  O   UNL     1      48.466   1.708   5.721  0.00  0.00    +0.000 OA
ATOM     16  H   UNL     1      49.294   2.160   5.955  0.00  0.00    +0.000 HD
ENDBRANCH  14  15
ENDBRANCH  10  14
ENDBRANCH   3  10
ENDBRANCH   2   7
ENDBRANCH   1   2
BRANCH   1  17
ATOM     17  C   UNL     1      45.685   4.973  12.141  0.00  0.00    +0.000 C 
BRANCH  17  18
ATOM     18  C   UNL     1      45.432   4.298  13.504  0.00  0.00    +0.000 C 
BRANCH  18  19
ATOM     19  O   UNL     1      46.601   3.650  13.992  0.00  0.00    +0.000 OA
ATOM     20  H   UNL     1      46.299   2.813  14.391  0.00  0.00    +0.000 HD
ENDBRANCH  18  19
ENDBRANCH  17  18
ENDBRANCH   1  17
BRANCH   1  21
ATOM     21  C   UNL     1      45.118   7.241  11.400  0.00  0.00    +0.000 C 
BRANCH  21  22
ATOM     22  C   UNL     1      46.420   7.524  12.125  0.00  0.00    +0.000 A 
ATOM     23  C   UNL     1      47.635   7.092  11.573  0.00  0.00    +0.000 A 
ATOM     24  C   UNL     1      48.832   7.281  12.273  0.00  0.00    +0.000 A 
ATOM     25  C   UNL     1      48.843   7.917  13.522  0.00  0.00    +0.000 A 
ATOM     26  C   UNL     1      47.624   8.372  14.055  0.00  0.00    +0.000 A 
ATOM     27  C   UNL     1      46.424   8.181  13.362  0.00  0.00    +0.000 A 
BRANCH  25  28
ATOM     28  C   UNL     1      50.129   8.083  14.286  0.00  0.00    +0.000 C 
BRANCH  28  29
ATOM     29  N   UNL     1      49.901   7.907  15.715  0.00  0.00    +0.000 NA
ATOM     30  H   UNL     1      48.919   7.688  15.875  0.00  0.00    +0.000 HD
BRANCH  29  31
ATOM     31  C   UNL     1      50.727   6.844  16.275  0.00  0.00    +0.000 C 
BRANCH  31  32
ATOM     32  C   UNL     1      49.865   5.701  16.770  0.00  0.00    +0.000 A 
ATOM     33  C   UNL     1      48.480   5.708  16.604  0.00  0.00    +0.000 A 
ATOM     34  C   UNL     1      47.705   4.633  17.057  0.00  0.00    +0.000 A 
ATOM     35  C   UNL     1      48.314   3.548  17.680  0.00  0.00    +0.000 A 
ATOM     36  C   UNL     1      49.697   3.529  17.862  0.00  0.00    +0.000 A 
ATOM     37  C   UNL     1      50.469   4.601  17.406  0.00  0.00    +0.000 A 
ENDBRANCH  31  32
ENDBRANCH  29  31
ENDBRANCH  28  29
ENDBRANCH  25  28
ENDBRANCH  21  22
ENDBRANCH   1  21
TORSDOF 15
ENDMDL
MODEL 6
REMARK VINA RESULT:    -6.627      2.826      7.643
REMARK INTER + INTRA:         -13.028
REMARK INTER:                 -10.541
REMARK INTRA:                  -2.487
REMARK UNBOUND:                -1.171
REMARK  Name = 
REMARK  15 active torsions:
REMARK  status: ('A' for Active; 'I' for Inactive)
REMARK    1  A    between atoms: N_1  and  CA_2
REMARK    2  A    between atoms: CA_2  and  C_3
REMARK    3  A    between atoms: CA_2  and  C_5
REMARK    4  A    between atoms: C_3  and  O_4
REMARK    5  A    between atoms: C_9  and  C_10
REMARK    6  A    between atoms: C_10  and  N_11
REMARK    7  A    between atoms: N_11  and  C_12
REMARK    8  A    between atoms: N_11  and  C_15
REMARK    9  A    between atoms: C_12  and  C_13
REMARK   10  A    between atoms: C_13  and  O_14
REMARK   11  A    between atoms: C_15  and  C_16
REMARK   12  A    between atoms: C_19  and  C_20
REMARK   13  A    between atoms: C_20  and  N_21
REMARK   14  A    between atoms: N_21  and  C_22
REMARK   15  A    between atoms: C_22  and  C_23
REMARK                            x       y       z     vdW  Elec       q    Type
REMARK                         _______ _______ _______ _____ _____    ______ ____
ROOT
ATOM      1  N   UNL     1      47.917   7.883  13.081  0.00  0.00    +0.000 NA
ENDROOT
BRANCH   1   2
ATOM      2  C   UNL     1      46.526   7.475  12.772  0.00  0.00    +0.000 C 
BRANCH   2   7
ATOM      3  C   UNL     1      44.639   4.242  11.992  0.00  0.00    +0.000 C 
ATOM      4  C   UNL     1      45.499   3.354  12.790  0.00  0.00    +0.000 C 
ATOM      5  N   UNL     1      46.592   3.721  13.376  0.00  0.00    +0.000 NA
ATOM      6  C   UNL     1      46.932   5.048  13.290  0.00  0.00    +0.000 C 
ATOM      7  C   UNL     1      46.261   6.011  12.635  0.00  0.00    +0.000 C 
ATOM      8  C   UNL     1      45.101   5.624  11.807  0.00  0.00    +0.000 C 
ATOM      9  O   UNL     1      44.571   6.389  11.011  0.00  0.00    +0.000 OA
BRANCH   3  10
ATOM     10  CA  UNL     1      43.664   3.701  10.994  0.00  0.00    +0.000 C 
BRANCH  10  11
ATOM     11  N   UNL     1      42.899   2.541  11.475  0.00  0.00    +0.000 NA
ATOM     12  H1  UNL     1      43.190   1.707  10.958  0.00  0.00    +0.000 HD
ATOM     13  H2  UNL     1      41.900   2.650  11.332  0.00  0.00    +0.000 HD
ENDBRANCH  10  11
BRANCH  10  14
ATOM     14  C   UNL     1      44.407   3.410   9.668  0.00  0.00    +0.000 C 
BRANCH  14  15
ATOM     15  O   UNL     1      44.074   4.358   8.653  0.00  0.00    +0.000 OA
ATOM     16  H   UNL     1      44.639   5.135   8.801  0.00  0.00    +0.000 HD
ENDBRANCH  14  15
ENDBRANCH  10  14
ENDBRANCH   3  10
ENDBRANCH   2   7
ENDBRANCH   1   2
BRANCH   1  17
ATOM     17  C   UNL     1      48.594   8.355  11.847  0.00  0.00    +0.000 C 
BRANCH  17  18
ATOM     18  C   UNL     1      49.876   7.581  11.484  0.00  0.00    +0.000 C 
BRANCH  18  19
ATOM     19  O   UNL     1      50.902   7.785  12.450  0.00  0.00    +0.000 OA
ATOM     20  H   UNL     1      50.580   7.378  13.276  0.00  0.00    +0.000 HD
ENDBRANCH  18  19
ENDBRANCH  17  18
ENDBRANCH   1  17
BRANCH   1  21
ATOM     21  C   UNL     1      47.875   8.943  14.118  0.00  0.00    +0.000 C 
BRANCH  21  22
ATOM     22  C   UNL     1      48.426   8.464  15.447  0.00  0.00    +0.000 A 
ATOM     23  C   UNL     1      49.226   7.313  15.497  0.00  0.00    +0.000 A 
ATOM     24  C   UNL     1      49.674   6.820  16.728  0.00  0.00    +0.000 A 
ATOM     25  C   UNL     1      49.349   7.473  17.926  0.00  0.00    +0.000 A 
ATOM     26  C   UNL     1      48.570   8.642  17.864  0.00  0.00    +0.000 A 
ATOM     27  C   UNL     1      48.115   9.135  16.636  0.00  0.00    +0.000 A 
BRANCH  25  28
ATOM     28  C   UNL     1      49.802   6.916  19.249  0.00  0.00    +0.000 C 
BRANCH  28  29
ATOM     29  N   UNL     1      48.691   6.274  19.940  0.00  0.00    +0.000 NA
ATOM     30  H   UNL     1      47.830   6.439  19.421  0.00  0.00    +0.000 HD
BRANCH  29  31
ATOM     31  C   UNL     1      48.894   4.837  20.088  0.00  0.00    +0.000 C 
BRANCH  31  32
ATOM     32  C   UNL     1      48.641   4.124  18.775  0.00  0.00    +0.000 A 
ATOM     33  C   UNL     1      49.595   3.279  18.209  0.00  0.00    +0.000 A 
ATOM     34  C   UNL     1      49.332   2.619  17.002  0.00  0.00    +0.000 A 
ATOM     35  C   UNL     1      48.114   2.804  16.357  0.00  0.00    +0.000 A 
ATOM     36  C   UNL     1      47.152   3.653  16.905  0.00  0.00    +0.000 A 
ATOM     37  C   UNL     1      47.414   4.308  18.111  0.00  0.00    +0.000 A 
ENDBRANCH  31  32
ENDBRANCH  29  31
ENDBRANCH  28  29
ENDBRANCH  25  28
ENDBRANCH  21  22
ENDBRANCH   1  21
TORSDOF 15
ENDMDL
MODEL 7
REMARK VINA RESULT:    -6.620      3.126      8.062
REMARK INTER + INTRA:         -13.015
REMARK INTER:                 -11.038
REMARK INTRA:                  -1.977
REMARK UNBOUND:                -1.171
REMARK  Name = 
REMARK  15 active torsions:
REMARK  status: ('A' for Active; 'I' for Inactive)
REMARK    1  A    between atoms: N_1  and  CA_2
REMARK    2  A    between atoms: CA_2  and  C_3
REMARK    3  A    between atoms: CA_2  and  C_5
REMARK    4  A    between atoms: C_3  and  O_4
REMARK    5  A    between atoms: C_9  and  C_10
REMARK    6  A    between atoms: C_10  and  N_11
REMARK    7  A    between atoms: N_11  and  C_12
REMARK    8  A    between atoms: N_11  and  C_15
REMARK    9  A    between atoms: C_12  and  C_13
REMARK   10  A    between atoms: C_13  and  O_14
REMARK   11  A    between atoms: C_15  and  C_16
REMARK   12  A    between atoms: C_19  and  C_20
REMARK   13  A    between atoms: C_20  and  N_21
REMARK   14  A    between atoms: N_21  and  C_22
REMARK   15  A    between atoms: C_22  and  C_23
REMARK                            x       y       z     vdW  Elec       q    Type
REMARK                         _______ _______ _______ _____ _____    ______ ____
ROOT
ATOM      1  N   UNL     1      44.787   6.158  11.024  0.00  0.00    +0.000 NA
ENDROOT
BRANCH   1   2
ATOM      2  C   UNL     1      43.929   5.192  10.297  0.00  0.00    +0.000 C 
BRANCH   2   7
ATOM      3  C   UNL     1      45.979   3.087   7.850  0.00  0.00    +0.000 C 
ATOM      4  C   UNL     1      45.473   1.780   8.296  0.00  0.00    +0.000 C 
ATOM      5  N   UNL     1      44.697   1.599   9.315  0.00  0.00    +0.000 NA
ATOM      6  C   UNL     1      44.273   2.721   9.983  0.00  0.00    +0.000 C 
ATOM      7  C   UNL     1      44.602   3.994   9.708  0.00  0.00    +0.000 C 
ATOM      8  C   UNL     1      45.616   4.253   8.667  0.00  0.00    +0.000 C 
ATOM      9  O   UNL     1      46.134   5.351   8.504  0.00  0.00    +0.000 OA
BRANCH   3  10
ATOM     10  CA  UNL     1      47.189   3.205   6.978  0.00  0.00    +0.000 C 
BRANCH  10  11
ATOM     11  N   UNL     1      46.928   3.838   5.676  0.00  0.00    +0.000 NA
ATOM     12  H1  UNL     1      47.011   4.853   5.771  0.00  0.00    +0.000 HD
ATOM     13  H2  UNL     1      45.994   3.642   5.332  0.00  0.00    +0.000 HD
ENDBRANCH  10  11
BRANCH  10  14
ATOM     14  C   UNL     1      47.848   1.812   6.836  0.00  0.00    +0.000 C 
BRANCH  14  15
ATOM     15  O   UNL     1      48.295   1.569   5.502  0.00  0.00    +0.000 OA
ATOM     16  H   UNL     1      49.060   2.152   5.353  0.00  0.00    +0.000 HD
ENDBRANCH  14  15
ENDBRANCH  10  14
ENDBRANCH   3  10
ENDBRANCH   2   7
ENDBRANCH   1   2
BRANCH   1  17
ATOM     17  C   UNL     1      43.948   7.207  11.656  0.00  0.00    +0.000 C 
BRANCH  17  18
ATOM     18  C   UNL     1      44.418   8.650  11.389  0.00  0.00    +0.000 C 
BRANCH  18  19
ATOM     19  O   UNL     1      44.680   9.348  12.602  0.00  0.00    +0.000 OA
ATOM     20  H   UNL     1      45.520   8.990  12.944  0.00  0.00    +0.000 HD
ENDBRANCH  18  19
ENDBRANCH  17  18
ENDBRANCH   1  17
BRANCH   1  21
ATOM     21  C   UNL     1      45.580   5.414  12.033  0.00  0.00    +0.000 C 
BRANCH  21  22
ATOM     22  C   UNL     1      46.834   6.164  12.440  0.00  0.00    +0.000 A 
ATOM     23  C   UNL     1      47.555   6.890  11.481  0.00  0.00    +0.000 A 
ATOM     24  C   UNL     1      48.755   7.520  11.832  0.00  0.00    +0.000 A 
ATOM     25  C   UNL     1      49.246   7.453  13.143  0.00  0.00    +0.000 A 
ATOM     26  C   UNL     1      48.502   6.747  14.105  0.00  0.00    +0.000 A 
ATOM     27  C   UNL     1      47.305   6.111  13.758  0.00  0.00    +0.000 A 
BRANCH  25  28
ATOM     28  C   UNL     1      50.556   8.101  13.505  0.00  0.00    +0.000 C 
BRANCH  28  29
ATOM     29  N   UNL     1      50.328   9.324  14.264  0.00  0.00    +0.000 NA
ATOM     30  H   UNL     1      50.864   9.289  15.130  0.00  0.00    +0.000 HD
BRANCH  29  31
ATOM     31  C   UNL     1      50.710  10.515  13.512  0.00  0.00    +0.000 C 
BRANCH  31  32
ATOM     32  C   UNL     1      49.610  10.915  12.550  0.00  0.00    +0.000 A 
ATOM     33  C   UNL     1      48.302  11.124  12.985  0.00  0.00    +0.000 A 
ATOM     34  C   UNL     1      47.305  11.508  12.079  0.00  0.00    +0.000 A 
ATOM     35  C   UNL     1      47.615  11.682  10.734  0.00  0.00    +0.000 A 
ATOM     36  C   UNL     1      48.917  11.468  10.281  0.00  0.00    +0.000 A 
ATOM     37  C   UNL     1      49.911  11.089  11.186  0.00  0.00    +0.000 A 
ENDBRANCH  31  32
ENDBRANCH  29  31
ENDBRANCH  28  29
ENDBRANCH  25  28
ENDBRANCH  21  22
ENDBRANCH   1  21
TORSDOF 15
ENDMDL
MODEL 8
REMARK VINA RESULT:    -6.538      3.618      7.719
REMARK INTER + INTRA:         -12.869
REMARK INTER:                 -11.315
REMARK INTRA:                  -1.554
REMARK UNBOUND:                -1.171
REMARK  Name = 
REMARK  15 active torsions:
REMARK  status: ('A' for Active; 'I' for Inactive)
REMARK    1  A    between atoms: N_1  and  CA_2
REMARK    2  A    between atoms: CA_2  and  C_3
REMARK    3  A    between atoms: CA_2  and  C_5
REMARK    4  A    between atoms: C_3  and  O_4
REMARK    5  A    between atoms: C_9  and  C_10
REMARK    6  A    between atoms: C_10  and  N_11
REMARK    7  A    between atoms: N_11  and  C_12
REMARK    8  A    between atoms: N_11  and  C_15
REMARK    9  A    between atoms: C_12  and  C_13
REMARK   10  A    between atoms: C_13  and  O_14
REMARK   11  A    between atoms: C_15  and  C_16
REMARK   12  A    between atoms: C_19  and  C_20
REMARK   13  A    between atoms: C_20  and  N_21
REMARK   14  A    between atoms: N_21  and  C_22
REMARK   15  A    between atoms: C_22  and  C_23
REMARK                            x       y       z     vdW  Elec       q    Type
REMARK                         _______ _______ _______ _____ _____    ______ ____
ROOT
ATOM      1  N   UNL     1      44.810   6.173  11.034  0.00  0.00    +0.000 NA
ENDROOT
BRANCH   1   2
ATOM      2  C   UNL     1      43.943   5.241  10.274  0.00  0.00    +0.000 C 
BRANCH   2   7
ATOM      3  C   UNL     1      45.933   3.028   7.872  0.00  0.00    +0.000 C 
ATOM      4  C   UNL     1      45.410   1.743   8.362  0.00  0.00    +0.000 C 
ATOM      5  N   UNL     1      44.641   1.607   9.393  0.00  0.00    +0.000 NA
ATOM      6  C   UNL     1      44.243   2.756  10.031  0.00  0.00    +0.000 C 
ATOM      7  C   UNL     1      44.590   4.014   9.715  0.00  0.00    +0.000 C 
ATOM      8  C   UNL     1      45.599   4.224   8.657  0.00  0.00    +0.000 C 
ATOM      9  O   UNL     1      46.133   5.307   8.457  0.00  0.00    +0.000 OA
BRANCH   3  10
ATOM     10  CA  UNL     1      47.137   3.099   6.986  0.00  0.00    +0.000 C 
BRANCH  10  11
ATOM     11  N   UNL     1      46.921   3.857   5.744  0.00  0.00    +0.000 NA
ATOM     12  H1  UNL     1      47.827   4.121   5.349  0.00  0.00    +0.000 HD
ATOM     13  H2  UNL     1      46.399   4.713   5.901  0.00  0.00    +0.000 HD
ENDBRANCH  10  11
BRANCH  10  14
ATOM     14  C   UNL     1      47.653   1.664   6.720  0.00  0.00    +0.000 C 
BRANCH  14  15
ATOM     15  O   UNL     1      48.521   1.614   5.587  0.00  0.00    +0.000 OA
ATOM     16  H   UNL     1      48.171   0.924   4.997  0.00  0.00    +0.000 HD
ENDBRANCH  14  15
ENDBRANCH  10  14
ENDBRANCH   3  10
ENDBRANCH   2   7
ENDBRANCH   1   2
BRANCH   1  17
ATOM     17  C   UNL     1      43.986   7.239  11.656  0.00  0.00    +0.000 C 
BRANCH  17  18
ATOM     18  C   UNL     1      44.457   8.674  11.348  0.00  0.00    +0.000 C 
BRANCH  18  19
ATOM     19  O   UNL     1      44.831   9.368  12.534  0.00  0.00    +0.000 OA
ATOM     20  H   UNL     1      45.412   8.761  13.030  0.00  0.00    +0.000 HD
ENDBRANCH  18  19
ENDBRANCH  17  18
ENDBRANCH   1  17
BRANCH   1  21
ATOM     21  C   UNL     1      45.552   5.394  12.056  0.00  0.00    +0.000 C 
BRANCH  21  22
ATOM     22  C   UNL     1      46.857   6.062  12.446  0.00  0.00    +0.000 A 
ATOM     23  C   UNL     1      47.341   5.938  13.756  0.00  0.00    +0.000 A 
ATOM     24  C   UNL     1      48.503   6.614  14.144  0.00  0.00    +0.000 A 
ATOM     25  C   UNL     1      49.211   7.410  13.232  0.00  0.00    +0.000 A 
ATOM     26  C   UNL     1      48.734   7.507  11.913  0.00  0.00    +0.000 A 
ATOM     27  C   UNL     1      47.570   6.837  11.522  0.00  0.00    +0.000 A 
BRANCH  25  28
ATOM     28  C   UNL     1      50.439   8.165  13.666  0.00  0.00    +0.000 C 
BRANCH  28  29
ATOM     29  N   UNL     1      50.952   8.978  12.571  0.00  0.00    +0.000 NA
ATOM     30  H   UNL     1      50.832   9.965  12.798  0.00  0.00    +0.000 HD
BRANCH  29  31
ATOM     31  C   UNL     1      52.362   8.715  12.307  0.00  0.00    +0.000 C 
BRANCH  31  32
ATOM     32  C   UNL     1      52.589   8.452  10.832  0.00  0.00    +0.000 A 
ATOM     33  C   UNL     1      52.199   7.254  10.237  0.00  0.00    +0.000 A 
ATOM     34  C   UNL     1      52.406   7.040   8.869  0.00  0.00    +0.000 A 
ATOM     35  C   UNL     1      53.007   8.025   8.092  0.00  0.00    +0.000 A 
ATOM     36  C   UNL     1      53.412   9.227   8.674  0.00  0.00    +0.000 A 
ATOM     37  C   UNL     1      53.201   9.440  10.038  0.00  0.00    +0.000 A 
ENDBRANCH  31  32
ENDBRANCH  29  31
ENDBRANCH  28  29
ENDBRANCH  25  28
ENDBRANCH  21  22
ENDBRANCH   1  21
TORSDOF 15
ENDMDL
MODEL 9
REMARK VINA RESULT:    -6.519      1.879      2.361
REMARK INTER + INTRA:         -12.834
REMARK INTER:                 -12.084
REMARK INTRA:                  -0.750
REMARK UNBOUND:                -1.171
REMARK  Name = 
REMARK  15 active torsions:
REMARK  status: ('A' for Active; 'I' for Inactive)
REMARK    1  A    between atoms: N_1  and  CA_2
REMARK    2  A    between atoms: CA_2  and  C_3
REMARK    3  A    between atoms: CA_2  and  C_5
REMARK    4  A    between atoms: C_3  and  O_4
REMARK    5  A    between atoms: C_9  and  C_10
REMARK    6  A    between atoms: C_10  and  N_11
REMARK    7  A    between atoms: N_11  and  C_12
REMARK    8  A    between atoms: N_11  and  C_15
REMARK    9  A    between atoms: C_12  and  C_13
REMARK   10  A    between atoms: C_13  and  O_14
REMARK   11  A    between atoms: C_15  and  C_16
REMARK   12  A    between atoms: C_19  and  C_20
REMARK   13  A    between atoms: C_20  and  N_21
REMARK   14  A    between atoms: N_21  and  C_22
REMARK   15  A    between atoms: C_22  and  C_23
REMARK                            x       y       z     vdW  Elec       q    Type
REMARK                         _______ _______ _______ _____ _____    ______ ____
ROOT
ATOM      1  N   UNL     1      48.005   7.661  13.195  0.00  0.00    +0.000 NA
ENDROOT
BRANCH   1   2
ATOM      2  C   UNL     1      48.267   6.461  14.025  0.00  0.00    +0.000 C 
BRANCH   2   7
ATOM      3  C   UNL     1      48.508   5.895  17.799  0.00  0.00    +0.000 C 
ATOM      4  C   UNL     1      48.900   7.270  18.146  0.00  0.00    +0.000 C 
ATOM      5  N   UNL     1      49.175   8.196  17.286  0.00  0.00    +0.000 NA
ATOM      6  C   UNL     1      49.028   7.878  15.959  0.00  0.00    +0.000 C 
ATOM      7  C   UNL     1      48.653   6.692  15.451  0.00  0.00    +0.000 C 
ATOM      8  C   UNL     1      48.492   5.549  16.372  0.00  0.00    +0.000 C 
ATOM      9  O   UNL     1      48.371   4.395  15.980  0.00  0.00    +0.000 OA
BRANCH   3  10
ATOM     10  CA  UNL     1      48.635   4.771  18.780  0.00  0.00    +0.000 C 
BRANCH  10  11
ATOM     11  N   UNL     1      47.590   3.744  18.650  0.00  0.00    +0.000 NA
ATOM     12  H1  UNL     1      47.554   3.421  17.680  0.00  0.00    +0.000 HD
ATOM     13  H2  UNL     1      46.669   4.099  18.884  0.00  0.00    +0.000 HD
ENDBRANCH  10  11
BRANCH  10  14
ATOM     14  C   UNL     1      48.713   5.355  20.211  0.00  0.00    +0.000 C 
BRANCH  14  15
ATOM     15  O   UNL     1      47.579   4.990  20.997  0.00  0.00    +0.000 OA
ATOM     16  H   UNL     1      47.408   4.049  20.822  0.00  0.00    +0.000 HD
ENDBRANCH  14  15
ENDBRANCH  10  14
ENDBRANCH   3  10
ENDBRANCH   2   7
ENDBRANCH   1   2
BRANCH   1  17
ATOM     17  C   UNL     1      48.443   7.417  11.798  0.00  0.00    +0.000 C 
BRANCH  17  18
ATOM     18  C   UNL     1      49.775   8.094  11.417  0.00  0.00    +0.000 C 
BRANCH  18  19
ATOM     19  O   UNL     1      50.855   7.167  11.430  0.00  0.00    +0.000 OA
ATOM     20  H   UNL     1      50.854   6.739  10.553  0.00  0.00    +0.000 HD
ENDBRANCH  18  19
ENDBRANCH  17  18
ENDBRANCH   1  17
BRANCH   1  21
ATOM     21  C   UNL     1      46.556   7.972  13.263  0.00  0.00    +0.000 C 
BRANCH  21  22
ATOM     22  C   UNL     1      45.704   6.836  12.731  0.00  0.00    +0.000 A 
ATOM     23  C   UNL     1      45.721   5.590  13.373  0.00  0.00    +0.000 A 
ATOM     24  C   UNL     1      44.998   4.515  12.843  0.00  0.00    +0.000 A 
ATOM     25  C   UNL     1      44.233   4.667  11.677  0.00  0.00    +0.000 A 
ATOM     26  C   UNL     1      44.199   5.928  11.055  0.00  0.00    +0.000 A 
ATOM     27  C   UNL     1      44.925   7.004  11.578  0.00  0.00    +0.000 A 
BRANCH  25  28
ATOM     28  C   UNL     1      43.489   3.497  11.091  0.00  0.00    +0.000 C 
BRANCH  28  29
ATOM     29  N   UNL     1      43.882   3.285   9.704  0.00  0.00    +0.000 NA
ATOM     30  H   UNL     1      44.421   4.086   9.379  0.00  0.00    +0.000 HD
BRANCH  29  31
ATOM     31  C   UNL     1      44.676   2.072   9.539  0.00  0.00    +0.000 C 
BRANCH  31  32
ATOM     32  C   UNL     1      45.663   2.231   8.401  0.00  0.00    +0.000 A 
ATOM     33  C   UNL     1      46.496   1.185   8.007  0.00  0.00    +0.000 A 
ATOM     34  C   UNL     1      47.391   1.351   6.943  0.00  0.00    +0.000 A 
ATOM     35  C   UNL     1      47.456   2.567   6.270  0.00  0.00    +0.000 A 
ATOM     36  C   UNL     1      46.636   3.627   6.657  0.00  0.00    +0.000 A 
ATOM     37  C   UNL     1      45.742   3.459   7.717  0.00  0.00    +0.000 A 
ENDBRANCH  31  32
ENDBRANCH  29  31
ENDBRANCH  28  29
ENDBRANCH  25  28
ENDBRANCH  21  22
ENDBRANCH   1  21
TORSDOF 15
ENDMDL
