MODEL 1
REMARK VINA RESULT:    -7.031      0.000      0.000
REMARK INTER + INTRA:         -10.458
REMARK INTER:                  -9.702
REMARK INTRA:                  -0.756
REMARK UNBOUND:                -0.756
REMARK  Name = 
REMARK  7 active torsions:
REMARK  status: ('A' for Active; 'I' for Inactive)
REMARK    1  A    between atoms: N_1  and  C_2
REMARK    2  A    between atoms: C_2  and  C_3
REMARK    3  A    between atoms: C_7  and  C_8
REMARK    4  A    between atoms: C_8  and  C_9
REMARK    5  A    between atoms: C_9  and  N_10
REMARK    6  A    between atoms: N_10  and  C_11
REMARK    7  A    between atoms: C_14  and  C_15
REMARK                            x       y       z     vdW  Elec       q    Type
REMARK                         _______ _______ _______ _____ _____    ______ ____
ROOT
ATOM      1  N   UNL     1      44.086   4.198  12.142  0.00  0.00    +0.000 N 
ATOM      2  H   UNL     1      43.984   3.357  12.707  0.00  0.00    +0.000 HD
ENDROOT
BRANCH   1   3
ATOM      3  C   UNL     1      45.334   4.814  12.335  0.00  0.00    +0.000 A 
ATOM      4  C   UNL     1      45.698   6.016  11.719  0.00  0.00    +0.000 A 
ATOM      5  C   UNL     1      46.912   6.633  12.016  0.00  0.00    +0.000 A 
ATOM      6  C   UNL     1      47.740   6.042  12.956  0.00  0.00    +0.000 A 
ATOM      7  N   UNL     1      47.433   4.889  13.609  0.00  0.00    +0.000 NA
ATOM      8  C   UNL     1      46.237   4.327  13.291  0.00  0.00    +0.000 A 
BRANCH   6   9
ATOM      9  C   UNL     1      49.035   6.708  13.313  0.00  0.00    +0.000 C 
ATOM     10  N   UNL     1      49.764   7.181  12.256  0.00  0.00    +0.000 N 
ATOM     11  O   UNL     1      49.426   6.821  14.465  0.00  0.00    +0.000 OA
ATOM     12  H   UNL     1      49.424   7.039  11.312  0.00  0.00    +0.000 HD
ATOM     13  H   UNL     1      50.667   7.599  12.424  0.00  0.00    +0.000 HD
ENDBRANCH   6   9
ENDBRANCH   1   3
BRANCH   1  14
ATOM     14  C   UNL     1      43.639   4.002  10.756  0.00  0.00    +0.000 C 
BRANCH  14  15
ATOM     15  C   UNL     1      44.164   2.682  10.179  0.00  0.00    +0.000 C 
BRANCH  15  20
ATOM     16  C   UNL     1      46.734   2.090   7.413  0.00  0.00    +0.000 A 
ATOM     17  C   UNL     1      46.962   3.400   6.974  0.00  0.00    +0.000 A 
ATOM     18  C   UNL     1      46.329   4.474   7.599  0.00  0.00    +0.000 A 
ATOM     19  C   UNL     1      45.447   4.250   8.656  0.00  0.00    +0.000 A 
ATOM     20  C   UNL     1      45.197   2.948   9.107  0.00  0.00    +0.000 A 
ATOM     21  C   UNL     1      45.853   1.876   8.482  0.00  0.00    +0.000 A 
BRANCH  16  22
ATOM     22  C   UNL     1      47.355   0.921   6.693  0.00  0.00    +0.000 C 
BRANCH  22  23
ATOM     23  N   UNL     1      48.243   1.385   5.634  0.00  0.00    +0.000 NA
ATOM     24  H   UNL     1      48.066   0.849   4.788  0.00  0.00    +0.000 HD
ATOM     25  H   UNL     1      49.206   1.189   5.905  0.00  0.00    +0.000 HD
ENDBRANCH  22  23
ENDBRANCH  16  22
ENDBRANCH  15  20
ENDBRANCH  14  15
ENDBRANCH   1  14
TORSDOF 7
ENDMDL
MODEL 2
REMARK VINA RESULT:    -7.016      3.084      6.558
REMARK INTER + INTRA:         -10.437
REMARK INTER:                  -9.884
REMARK INTRA:                  -0.553
REMARK UNBOUND:                -0.756
REMARK  Name = 
REMARK  7 active torsions:
REMARK  status: ('A' for Active; 'I' for Inactive)
REMARK    1  A    between atoms: N_1  and  C_2
REMARK    2  A    between atoms: C_2  and  C_3
REMARK    3  A    between atoms: C_7  and  C_8
REMARK    4  A    between atoms: C_8  and  C_9
REMARK    5  A    between atoms: C_9  and  N_10
REMARK    6  A    between atoms: N_10  and  C_11
REMARK    7  A    between atoms: C_14  and  C_15
REMARK                            x       y       z     vdW  Elec       q    Type
REMARK                         _______ _______ _______ _____ _____    ______ ____
ROOT
ATOM      1  N   UNL     1      43.628   3.875  10.311  0.00  0.00    +0.000 N 
ATOM      2  H   UNL     1      43.593   4.893  10.323  0.00  0.00    +0.000 HD
ENDROOT
BRANCH   1   3
ATOM      3  C   UNL     1      44.532   3.393   9.349  0.00  0.00    +0.000 A 
ATOM      4  C   UNL     1      45.238   4.228   8.477  0.00  0.00    +0.000 A 
ATOM      5  C   UNL     1      46.191   3.707   7.603  0.00  0.00    +0.000 A 
ATOM      6  C   UNL     1      46.444   2.345   7.637  0.00  0.00    +0.000 A 
ATOM      7  N   UNL     1      45.812   1.484   8.480  0.00  0.00    +0.000 NA
ATOM      8  C   UNL     1      44.895   2.039   9.316  0.00  0.00    +0.000 A 
BRANCH   6   9
ATOM      9  C   UNL     1      47.489   1.771   6.728  0.00  0.00    +0.000 C 
ATOM     10  N   UNL     1      48.567   2.579   6.487  0.00  0.00    +0.000 N 
ATOM     11  O   UNL     1      47.394   0.660   6.228  0.00  0.00    +0.000 OA
ATOM     12  H   UNL     1      48.595   3.508   6.893  0.00  0.00    +0.000 HD
ATOM     13  H   UNL     1      49.284   2.271   5.848  0.00  0.00    +0.000 HD
ENDBRANCH   6   9
ENDBRANCH   1   3
BRANCH   1  14
ATOM     14  C   UNL     1      43.708   3.298  11.660  0.00  0.00    +0.000 C 
BRANCH  14  15
ATOM     15  C   UNL     1      43.550   4.374  12.741  0.00  0.00    +0.000 C 
BRANCH  15  20
ATOM     16  C   UNL     1      45.825   7.434  12.466  0.00  0.00    +0.000 A 
ATOM     17  C   UNL     1      46.988   6.960  13.084  0.00  0.00    +0.000 A 
ATOM     18  C   UNL     1      47.057   5.644  13.543  0.00  0.00    +0.000 A 
ATOM     19  C   UNL     1      45.960   4.795  13.406  0.00  0.00    +0.000 A 
ATOM     20  C   UNL     1      44.782   5.250  12.799  0.00  0.00    +0.000 A 
ATOM     21  C   UNL     1      44.729   6.569  12.325  0.00  0.00    +0.000 A 
BRANCH  16  22
ATOM     22  C   UNL     1      45.716   8.874  12.037  0.00  0.00    +0.000 C 
BRANCH  22  23
ATOM     23  N   UNL     1      44.729   9.576  12.850  0.00  0.00    +0.000 NA
ATOM     24  H   UNL     1      44.669   9.132  13.763  0.00  0.00    +0.000 HD
ATOM     25  H   UNL     1      43.813   9.473  12.415  0.00  0.00    +0.000 HD
ENDBRANCH  22  23
ENDBRANCH  16  22
ENDBRANCH  15  20
ENDBRANCH  14  15
ENDBRANCH   1  14
TORSDOF 7
ENDMDL
MODEL 3
REMARK VINA RESULT:    -6.855      2.647      6.277
REMARK INTER + INTRA:         -10.215
REMARK INTER:                  -9.619
REMARK INTRA:                  -0.596
REMARK UNBOUND:                -0.756
REMARK  Name = 
REMARK  7 active torsions:
REMARK  status: ('A' for Active; 'I' for Inactive)
REMARK    1  A    between atoms: N_1  and  C_2
REMARK    2  A    between atoms: C_2  and  C_3
REMARK    3  A    between atoms: C_7  and  C_8
REMARK    4  A    between atoms: C_8  and  C_9
REMARK    5  A    between atoms: C_9  and  N_10
REMARK    6  A    between atoms: N_10  and  C_11
REMARK    7  A    between atoms: C_14  and  C_15
REMARK                            x       y       z     vdW  Elec       q    Type
REMARK                         _______ _______ _______ _____ _____    ______ ____
ROOT
ATOM      1  N   UNL     1      43.386   3.930  10.094  0.00  0.00    +0.000 N 
ATOM      2  H   UNL     1      42.887   4.710   9.671  0.00  0.00    +0.000 HD
ENDROOT
BRANCH   1   3
ATOM      3  C   UNL     1      44.474   3.514   9.306  0.00  0.00    +0.000 A 
ATOM      4  C   UNL     1      44.849   2.174   9.168  0.00  0.00    +0.000 A 
ATOM      5  C   UNL     1      45.878   1.804   8.303  0.00  0.00    +0.000 A 
ATOM      6  C   UNL     1      46.503   2.793   7.561  0.00  0.00    +0.000 A 
ATOM      7  N   UNL     1      46.167   4.110   7.629  0.00  0.00    +0.000 NA
ATOM      8  C   UNL     1      45.156   4.420   8.483  0.00  0.00    +0.000 A 
BRANCH   6   9
ATOM      9  C   UNL     1      47.588   2.412   6.600  0.00  0.00    +0.000 C 
ATOM     10  N   UNL     1      47.529   3.019   5.375  0.00  0.00    +0.000 N 
ATOM     11  O   UNL     1      48.468   1.611   6.879  0.00  0.00    +0.000 OA
ATOM     12  H   UNL     1      46.765   3.652   5.168  0.00  0.00    +0.000 HD
ATOM     13  H   UNL     1      48.204   2.772   4.666  0.00  0.00    +0.000 HD
ENDBRANCH   6   9
ENDBRANCH   1   3
BRANCH   1  14
ATOM     14  C   UNL     1      43.631   4.129  11.529  0.00  0.00    +0.000 C 
BRANCH  14  15
ATOM     15  C   UNL     1      43.827   5.613  11.864  0.00  0.00    +0.000 C 
BRANCH  15  20
ATOM     16  C   UNL     1      46.966   5.300  14.022  0.00  0.00    +0.000 A 
ATOM     17  C   UNL     1      47.859   6.117  13.317  0.00  0.00    +0.000 A 
ATOM     18  C   UNL     1      47.437   6.805  12.179  0.00  0.00    +0.000 A 
ATOM     19  C   UNL     1      46.126   6.671  11.723  0.00  0.00    +0.000 A 
ATOM     20  C   UNL     1      45.218   5.852  12.407  0.00  0.00    +0.000 A 
ATOM     21  C   UNL     1      45.647   5.178  13.560  0.00  0.00    +0.000 A 
BRANCH  16  22
ATOM     22  C   UNL     1      47.434   4.494  15.206  0.00  0.00    +0.000 C 
BRANCH  22  23
ATOM     23  N   UNL     1      47.643   3.102  14.826  0.00  0.00    +0.000 NA
ATOM     24  H   UNL     1      47.730   3.039  13.815  0.00  0.00    +0.000 HD
ATOM     25  H   UNL     1      46.814   2.566  15.080  0.00  0.00    +0.000 HD
ENDBRANCH  22  23
ENDBRANCH  16  22
ENDBRANCH  15  20
ENDBRANCH  14  15
ENDBRANCH   1  14
TORSDOF 7
ENDMDL
MODEL 4
REMARK VINA RESULT:    -6.703      2.732      6.696
REMARK INTER + INTRA:         -10.006
REMARK INTER:                  -9.454
REMARK INTRA:                  -0.552
REMARK UNBOUND:                -0.756
REMARK  Name = 
REMARK  7 active torsions:
REMARK  status: ('A' for Active; 'I' for Inactive)
REMARK    1  A    between atoms: N_1  and  C_2
REMARK    2  A    between atoms: C_2  and  C_3
REMARK    3  A    between atoms: C_7  and  C_8
REMARK    4  A    between atoms: C_8  and  C_9
REMARK    5  A    between atoms: C_9  and  N_10
REMARK    6  A    between atoms: N_10  and  C_11
REMARK    7  A    between atoms: C_14  and  C_15
REMARK                            x       y       z     vdW  Elec       q    Type
REMARK                         _______ _______ _______ _____ _____    ______ ____
ROOT
ATOM      1  N   UNL     1      43.639   4.869   9.881  0.00  0.00    +0.000 N 
ATOM      2  H   UNL     1      43.438   5.666   9.279  0.00  0.00    +0.000 HD
ENDROOT
BRANCH   1   3
ATOM      3  C   UNL     1      44.424   3.903   9.227  0.00  0.00    +0.000 A 
ATOM      4  C   UNL     1      45.298   4.209   8.180  0.00  0.00    +0.000 A 
ATOM      5  C   UNL     1      46.123   3.231   7.626  0.00  0.00    +0.000 A 
ATOM      6  C   UNL     1      46.076   1.952   8.157  0.00  0.00    +0.000 A 
ATOM      7  N   UNL     1      45.268   1.596   9.192  0.00  0.00    +0.000 NA
ATOM      8  C   UNL     1      44.486   2.585   9.701  0.00  0.00    +0.000 A 
BRANCH   6   9
ATOM      9  C   UNL     1      46.979   0.894   7.598  0.00  0.00    +0.000 C 
ATOM     10  N   UNL     1      48.058   1.354   6.892  0.00  0.00    +0.000 N 
ATOM     11  O   UNL     1      46.773  -0.301   7.751  0.00  0.00    +0.000 OA
ATOM     12  H   UNL     1      48.177   2.351   6.758  0.00  0.00    +0.000 HD
ATOM     13  H   UNL     1      48.680   0.693   6.451  0.00  0.00    +0.000 HD
ENDBRANCH   6   9
ENDBRANCH   1   3
BRANCH   1  14
ATOM     14  C   UNL     1      44.053   5.272  11.231  0.00  0.00    +0.000 C 
BRANCH  14  15
ATOM     15  C   UNL     1      45.273   6.202  11.189  0.00  0.00    +0.000 C 
BRANCH  15  20
ATOM     16  C   UNL     1      48.042   6.619  13.790  0.00  0.00    +0.000 A 
ATOM     17  C   UNL     1      47.784   5.533  14.634  0.00  0.00    +0.000 A 
ATOM     18  C   UNL     1      46.753   4.640  14.339  0.00  0.00    +0.000 A 
ATOM     19  C   UNL     1      45.958   4.833  13.210  0.00  0.00    +0.000 A 
ATOM     20  C   UNL     1      46.193   5.919  12.356  0.00  0.00    +0.000 A 
ATOM     21  C   UNL     1      47.243   6.801  12.652  0.00  0.00    +0.000 A 
BRANCH  16  22
ATOM     22  C   UNL     1      49.103   7.630  14.142  0.00  0.00    +0.000 C 
BRANCH  22  23
ATOM     23  N   UNL     1      50.249   6.974  14.761  0.00  0.00    +0.000 NA
ATOM     24  H   UNL     1      50.944   7.674  15.006  0.00  0.00    +0.000 HD
ATOM     25  H   UNL     1      50.684   6.359  14.075  0.00  0.00    +0.000 HD
ENDBRANCH  22  23
ENDBRANCH  16  22
ENDBRANCH  15  20
ENDBRANCH  14  15
ENDBRANCH   1  14
TORSDOF 7
ENDMDL
MODEL 5
REMARK VINA RESULT:    -6.527      2.766      6.405
REMARK INTER + INTRA:          -9.763
REMARK INTER:                  -9.255
REMARK INTRA:                  -0.508
REMARK UNBOUND:                -0.756
REMARK  Name = 
REMARK  7 active torsions:
REMARK  status: ('A' for Active; 'I' for Inactive)
REMARK    1  A    between atoms: N_1  and  C_2
REMARK    2  A    between atoms: C_2  and  C_3
REMARK    3  A    between atoms: C_7  and  C_8
REMARK    4  A    between atoms: C_8  and  C_9
REMARK    5  A    between atoms: C_9  and  N_10
REMARK    6  A    between atoms: N_10  and  C_11
REMARK    7  A    between atoms: C_14  and  C_15
REMARK                            x       y       z     vdW  Elec       q    Type
REMARK                         _______ _______ _______ _____ _____    ______ ____
ROOT
ATOM      1  N   UNL     1      43.930   4.914   9.959  0.00  0.00    +0.000 N 
ATOM      2  H   UNL     1      43.860   5.851   9.565  0.00  0.00    +0.000 HD
ENDROOT
BRANCH   1   3
ATOM      3  C   UNL     1      44.846   4.114   9.254  0.00  0.00    +0.000 A 
ATOM      4  C   UNL     1      44.840   2.717   9.308  0.00  0.00    +0.000 A 
ATOM      5  C   UNL     1      45.710   1.967   8.519  0.00  0.00    +0.000 A 
ATOM      6  C   UNL     1      46.563   2.637   7.657  0.00  0.00    +0.000 A 
ATOM      7  N   UNL     1      46.599   3.992   7.538  0.00  0.00    +0.000 NA
ATOM      8  C   UNL     1      45.729   4.680   8.325  0.00  0.00    +0.000 A 
BRANCH   6   9
ATOM      9  C   UNL     1      47.483   1.847   6.776  0.00  0.00    +0.000 C 
ATOM     10  N   UNL     1      48.554   2.536   6.275  0.00  0.00    +0.000 N 
ATOM     11  O   UNL     1      47.296   0.669   6.511  0.00  0.00    +0.000 OA
ATOM     12  H   UNL     1      48.658   3.521   6.490  0.00  0.00    +0.000 HD
ATOM     13  H   UNL     1      49.186   2.075   5.638  0.00  0.00    +0.000 HD
ENDBRANCH   6   9
ENDBRANCH   1   3
BRANCH   1  14
ATOM     14  C   UNL     1      44.034   4.925  11.425  0.00  0.00    +0.000 C 
BRANCH  14  15
ATOM     15  C   UNL     1      45.498   4.921  11.883  0.00  0.00    +0.000 C 
BRANCH  15  20
ATOM     16  C   UNL     1      47.807   7.963  12.032  0.00  0.00    +0.000 A 
ATOM     17  C   UNL     1      46.887   8.985  12.297  0.00  0.00    +0.000 A 
ATOM     18  C   UNL     1      45.536   8.689  12.477  0.00  0.00    +0.000 A 
ATOM     19  C   UNL     1      45.086   7.373  12.376  0.00  0.00    +0.000 A 
ATOM     20  C   UNL     1      45.987   6.336  12.102  0.00  0.00    +0.000 A 
ATOM     21  C   UNL     1      47.347   6.642  11.940  0.00  0.00    +0.000 A 
BRANCH  16  22
ATOM     22  C   UNL     1      49.254   8.285  11.760  0.00  0.00    +0.000 C 
BRANCH  22  23
ATOM     23  N   UNL     1      50.107   7.165  12.142  0.00  0.00    +0.000 NA
ATOM     24  H   UNL     1      51.081   7.451  12.086  0.00  0.00    +0.000 HD
ATOM     25  H   UNL     1      49.985   6.414  11.463  0.00  0.00    +0.000 HD
ENDBRANCH  22  23
ENDBRANCH  16  22
ENDBRANCH  15  20
ENDBRANCH  14  15
ENDBRANCH   1  14
TORSDOF 7
ENDMDL
MODEL 6
REMARK VINA RESULT:    -6.527      2.023      2.848
REMARK INTER + INTRA:          -9.762
REMARK INTER:                  -9.308
REMARK INTRA:                  -0.454
REMARK UNBOUND:                -0.756
REMARK  Name = 
REMARK  7 active torsions:
REMARK  status: ('A' for Active; 'I' for Inactive)
REMARK    1  A    between atoms: N_1  and  C_2
REMARK    2  A    between atoms: C_2  and  C_3
REMARK    3  A    between atoms: C_7  and  C_8
REMARK    4  A    between atoms: C_8  and  C_9
REMARK    5  A    between atoms: C_9  and  N_10
REMARK    6  A    between atoms: N_10  and  C_11
REMARK    7  A    between atoms: C_14  and  C_15
REMARK                            x       y       z     vdW  Elec       q    Type
REMARK                         _______ _______ _______ _____ _____    ______ ____
ROOT
ATOM      1  N   UNL     1      46.235   6.259  11.381  0.00  0.00    +0.000 N 
ATOM      2  H   UNL     1      46.058   7.260  11.451  0.00  0.00    +0.000 HD
ENDROOT
BRANCH   1   3
ATOM      3  C   UNL     1      46.611   5.705  12.617  0.00  0.00    +0.000 A 
ATOM      4  C   UNL     1      47.538   6.307  13.475  0.00  0.00    +0.000 A 
ATOM      5  C   UNL     1      47.808   5.764  14.730  0.00  0.00    +0.000 A 
ATOM      6  C   UNL     1      47.116   4.630  15.122  0.00  0.00    +0.000 A 
ATOM      7  N   UNL     1      46.184   4.013  14.347  0.00  0.00    +0.000 NA
ATOM      8  C   UNL     1      45.951   4.581  13.133  0.00  0.00    +0.000 A 
BRANCH   6   9
ATOM      9  C   UNL     1      47.368   4.051  16.482  0.00  0.00    +0.000 C 
ATOM     10  N   UNL     1      48.554   4.408  17.062  0.00  0.00    +0.000 N 
ATOM     11  O   UNL     1      46.577   3.306  17.041  0.00  0.00    +0.000 OA
ATOM     12  H   UNL     1      49.200   5.001  16.553  0.00  0.00    +0.000 HD
ATOM     13  H   UNL     1      48.806   4.017  17.957  0.00  0.00    +0.000 HD
ENDBRANCH   6   9
ENDBRANCH   1   3
BRANCH   1  14
ATOM     14  C   UNL     1      45.198   5.555  10.615  0.00  0.00    +0.000 C 
BRANCH  14  15
ATOM     15  C   UNL     1      45.588   5.419   9.138  0.00  0.00    +0.000 C 
BRANCH  15  20
ATOM     16  C   UNL     1      46.601   2.175   7.389  0.00  0.00    +0.000 A 
ATOM     17  C   UNL     1      45.841   1.238   8.100  0.00  0.00    +0.000 A 
ATOM     18  C   UNL     1      44.969   1.654   9.105  0.00  0.00    +0.000 A 
ATOM     19  C   UNL     1      44.859   3.008   9.423  0.00  0.00    +0.000 A 
ATOM     20  C   UNL     1      45.616   3.962   8.732  0.00  0.00    +0.000 A 
ATOM     21  C   UNL     1      46.478   3.534   7.710  0.00  0.00    +0.000 A 
BRANCH  16  22
ATOM     22  C   UNL     1      47.602   1.726   6.355  0.00  0.00    +0.000 C 
BRANCH  22  23
ATOM     23  N   UNL     1      48.738   2.638   6.314  0.00  0.00    +0.000 NA
ATOM     24  H   UNL     1      49.553   2.178   6.713  0.00  0.00    +0.000 HD
ATOM     25  H   UNL     1      48.537   3.441   6.909  0.00  0.00    +0.000 HD
ENDBRANCH  22  23
ENDBRANCH  16  22
ENDBRANCH  15  20
ENDBRANCH  14  15
ENDBRANCH   1  14
TORSDOF 7
ENDMDL
MODEL 7
REMARK VINA RESULT:    -6.067      4.085      5.940
REMARK INTER + INTRA:          -9.128
REMARK INTER:                  -8.704
REMARK INTRA:                  -0.423
REMARK UNBOUND:                -0.756
REMARK  Name = 
REMARK  7 active torsions:
REMARK  status: ('A' for Active; 'I' for Inactive)
REMARK    1  A    between atoms: N_1  and  C_2
REMARK    2  A    between atoms: C_2  and  C_3
REMARK    3  A    between atoms: C_7  and  C_8
REMARK    4  A    between atoms: C_8  and  C_9
REMARK    5  A    between atoms: C_9  and  N_10
REMARK    6  A    between atoms: N_10  and  C_11
REMARK    7  A    between atoms: C_14  and  C_15
REMARK                            x       y       z     vdW  Elec       q    Type
REMARK                         _______ _______ _______ _____ _____    ______ ____
ROOT
ATOM      1  N   UNL     1      47.262   4.548  16.399  0.00  0.00    +0.000 N 
ATOM      2  H   UNL     1      46.592   4.431  17.157  0.00  0.00    +0.000 HD
ENDROOT
BRANCH   1   3
ATOM      3  C   UNL     1      48.470   3.877  16.659  0.00  0.00    +0.000 A 
ATOM      4  C   UNL     1      49.503   4.432  17.421  0.00  0.00    +0.000 A 
ATOM      5  C   UNL     1      50.644   3.690  17.727  0.00  0.00    +0.000 A 
ATOM      6  C   UNL     1      50.719   2.381  17.281  0.00  0.00    +0.000 A 
ATOM      7  N   UNL     1      49.737   1.775  16.559  0.00  0.00    +0.000 NA
ATOM      8  C   UNL     1      48.643   2.536  16.290  0.00  0.00    +0.000 A 
BRANCH   6   9
ATOM      9  C   UNL     1      51.922   1.556  17.628  0.00  0.00    +0.000 C 
ATOM     10  N   UNL     1      51.658   0.295  18.086  0.00  0.00    +0.000 N 
ATOM     11  O   UNL     1      53.065   1.975  17.518  0.00  0.00    +0.000 OA
ATOM     12  H   UNL     1      50.696  -0.005  18.196  0.00  0.00    +0.000 HD
ATOM     13  H   UNL     1      52.422  -0.296  18.381  0.00  0.00    +0.000 HD
ENDBRANCH   6   9
ENDBRANCH   1   3
BRANCH   1  14
ATOM     14  C   UNL     1      46.656   4.355  15.075  0.00  0.00    +0.000 C 
BRANCH  14  15
ATOM     15  C   UNL     1      47.205   5.361  14.055  0.00  0.00    +0.000 C 
BRANCH  15  20
ATOM     16  C   UNL     1      44.840   4.062  11.348  0.00  0.00    +0.000 A 
ATOM     17  C   UNL     1      44.914   5.098  10.408  0.00  0.00    +0.000 A 
ATOM     18  C   UNL     1      45.759   6.186  10.623  0.00  0.00    +0.000 A 
ATOM     19  C   UNL     1      46.526   6.261  11.785  0.00  0.00    +0.000 A 
ATOM     20  C   UNL     1      46.462   5.241  12.743  0.00  0.00    +0.000 A 
ATOM     21  C   UNL     1      45.622   4.142  12.510  0.00  0.00    +0.000 A 
BRANCH  16  22
ATOM     22  C   UNL     1      43.873   2.923  11.160  0.00  0.00    +0.000 C 
BRANCH  22  23
ATOM     23  N   UNL     1      43.505   2.346  12.447  0.00  0.00    +0.000 NA
ATOM     24  H   UNL     1      43.802   1.374  12.477  0.00  0.00    +0.000 HD
ATOM     25  H   UNL     1      42.489   2.342  12.527  0.00  0.00    +0.000 HD
ENDBRANCH  22  23
ENDBRANCH  16  22
ENDBRANCH  15  20
ENDBRANCH  14  15
ENDBRANCH   1  14
TORSDOF 7
ENDMDL
MODEL 8
REMARK VINA RESULT:    -5.934      2.725      4.542
REMARK INTER + INTRA:          -8.944
REMARK INTER:                  -8.355
REMARK INTRA:                  -0.589
REMARK UNBOUND:                -0.756
REMARK  Name = 
REMARK  7 active torsions:
REMARK  status: ('A' for Active; 'I' for Inactive)
REMARK    1  A    between atoms: N_1  and  C_2
REMARK    2  A    between atoms: C_2  and  C_3
REMARK    3  A    between atoms: C_7  and  C_8
REMARK    4  A    between atoms: C_8  and  C_9
REMARK    5  A    between atoms: C_9  and  N_10
REMARK    6  A    between atoms: N_10  and  C_11
REMARK    7  A    between atoms: C_14  and  C_15
REMARK                            x       y       z     vdW  Elec       q    Type
REMARK                         _______ _______ _______ _____ _____    ______ ____
ROOT
ATOM      1  N   UNL     1      47.038   6.260  12.492  0.00  0.00    +0.000 N 
ATOM      2  H   UNL     1      47.878   6.477  11.959  0.00  0.00    +0.000 HD
ENDROOT
BRANCH   1   3
ATOM      3  C   UNL     1      47.337   5.619  13.707  0.00  0.00    +0.000 A 
ATOM      4  C   UNL     1      48.041   6.238  14.744  0.00  0.00    +0.000 A 
ATOM      5  C   UNL     1      48.232   5.592  15.965  0.00  0.00    +0.000 A 
ATOM      6  C   UNL     1      47.684   4.331  16.137  0.00  0.00    +0.000 A 
ATOM      7  N   UNL     1      46.966   3.687  15.177  0.00  0.00    +0.000 NA
ATOM      8  C   UNL     1      46.802   4.359  14.007  0.00  0.00    +0.000 A 
BRANCH   6   9
ATOM      9  C   UNL     1      47.849   3.634  17.453  0.00  0.00    +0.000 C 
ATOM     10  N   UNL     1      46.900   2.693  17.744  0.00  0.00    +0.000 N 
ATOM     11  O   UNL     1      48.764   3.884  18.225  0.00  0.00    +0.000 OA
ATOM     12  H   UNL     1      46.137   2.537  17.094  0.00  0.00    +0.000 HD
ATOM     13  H   UNL     1      46.927   2.219  18.634  0.00  0.00    +0.000 HD
ENDBRANCH   6   9
ENDBRANCH   1   3
BRANCH   1  14
ATOM     14  C   UNL     1      46.094   7.385  12.538  0.00  0.00    +0.000 C 
BRANCH  14  15
ATOM     15  C   UNL     1      44.998   7.241  11.474  0.00  0.00    +0.000 C 
BRANCH  15  20
ATOM     16  C   UNL     1      44.085   3.632  10.610  0.00  0.00    +0.000 A 
ATOM     17  C   UNL     1      43.381   3.251  11.758  0.00  0.00    +0.000 A 
ATOM     18  C   UNL     1      43.158   4.168  12.786  0.00  0.00    +0.000 A 
ATOM     19  C   UNL     1      43.651   5.468  12.685  0.00  0.00    +0.000 A 
ATOM     20  C   UNL     1      44.366   5.869  11.549  0.00  0.00    +0.000 A 
ATOM     21  C   UNL     1      44.569   4.945  10.514  0.00  0.00    +0.000 A 
BRANCH  16  22
ATOM     22  C   UNL     1      44.395   2.627   9.531  0.00  0.00    +0.000 C 
BRANCH  22  23
ATOM     23  N   UNL     1      44.402   3.267   8.221  0.00  0.00    +0.000 NA
ATOM     24  H   UNL     1      44.085   2.601   7.521  0.00  0.00    +0.000 HD
ATOM     25  H   UNL     1      45.362   3.508   7.979  0.00  0.00    +0.000 HD
ENDBRANCH  22  23
ENDBRANCH  16  22
ENDBRANCH  15  20
ENDBRANCH  14  15
ENDBRANCH   1  14
TORSDOF 7
ENDMDL
MODEL 9
REMARK VINA RESULT:    -5.929      4.185      7.864
REMARK INTER + INTRA:          -8.938
REMARK INTER:                  -8.234
REMARK INTRA:                  -0.704
REMARK UNBOUND:                -0.756
REMARK  Name = 
REMARK  7 active torsions:
REMARK  status: ('A' for Active; 'I' for Inactive)
REMARK    1  A    between atoms: N_1  and  C_2
REMARK    2  A    between atoms: C_2  and  C_3
REMARK    3  A    between atoms: C_7  and  C_8
REMARK    4  A    between atoms: C_8  and  C_9
REMARK    5  A    between atoms: C_9  and  N_10
REMARK    6  A    between atoms: N_10  and  C_11
REMARK    7  A    between atoms: C_14  and  C_15
REMARK                            x       y       z     vdW  Elec       q    Type
REMARK                         _______ _______ _______ _____ _____    ______ ____
ROOT
ATOM      1  N   UNL     1      47.328   7.498  13.823  0.00  0.00    +0.000 N 
ATOM      2  H   UNL     1      47.337   8.328  13.233  0.00  0.00    +0.000 HD
ENDROOT
BRANCH   1   3
ATOM      3  C   UNL     1      46.499   6.491  13.299  0.00  0.00    +0.000 A 
ATOM      4  C   UNL     1      46.807   5.129  13.381  0.00  0.00    +0.000 A 
ATOM      5  C   UNL     1      45.908   4.164  12.927  0.00  0.00    +0.000 A 
ATOM      6  C   UNL     1      44.690   4.584  12.418  0.00  0.00    +0.000 A 
ATOM      7  N   UNL     1      44.320   5.891  12.336  0.00  0.00    +0.000 NA
ATOM      8  C   UNL     1      45.227   6.794  12.795  0.00  0.00    +0.000 A 
BRANCH   6   9
ATOM      9  C   UNL     1      43.697   3.561  11.957  0.00  0.00    +0.000 C 
ATOM     10  N   UNL     1      43.790   2.337  12.560  0.00  0.00    +0.000 N 
ATOM     11  O   UNL     1      42.860   3.791  11.097  0.00  0.00    +0.000 OA
ATOM     12  H   UNL     1      44.519   2.172  13.245  0.00  0.00    +0.000 HD
ATOM     13  H   UNL     1      43.180   1.589  12.263  0.00  0.00    +0.000 HD
ENDBRANCH   6   9
ENDBRANCH   1   3
BRANCH   1  14
ATOM     14  C   UNL     1      48.673   7.103  14.262  0.00  0.00    +0.000 C 
BRANCH  14  15
ATOM     15  C   UNL     1      48.886   7.399  15.752  0.00  0.00    +0.000 C 
BRANCH  15  20
ATOM     16  C   UNL     1      48.857   3.864  17.205  0.00  0.00    +0.000 A 
ATOM     17  C   UNL     1      50.182   3.743  17.643  0.00  0.00    +0.000 A 
ATOM     18  C   UNL     1      51.067   4.814  17.516  0.00  0.00    +0.000 A 
ATOM     19  C   UNL     1      50.645   6.009  16.935  0.00  0.00    +0.000 A 
ATOM     20  C   UNL     1      49.327   6.150  16.481  0.00  0.00    +0.000 A 
ATOM     21  C   UNL     1      48.440   5.073  16.629  0.00  0.00    +0.000 A 
BRANCH  16  22
ATOM     22  C   UNL     1      47.918   2.688  17.268  0.00  0.00    +0.000 C 
BRANCH  22  23
ATOM     23  N   UNL     1      46.575   3.124  17.631  0.00  0.00    +0.000 NA
ATOM     24  H   UNL     1      45.988   2.309  17.787  0.00  0.00    +0.000 HD
ATOM     25  H   UNL     1      46.170   3.627  16.843  0.00  0.00    +0.000 HD
ENDBRANCH  22  23
ENDBRANCH  16  22
ENDBRANCH  15  20
ENDBRANCH  14  15
ENDBRANCH   1  14
TORSDOF 7
ENDMDL
