MODEL 1
REMARK VINA RESULT:    -5.975      0.000      0.000
REMARK INTER + INTRA:          -8.196
REMARK INTER:                  -7.372
REMARK INTRA:                  -0.824
REMARK UNBOUND:                -0.824
REMARK  Name = 
REMARK  5 active torsions:
REMARK  status: ('A' for Active; 'I' for Inactive)
REMARK    1  A    between atoms: C_1  and  N_2
REMARK    2  A    between atoms: N_2  and  C_15
REMARK    3  A    between atoms: C_3  and  C_5
REMARK    4  A    between atoms: C_18  and  C_19
REMARK    5  A    between atoms: C_19  and  N_20
REMARK                            x       y       z     vdW  Elec       q    Type
REMARK                         _______ _______ _______ _____ _____    ______ ____
ROOT
ATOM      1  C   UNL     1      49.984   7.855  11.779  0.00  0.00    +0.000 C 
ATOM      2  N   UNL     1      49.440   7.602  13.111  0.00  0.00    +0.000 N 
ATOM      3  C   UNL     1      50.253   7.681  14.268  0.00  0.00    +0.000 C 
ATOM      4  O   UNL     1      51.454   7.874  14.193  0.00  0.00    +0.000 OA
ENDROOT
BRANCH   3   5
ATOM      5  C   UNL     1      49.557   7.606  15.583  0.00  0.00    +0.000 A 
ATOM      6  C   UNL     1      49.443   6.436  16.318  0.00  0.00    +0.000 A 
ATOM      7  S   UNL     1      48.736   6.627  17.852  0.00  0.00    +0.000 S 
ATOM      8  C   UNL     1      48.436   8.266  17.538  0.00  0.00    +0.000 A 
ATOM      9  N   UNL     1      47.834   9.045  18.480  0.00  0.00    +0.000 NA
ATOM     10  C   UNL     1      47.703  10.276  18.132  0.00  0.00    +0.000 A 
ATOM     11  N   UNL     1      48.096  10.800  16.928  0.00  0.00    +0.000 N 
ATOM     12  C   UNL     1      48.636  10.043  15.918  0.00  0.00    +0.000 A 
ATOM     13  O   UNL     1      48.869  10.543  14.820  0.00  0.00    +0.000 OA
ATOM     14  C   UNL     1      48.882   8.668  16.284  0.00  0.00    +0.000 A 
ATOM     15  H   UNL     1      47.943  11.770  16.707  0.00  0.00    +0.000 HD
ENDBRANCH   3   5
BRANCH   2  16
ATOM     16  C   UNL     1      48.081   7.180  13.117  0.00  0.00    +0.000 A 
ATOM     17  C   UNL     1      47.803   5.814  13.227  0.00  0.00    +0.000 A 
ATOM     18  C   UNL     1      46.485   5.362  13.142  0.00  0.00    +0.000 A 
ATOM     19  C   UNL     1      45.425   6.265  12.979  0.00  0.00    +0.000 A 
ATOM     20  C   UNL     1      45.723   7.632  12.852  0.00  0.00    +0.000 A 
ATOM     21  C   UNL     1      47.044   8.088  12.903  0.00  0.00    +0.000 A 
BRANCH  19  22
ATOM     22  C   UNL     1      43.985   5.786  12.917  0.00  0.00    +0.000 C 
BRANCH  22  23
ATOM     23  N   UNL     1      43.676   4.913  11.762  0.00  0.00    +0.000 NA
ATOM     24  C   UNL     1      44.517   5.243  10.601  0.00  0.00    +0.000 C 
ATOM     25  C   UNL     1      44.471   4.219   9.467  0.00  0.00    +0.000 C 
ATOM     26  C   UNL     1      44.693   2.806   9.978  0.00  0.00    +0.000 C 
ATOM     27  C   UNL     1      43.657   2.486  11.042  0.00  0.00    +0.000 C 
ATOM     28  C   UNL     1      43.701   3.502  12.185  0.00  0.00    +0.000 C 
ENDBRANCH  22  23
ENDBRANCH  19  22
ENDBRANCH   2  16
TORSDOF 4
ENDMDL
MODEL 2
REMARK VINA RESULT:    -5.914      1.884      2.906
REMARK INTER + INTRA:          -8.121
REMARK INTER:                  -6.868
REMARK INTRA:                  -1.253
REMARK UNBOUND:                -0.824
REMARK  Name = 
REMARK  5 active torsions:
REMARK  status: ('A' for Active; 'I' for Inactive)
REMARK    1  A    between atoms: C_1  and  N_2
REMARK    2  A    between atoms: N_2  and  C_15
REMARK    3  A    between atoms: C_3  and  C_5
REMARK    4  A    between atoms: C_18  and  C_19
REMARK    5  A    between atoms: C_19  and  N_20
REMARK                            x       y       z     vdW  Elec       q    Type
REMARK                         _______ _______ _______ _____ _____    ______ ____
ROOT
ATOM      1  C   UNL     1      51.321   8.945  13.580  0.00  0.00    +0.000 C 
ATOM      2  N   UNL     1      50.383   8.547  14.627  0.00  0.00    +0.000 N 
ATOM      3  C   UNL     1      50.780   8.476  15.984  0.00  0.00    +0.000 C 
ATOM      4  O   UNL     1      51.938   8.656  16.322  0.00  0.00    +0.000 OA
ENDROOT
BRANCH   3   5
ATOM      5  C   UNL     1      49.701   8.259  16.988  0.00  0.00    +0.000 A 
ATOM      6  C   UNL     1      49.026   9.294  17.616  0.00  0.00    +0.000 A 
ATOM      7  S   UNL     1      47.738   8.803  18.611  0.00  0.00    +0.000 S 
ATOM      8  C   UNL     1      48.117   7.172  18.340  0.00  0.00    +0.000 A 
ATOM      9  N   UNL     1      47.369   6.191  18.918  0.00  0.00    +0.000 NA
ATOM     10  C   UNL     1      47.737   5.001  18.597  0.00  0.00    +0.000 A 
ATOM     11  N   UNL     1      48.790   4.695  17.775  0.00  0.00    +0.000 N 
ATOM     12  C   UNL     1      49.620   5.645  17.231  0.00  0.00    +0.000 A 
ATOM     13  O   UNL     1      50.613   5.311  16.590  0.00  0.00    +0.000 OA
ATOM     14  C   UNL     1      49.204   7.003  17.490  0.00  0.00    +0.000 A 
ATOM     15  H   UNL     1      49.041   3.740  17.583  0.00  0.00    +0.000 HD
ENDBRANCH   3   5
BRANCH   2  16
ATOM     16  C   UNL     1      49.104   8.151  14.147  0.00  0.00    +0.000 A 
ATOM     17  C   UNL     1      48.915   6.820  13.759  0.00  0.00    +0.000 A 
ATOM     18  C   UNL     1      47.701   6.423  13.198  0.00  0.00    +0.000 A 
ATOM     19  C   UNL     1      46.648   7.336  13.045  0.00  0.00    +0.000 A 
ATOM     20  C   UNL     1      46.860   8.673  13.422  0.00  0.00    +0.000 A 
ATOM     21  C   UNL     1      48.086   9.084  13.955  0.00  0.00    +0.000 A 
BRANCH  19  22
ATOM     22  C   UNL     1      45.312   6.908  12.464  0.00  0.00    +0.000 C 
BRANCH  22  23
ATOM     23  N   UNL     1      45.191   5.455  12.205  0.00  0.00    +0.000 NA
ATOM     24  C   UNL     1      44.089   4.863  12.980  0.00  0.00    +0.000 C 
ATOM     25  C   UNL     1      43.708   3.441  12.566  0.00  0.00    +0.000 C 
ATOM     26  C   UNL     1      43.503   3.330  11.065  0.00  0.00    +0.000 C 
ATOM     27  C   UNL     1      44.764   3.786  10.350  0.00  0.00    +0.000 C 
ATOM     28  C   UNL     1      45.150   5.210  10.753  0.00  0.00    +0.000 C 
ENDBRANCH  22  23
ENDBRANCH  19  22
ENDBRANCH   2  16
TORSDOF 4
ENDMDL
MODEL 3
REMARK VINA RESULT:    -5.611      2.025      2.813
REMARK INTER + INTRA:          -7.747
REMARK INTER:                  -6.572
REMARK INTRA:                  -1.176
REMARK UNBOUND:                -0.824
REMARK  Name = 
REMARK  5 active torsions:
REMARK  status: ('A' for Active; 'I' for Inactive)
REMARK    1  A    between atoms: C_1  and  N_2
REMARK    2  A    between atoms: N_2  and  C_15
REMARK    3  A    between atoms: C_3  and  C_5
REMARK    4  A    between atoms: C_18  and  C_19
REMARK    5  A    between atoms: C_19  and  N_20
REMARK                            x       y       z     vdW  Elec       q    Type
REMARK                         _______ _______ _______ _____ _____    ______ ____
ROOT
ATOM      1  C   UNL     1      50.303  10.706  14.870  0.00  0.00    +0.000 C 
ATOM      2  N   UNL     1      50.058   9.333  15.306  0.00  0.00    +0.000 N 
ATOM      3  C   UNL     1      50.708   8.794  16.443  0.00  0.00    +0.000 C 
ATOM      4  O   UNL     1      51.560   9.420  17.050  0.00  0.00    +0.000 OA
ENDROOT
BRANCH   3   5
ATOM      5  C   UNL     1      50.236   7.461  16.916  0.00  0.00    +0.000 A 
ATOM      6  C   UNL     1      50.905   6.278  16.646  0.00  0.00    +0.000 A 
ATOM      7  S   UNL     1      50.258   4.905  17.412  0.00  0.00    +0.000 S 
ATOM      8  C   UNL     1      48.976   5.825  18.033  0.00  0.00    +0.000 A 
ATOM      9  N   UNL     1      48.026   5.237  18.813  0.00  0.00    +0.000 NA
ATOM     10  C   UNL     1      47.135   6.054  19.252  0.00  0.00    +0.000 A 
ATOM     11  N   UNL     1      47.087   7.394  18.971  0.00  0.00    +0.000 N 
ATOM     12  C   UNL     1      47.974   8.018  18.129  0.00  0.00    +0.000 A 
ATOM     13  O   UNL     1      47.821   9.199  17.826  0.00  0.00    +0.000 OA
ATOM     14  C   UNL     1      49.047   7.166  17.673  0.00  0.00    +0.000 A 
ATOM     15  H   UNL     1      46.347   7.976  19.328  0.00  0.00    +0.000 HD
ENDBRANCH   3   5
BRANCH   2  16
ATOM     16  C   UNL     1      49.212   8.586  14.440  0.00  0.00    +0.000 A 
ATOM     17  C   UNL     1      49.797   7.713  13.518  0.00  0.00    +0.000 A 
ATOM     18  C   UNL     1      48.999   7.037  12.594  0.00  0.00    +0.000 A 
ATOM     19  C   UNL     1      47.605   7.197  12.597  0.00  0.00    +0.000 A 
ATOM     20  C   UNL     1      47.035   8.091  13.519  0.00  0.00    +0.000 A 
ATOM     21  C   UNL     1      47.833   8.796  14.425  0.00  0.00    +0.000 A 
BRANCH  19  22
ATOM     22  C   UNL     1      46.724   6.442  11.617  0.00  0.00    +0.000 C 
BRANCH  22  23
ATOM     23  N   UNL     1      45.390   6.075  12.144  0.00  0.00    +0.000 NA
ATOM     24  C   UNL     1      44.317   6.524  11.243  0.00  0.00    +0.000 C 
ATOM     25  C   UNL     1      42.937   5.946  11.557  0.00  0.00    +0.000 C 
ATOM     26  C   UNL     1      42.984   4.435  11.716  0.00  0.00    +0.000 C 
ATOM     27  C   UNL     1      43.984   4.075  12.801  0.00  0.00    +0.000 C 
ATOM     28  C   UNL     1      45.371   4.643  12.493  0.00  0.00    +0.000 C 
ENDBRANCH  22  23
ENDBRANCH  19  22
ENDBRANCH   2  16
TORSDOF 4
ENDMDL
MODEL 4
REMARK VINA RESULT:    -5.457      1.389      2.058
REMARK INTER + INTRA:          -7.557
REMARK INTER:                  -6.501
REMARK INTRA:                  -1.056
REMARK UNBOUND:                -0.824
REMARK  Name = 
REMARK  5 active torsions:
REMARK  status: ('A' for Active; 'I' for Inactive)
REMARK    1  A    between atoms: C_1  and  N_2
REMARK    2  A    between atoms: N_2  and  C_15
REMARK    3  A    between atoms: C_3  and  C_5
REMARK    4  A    between atoms: C_18  and  C_19
REMARK    5  A    between atoms: C_19  and  N_20
REMARK                            x       y       z     vdW  Elec       q    Type
REMARK                         _______ _______ _______ _____ _____    ______ ____
ROOT
ATOM      1  C   UNL     1      50.536  10.525  12.757  0.00  0.00    +0.000 C 
ATOM      2  N   UNL     1      49.965   9.490  13.616  0.00  0.00    +0.000 N 
ATOM      3  C   UNL     1      50.619   9.072  14.801  0.00  0.00    +0.000 C 
ATOM      4  O   UNL     1      51.722   9.492  15.105  0.00  0.00    +0.000 OA
ENDROOT
BRANCH   3   5
ATOM      5  C   UNL     1      49.856   8.163  15.702  0.00  0.00    +0.000 A 
ATOM      6  C   UNL     1      49.910   6.781  15.613  0.00  0.00    +0.000 A 
ATOM      7  S   UNL     1      49.072   5.956  16.839  0.00  0.00    +0.000 S 
ATOM      8  C   UNL     1      48.494   7.423  17.466  0.00  0.00    +0.000 A 
ATOM      9  N   UNL     1      47.690   7.428  18.566  0.00  0.00    +0.000 NA
ATOM     10  C   UNL     1      47.358   8.606  18.961  0.00  0.00    +0.000 A 
ATOM     11  N   UNL     1      47.731   9.775  18.354  0.00  0.00    +0.000 N 
ATOM     12  C   UNL     1      48.474   9.820  17.200  0.00  0.00    +0.000 A 
ATOM     13  O   UNL     1      48.688  10.892  16.637  0.00  0.00    +0.000 OA
ATOM     14  C   UNL     1      48.946   8.530  16.757  0.00  0.00    +0.000 A 
ATOM     15  H   UNL     1      47.416  10.667  18.700  0.00  0.00    +0.000 HD
ENDBRANCH   3   5
BRANCH   2  16
ATOM     16  C   UNL     1      48.780   8.892  13.103  0.00  0.00    +0.000 A 
ATOM     17  C   UNL     1      47.542   9.373  13.540  0.00  0.00    +0.000 A 
ATOM     18  C   UNL     1      46.366   8.746  13.127  0.00  0.00    +0.000 A 
ATOM     19  C   UNL     1      46.405   7.653  12.249  0.00  0.00    +0.000 A 
ATOM     20  C   UNL     1      47.657   7.171  11.835  0.00  0.00    +0.000 A 
ATOM     21  C   UNL     1      48.841   7.774  12.272  0.00  0.00    +0.000 A 
BRANCH  19  22
ATOM     22  C   UNL     1      45.129   6.983  11.769  0.00  0.00    +0.000 C 
BRANCH  22  23
ATOM     23  N   UNL     1      45.069   5.524  12.015  0.00  0.00    +0.000 NA
ATOM     24  C   UNL     1      43.979   5.182  12.942  0.00  0.00    +0.000 C 
ATOM     25  C   UNL     1      43.661   3.689  13.031  0.00  0.00    +0.000 C 
ATOM     26  C   UNL     1      43.487   3.069  11.655  0.00  0.00    +0.000 C 
ATOM     27  C   UNL     1      44.740   3.311  10.831  0.00  0.00    +0.000 C 
ATOM     28  C   UNL     1      45.062   4.803  10.730  0.00  0.00    +0.000 C 
ENDBRANCH  22  23
ENDBRANCH  19  22
ENDBRANCH   2  16
TORSDOF 4
ENDMDL
MODEL 5
REMARK VINA RESULT:    -5.336      3.152      5.464
REMARK INTER + INTRA:          -7.407
REMARK INTER:                  -6.678
REMARK INTRA:                  -0.730
REMARK UNBOUND:                -0.824
REMARK  Name = 
REMARK  5 active torsions:
REMARK  status: ('A' for Active; 'I' for Inactive)
REMARK    1  A    between atoms: C_1  and  N_2
REMARK    2  A    between atoms: N_2  and  C_15
REMARK    3  A    between atoms: C_3  and  C_5
REMARK    4  A    between atoms: C_18  and  C_19
REMARK    5  A    between atoms: C_19  and  N_20
REMARK                            x       y       z     vdW  Elec       q    Type
REMARK                         _______ _______ _______ _____ _____    ______ ____
ROOT
ATOM      1  C   UNL     1      50.050   9.233  19.028  0.00  0.00    +0.000 C 
ATOM      2  N   UNL     1      49.678   7.957  18.423  0.00  0.00    +0.000 N 
ATOM      3  C   UNL     1      49.610   6.768  19.191  0.00  0.00    +0.000 C 
ATOM      4  O   UNL     1      49.943   6.745  20.364  0.00  0.00    +0.000 OA
ENDROOT
BRANCH   3   5
ATOM      5  C   UNL     1      49.026   5.571  18.523  0.00  0.00    +0.000 A 
ATOM      6  C   UNL     1      47.677   5.443  18.234  0.00  0.00    +0.000 A 
ATOM      7  S   UNL     1      47.270   4.056  17.339  0.00  0.00    +0.000 S 
ATOM      8  C   UNL     1      48.873   3.506  17.416  0.00  0.00    +0.000 A 
ATOM      9  N   UNL     1      49.222   2.331  16.821  0.00  0.00    +0.000 NA
ATOM     10  C   UNL     1      50.474   2.051  16.919  0.00  0.00    +0.000 A 
ATOM     11  N   UNL     1      51.405   2.818  17.569  0.00  0.00    +0.000 N 
ATOM     12  C   UNL     1      51.089   3.968  18.249  0.00  0.00    +0.000 A 
ATOM     13  O   UNL     1      51.944   4.558  18.906  0.00  0.00    +0.000 OA
ATOM     14  C   UNL     1      49.712   4.375  18.104  0.00  0.00    +0.000 A 
ATOM     15  H   UNL     1      52.367   2.530  17.630  0.00  0.00    +0.000 HD
ENDBRANCH   3   5
BRANCH   2  16
ATOM     16  C   UNL     1      49.500   8.008  17.012  0.00  0.00    +0.000 A 
ATOM     17  C   UNL     1      48.405   8.709  16.498  0.00  0.00    +0.000 A 
ATOM     18  C   UNL     1      48.152   8.699  15.126  0.00  0.00    +0.000 A 
ATOM     19  C   UNL     1      49.004   8.018  14.245  0.00  0.00    +0.000 A 
ATOM     20  C   UNL     1      50.089   7.303  14.779  0.00  0.00    +0.000 A 
ATOM     21  C   UNL     1      50.329   7.282  16.157  0.00  0.00    +0.000 A 
BRANCH  19  22
ATOM     22  C   UNL     1      48.756   8.026  12.746  0.00  0.00    +0.000 C 
BRANCH  22  23
ATOM     23  N   UNL     1      47.659   7.137  12.299  0.00  0.00    +0.000 NA
ATOM     24  C   UNL     1      47.565   5.936  13.144  0.00  0.00    +0.000 C 
ATOM     25  C   UNL     1      46.295   5.109  12.939  0.00  0.00    +0.000 C 
ATOM     26  C   UNL     1      45.047   5.974  12.996  0.00  0.00    +0.000 C 
ATOM     27  C   UNL     1      45.151   7.077  11.956  0.00  0.00    +0.000 C 
ATOM     28  C   UNL     1      46.416   7.915  12.158  0.00  0.00    +0.000 C 
ENDBRANCH  22  23
ENDBRANCH  19  22
ENDBRANCH   2  16
TORSDOF 4
ENDMDL
MODEL 6
REMARK VINA RESULT:    -5.302      1.833      2.879
REMARK INTER + INTRA:          -7.366
REMARK INTER:                  -6.586
REMARK INTRA:                  -0.780
REMARK UNBOUND:                -0.824
REMARK  Name = 
REMARK  5 active torsions:
REMARK  status: ('A' for Active; 'I' for Inactive)
REMARK    1  A    between atoms: C_1  and  N_2
REMARK    2  A    between atoms: N_2  and  C_15
REMARK    3  A    between atoms: C_3  and  C_5
REMARK    4  A    between atoms: C_18  and  C_19
REMARK    5  A    between atoms: C_19  and  N_20
REMARK                            x       y       z     vdW  Elec       q    Type
REMARK                         _______ _______ _______ _____ _____    ______ ____
ROOT
ATOM      1  C   UNL     1      48.644  10.648  11.038  0.00  0.00    +0.000 C 
ATOM      2  N   UNL     1      48.821   9.986  12.329  0.00  0.00    +0.000 N 
ATOM      3  C   UNL     1      49.760  10.460  13.278  0.00  0.00    +0.000 C 
ATOM      4  O   UNL     1      50.517  11.381  13.023  0.00  0.00    +0.000 OA
ENDROOT
BRANCH   3   5
ATOM      5  C   UNL     1      49.716   9.839  14.632  0.00  0.00    +0.000 A 
ATOM      6  C   UNL     1      48.805  10.210  15.609  0.00  0.00    +0.000 A 
ATOM      7  S   UNL     1      48.852   9.262  17.019  0.00  0.00    +0.000 S 
ATOM      8  C   UNL     1      50.185   8.398  16.425  0.00  0.00    +0.000 A 
ATOM      9  N   UNL     1      50.738   7.397  17.166  0.00  0.00    +0.000 NA
ATOM     10  C   UNL     1      51.715   6.797  16.583  0.00  0.00    +0.000 A 
ATOM     11  N   UNL     1      52.206   7.112  15.343  0.00  0.00    +0.000 N 
ATOM     12  C   UNL     1      51.735   8.160  14.591  0.00  0.00    +0.000 A 
ATOM     13  O   UNL     1      52.283   8.465  13.535  0.00  0.00    +0.000 OA
ATOM     14  C   UNL     1      50.583   8.817  15.160  0.00  0.00    +0.000 A 
ATOM     15  H   UNL     1      52.991   6.618  14.952  0.00  0.00    +0.000 HD
ENDBRANCH   3   5
BRANCH   2  16
ATOM     16  C   UNL     1      48.057   8.796  12.486  0.00  0.00    +0.000 A 
ATOM     17  C   UNL     1      46.692   8.907  12.772  0.00  0.00    +0.000 A 
ATOM     18  C   UNL     1      45.938   7.761  13.023  0.00  0.00    +0.000 A 
ATOM     19  C   UNL     1      46.523   6.488  12.962  0.00  0.00    +0.000 A 
ATOM     20  C   UNL     1      47.898   6.396  12.692  0.00  0.00    +0.000 A 
ATOM     21  C   UNL     1      48.667   7.543  12.472  0.00  0.00    +0.000 A 
BRANCH  19  22
ATOM     22  C   UNL     1      45.703   5.233  13.203  0.00  0.00    +0.000 C 
BRANCH  22  23
ATOM     23  N   UNL     1      44.801   4.863  12.090  0.00  0.00    +0.000 NA
ATOM     24  C   UNL     1      45.437   5.099  10.784  0.00  0.00    +0.000 C 
ATOM     25  C   UNL     1      44.700   4.486   9.593  0.00  0.00    +0.000 C 
ATOM     26  C   UNL     1      44.365   3.023   9.834  0.00  0.00    +0.000 C 
ATOM     27  C   UNL     1      43.544   2.897  11.106  0.00  0.00    +0.000 C 
ATOM     28  C   UNL     1      44.277   3.502  12.305  0.00  0.00    +0.000 C 
ENDBRANCH  22  23
ENDBRANCH  19  22
ENDBRANCH   2  16
TORSDOF 4
ENDMDL
MODEL 7
REMARK VINA RESULT:    -5.047      2.803      4.087
REMARK INTER + INTRA:          -7.051
REMARK INTER:                  -5.940
REMARK INTRA:                  -1.111
REMARK UNBOUND:                -0.824
REMARK  Name = 
REMARK  5 active torsions:
REMARK  status: ('A' for Active; 'I' for Inactive)
REMARK    1  A    between atoms: C_1  and  N_2
REMARK    2  A    between atoms: N_2  and  C_15
REMARK    3  A    between atoms: C_3  and  C_5
REMARK    4  A    between atoms: C_18  and  C_19
REMARK    5  A    between atoms: C_19  and  N_20
REMARK                            x       y       z     vdW  Elec       q    Type
REMARK                         _______ _______ _______ _____ _____    ______ ____
ROOT
ATOM      1  C   UNL     1      49.384   8.134  16.537  0.00  0.00    +0.000 C 
ATOM      2  N   UNL     1      49.534   8.596  15.160  0.00  0.00    +0.000 N 
ATOM      3  C   UNL     1      50.508   9.563  14.808  0.00  0.00    +0.000 C 
ATOM      4  O   UNL     1      51.199  10.110  15.649  0.00  0.00    +0.000 OA
ENDROOT
BRANCH   3   5
ATOM      5  C   UNL     1      50.710   9.811  13.352  0.00  0.00    +0.000 A 
ATOM      6  C   UNL     1      51.638   9.124  12.585  0.00  0.00    +0.000 A 
ATOM      7  S   UNL     1      51.585   9.475  10.923  0.00  0.00    +0.000 S 
ATOM      8  C   UNL     1      50.401  10.662  11.186  0.00  0.00    +0.000 A 
ATOM      9  N   UNL     1      49.895  11.368  10.136  0.00  0.00    +0.000 NA
ATOM     10  C   UNL     1      48.977  12.205  10.468  0.00  0.00    +0.000 A 
ATOM     11  N   UNL     1      48.531  12.421  11.745  0.00  0.00    +0.000 N 
ATOM     12  C   UNL     1      49.062  11.792  12.844  0.00  0.00    +0.000 A 
ATOM     13  O   UNL     1      48.699  12.102  13.976  0.00  0.00    +0.000 OA
ATOM     14  C   UNL     1      50.039  10.780  12.523  0.00  0.00    +0.000 A 
ATOM     15  H   UNL     1      47.824  13.110  11.941  0.00  0.00    +0.000 HD
ENDBRANCH   3   5
BRANCH   2  16
ATOM     16  C   UNL     1      48.564   8.074  14.259  0.00  0.00    +0.000 A 
ATOM     17  C   UNL     1      48.877   6.923  13.529  0.00  0.00    +0.000 A 
ATOM     18  C   UNL     1      47.984   6.441  12.571  0.00  0.00    +0.000 A 
ATOM     19  C   UNL     1      46.755   7.080  12.349  0.00  0.00    +0.000 A 
ATOM     20  C   UNL     1      46.465   8.245  13.078  0.00  0.00    +0.000 A 
ATOM     21  C   UNL     1      47.370   8.752  14.016  0.00  0.00    +0.000 A 
BRANCH  19  22
ATOM     22  C   UNL     1      45.763   6.546  11.331  0.00  0.00    +0.000 C 
BRANCH  22  23
ATOM     23  N   UNL     1      45.432   5.111  11.487  0.00  0.00    +0.000 NA
ATOM     24  C   UNL     1      44.548   4.889  12.643  0.00  0.00    +0.000 C 
ATOM     25  C   UNL     1      43.927   3.494  12.714  0.00  0.00    +0.000 C 
ATOM     26  C   UNL     1      43.289   3.096  11.393  0.00  0.00    +0.000 C 
ATOM     27  C   UNL     1      44.328   3.174  10.288  0.00  0.00    +0.000 C 
ATOM     28  C   UNL     1      44.950   4.570  10.205  0.00  0.00    +0.000 C 
ENDBRANCH  22  23
ENDBRANCH  19  22
ENDBRANCH   2  16
TORSDOF 4
ENDMDL
MODEL 8
REMARK VINA RESULT:    -5.015      4.263      6.766
REMARK INTER + INTRA:          -7.011
REMARK INTER:                  -6.021
REMARK INTRA:                  -0.990
REMARK UNBOUND:                -0.824
REMARK  Name = 
REMARK  5 active torsions:
REMARK  status: ('A' for Active; 'I' for Inactive)
REMARK    1  A    between atoms: C_1  and  N_2
REMARK    2  A    between atoms: N_2  and  C_15
REMARK    3  A    between atoms: C_3  and  C_5
REMARK    4  A    between atoms: C_18  and  C_19
REMARK    5  A    between atoms: C_19  and  N_20
REMARK                            x       y       z     vdW  Elec       q    Type
REMARK                         _______ _______ _______ _____ _____    ______ ____
ROOT
ATOM      1  C   UNL     1      48.075   7.890  21.261  0.00  0.00    +0.000 C 
ATOM      2  N   UNL     1      48.743   7.058  20.262  0.00  0.00    +0.000 N 
ATOM      3  C   UNL     1      49.059   5.702  20.523  0.00  0.00    +0.000 C 
ATOM      4  O   UNL     1      48.868   5.200  21.618  0.00  0.00    +0.000 OA
ENDROOT
BRANCH   3   5
ATOM      5  C   UNL     1      49.551   4.895  19.371  0.00  0.00    +0.000 A 
ATOM      6  C   UNL     1      50.889   4.587  19.175  0.00  0.00    +0.000 A 
ATOM      7  S   UNL     1      51.191   3.533  17.877  0.00  0.00    +0.000 S 
ATOM      8  C   UNL     1      49.551   3.552  17.445  0.00  0.00    +0.000 A 
ATOM      9  N   UNL     1      49.115   2.824  16.379  0.00  0.00    +0.000 NA
ATOM     10  C   UNL     1      47.845   2.894  16.187  0.00  0.00    +0.000 A 
ATOM     11  N   UNL     1      46.973   3.635  16.940  0.00  0.00    +0.000 N 
ATOM     12  C   UNL     1      47.373   4.444  17.975  0.00  0.00    +0.000 A 
ATOM     13  O   UNL     1      46.563   5.170  18.548  0.00  0.00    +0.000 OA
ATOM     14  C   UNL     1      48.778   4.341  18.290  0.00  0.00    +0.000 A 
ATOM     15  H   UNL     1      45.991   3.666  16.722  0.00  0.00    +0.000 HD
ENDBRANCH   3   5
BRANCH   2  16
ATOM     16  C   UNL     1      49.125   7.755  19.082  0.00  0.00    +0.000 A 
ATOM     17  C   UNL     1      48.139   8.082  18.146  0.00  0.00    +0.000 A 
ATOM     18  C   UNL     1      48.496   8.681  16.937  0.00  0.00    +0.000 A 
ATOM     19  C   UNL     1      49.834   8.992  16.659  0.00  0.00    +0.000 A 
ATOM     20  C   UNL     1      50.815   8.641  17.602  0.00  0.00    +0.000 A 
ATOM     21  C   UNL     1      50.467   8.010  18.800  0.00  0.00    +0.000 A 
BRANCH  19  22
ATOM     22  C   UNL     1      50.230   9.673  15.360  0.00  0.00    +0.000 C 
BRANCH  22  23
ATOM     23  N   UNL     1      49.515   9.178  14.162  0.00  0.00    +0.000 NA
ATOM     24  C   UNL     1      49.605  10.137  13.050  0.00  0.00    +0.000 C 
ATOM     25  C   UNL     1      49.147   9.592  11.697  0.00  0.00    +0.000 C 
ATOM     26  C   UNL     1      49.796   8.255  11.381  0.00  0.00    +0.000 C 
ATOM     27  C   UNL     1      49.490   7.271  12.497  0.00  0.00    +0.000 C 
ATOM     28  C   UNL     1      49.952   7.805  13.854  0.00  0.00    +0.000 C 
ENDBRANCH  22  23
ENDBRANCH  19  22
ENDBRANCH   2  16
TORSDOF 4
ENDMDL
MODEL 9
REMARK VINA RESULT:    -4.975     11.352     13.810
REMARK INTER + INTRA:          -6.962
REMARK INTER:                  -5.770
REMARK INTRA:                  -1.192
REMARK UNBOUND:                -0.824
REMARK  Name = 
REMARK  5 active torsions:
REMARK  status: ('A' for Active; 'I' for Inactive)
REMARK    1  A    between atoms: C_1  and  N_2
REMARK    2  A    between atoms: N_2  and  C_15
REMARK    3  A    between atoms: C_3  and  C_5
REMARK    4  A    between atoms: C_18  and  C_19
REMARK    5  A    between atoms: C_19  and  N_20
REMARK                            x       y       z     vdW  Elec       q    Type
REMARK                         _______ _______ _______ _____ _____    ______ ____
ROOT
ATOM      1  C   UNL     1      42.442  -4.436  17.020  0.00  0.00    +0.000 C 
ATOM      2  N   UNL     1      41.391  -4.260  16.021  0.00  0.00    +0.000 N 
ATOM      3  C   UNL     1      41.407  -4.978  14.800  0.00  0.00    +0.000 C 
ATOM      4  O   UNL     1      42.340  -5.701  14.495  0.00  0.00    +0.000 OA
ENDROOT
BRANCH   3   5
ATOM      5  C   UNL     1      40.190  -4.876  13.946  0.00  0.00    +0.000 A 
ATOM      6  C   UNL     1      39.089  -5.707  14.089  0.00  0.00    +0.000 A 
ATOM      7  S   UNL     1      37.764  -5.307  13.103  0.00  0.00    +0.000 S 
ATOM      8  C   UNL     1      38.663  -4.081  12.350  0.00  0.00    +0.000 A 
ATOM      9  N   UNL     1      38.095  -3.318  11.374  0.00  0.00    +0.000 NA
ATOM     10  C   UNL     1      38.870  -2.399  10.917  0.00  0.00    +0.000 A 
ATOM     11  N   UNL     1      40.161  -2.182  11.323  0.00  0.00    +0.000 N 
ATOM     12  C   UNL     1      40.802  -2.971  12.246  0.00  0.00    +0.000 A 
ATOM     13  O   UNL     1      41.993  -2.798  12.493  0.00  0.00    +0.000 OA
ATOM     14  C   UNL     1      39.953  -3.967  12.854  0.00  0.00    +0.000 A 
ATOM     15  H   UNL     1      40.724  -1.458  10.907  0.00  0.00    +0.000 HD
ENDBRANCH   3   5
BRANCH   2  16
ATOM     16  C   UNL     1      40.440  -3.252  16.343  0.00  0.00    +0.000 A 
ATOM     17  C   UNL     1      40.685  -1.940  15.922  0.00  0.00    +0.000 A 
ATOM     18  C   UNL     1      39.818  -0.914  16.301  0.00  0.00    +0.000 A 
ATOM     19  C   UNL     1      38.681  -1.184  17.076  0.00  0.00    +0.000 A 
ATOM     20  C   UNL     1      38.461  -2.504  17.505  0.00  0.00    +0.000 A 
ATOM     21  C   UNL     1      39.343  -3.531  17.156  0.00  0.00    +0.000 A 
BRANCH  19  22
ATOM     22  C   UNL     1      37.715  -0.080  17.469  0.00  0.00    +0.000 C 
BRANCH  22  23
ATOM     23  N   UNL     1      38.330   1.262  17.589  0.00  0.00    +0.000 NA
ATOM     24  C   UNL     1      37.617   2.252  16.766  0.00  0.00    +0.000 C 
ATOM     25  C   UNL     1      37.998   3.707  17.045  0.00  0.00    +0.000 C 
ATOM     26  C   UNL     1      37.950   4.024  18.530  0.00  0.00    +0.000 C 
ATOM     27  C   UNL     1      38.865   3.069  19.278  0.00  0.00    +0.000 C 
ATOM     28  C   UNL     1      38.487   1.611  19.011  0.00  0.00    +0.000 C 
ENDBRANCH  22  23
ENDBRANCH  19  22
ENDBRANCH   2  16
TORSDOF 4
ENDMDL
