MODEL 1
REMARK VINA RESULT:    -7.981      0.000      0.000
REMARK INTER + INTRA:         -11.846
REMARK INTER:                 -10.780
REMARK INTRA:                  -1.065
REMARK UNBOUND:                -1.065
REMARK  Name = 
REMARK  6 active torsions:
REMARK  status: ('A' for Active; 'I' for Inactive)
REMARK    1  A    between atoms: C_2  and  C_26
REMARK    2  A    between atoms: N_3  and  C_4
REMARK    3  A    between atoms: C_4  and  C_5
REMARK    4  A    between atoms: C_8  and  C_9
REMARK    5  A    between atoms: C_9  and  N_10
REMARK    6  A    between atoms: C_11  and  C_13
REMARK                            x       y       z     vdW  Elec       q    Type
REMARK                         _______ _______ _______ _____ _____    ______ ____
ROOT
ATOM      1  C   UNL     1      44.677   4.399  12.007  0.00  0.00    +0.000 A 
ATOM      2  C   UNL     1      45.969   4.156  12.509  0.00  0.00    +0.000 A 
ATOM      3  C   UNL     1      46.761   5.197  13.005  0.00  0.00    +0.000 A 
ATOM      4  C   UNL     1      46.293   6.516  12.995  0.00  0.00    +0.000 A 
ATOM      5  C   UNL     1      45.002   6.765  12.508  0.00  0.00    +0.000 A 
ATOM      6  C   UNL     1      44.207   5.721  12.012  0.00  0.00    +0.000 A 
ATOM      7 CL   UNL     1      42.644   6.132  11.401  0.00  0.00    +0.000 Cl
ENDROOT
BRANCH   1   8
ATOM      8  C   UNL     1      43.872   3.232  11.493  0.00  0.00    +0.000 C 
BRANCH   8  11
ATOM      9  O   UNL     1      44.250   4.218   8.918  0.00  0.00    +0.000 OA
ATOM     10  C   UNL     1      44.734   3.130   9.205  0.00  0.00    +0.000 C 
ATOM     11  N   UNL     1      44.555   2.520  10.431  0.00  0.00    +0.000 N 
ATOM     12  H   UNL     1      45.189   1.782  10.708  0.00  0.00    +0.000 HD
BRANCH  10  13
ATOM     13  C   UNL     1      45.590   2.426   8.212  0.00  0.00    +0.000 A 
ATOM     14  C   UNL     1      45.853   1.063   8.413  0.00  0.00    +0.000 A 
ATOM     15  C   UNL     1      46.666   0.372   7.518  0.00  0.00    +0.000 A 
ATOM     16 CL   UNL     1      46.975  -1.304   7.763  0.00  0.00    +0.000 Cl
ATOM     17  C   UNL     1      47.234   1.024   6.427  0.00  0.00    +0.000 A 
ATOM     18  C   UNL     1      46.985   2.382   6.242  0.00  0.00    +0.000 A 
ATOM     19 CL   UNL     1      47.705   3.200   4.909  0.00  0.00    +0.000 Cl
ATOM     20  C   UNL     1      46.169   3.091   7.125  0.00  0.00    +0.000 A 
ENDBRANCH  10  13
ENDBRANCH   8  11
ENDBRANCH   1   8
BRANCH   4  21
ATOM     21  C   UNL     1      47.155   7.639  13.515  0.00  0.00    +0.000 C 
BRANCH  21  22
ATOM     22  N   UNL     1      47.703   7.330  14.812  0.00  0.00    +0.000 N 
ATOM     23  C   UNL     1      49.017   6.959  14.948  0.00  0.00    +0.000 C 
ATOM     24  O   UNL     1      49.792   6.953  13.994  0.00  0.00    +0.000 OA
ATOM     25  H   UNL     1      47.045   7.114  15.555  0.00  0.00    +0.000 HD
BRANCH  23  26
ATOM     26  C   UNL     1      49.473   6.618  16.303  0.00  0.00    +0.000 A 
ATOM     27  C   UNL     1      50.547   7.299  16.860  0.00  0.00    +0.000 A 
ATOM     28  S   UNL     1      50.923   6.806  18.448  0.00  0.00    +0.000 S 
ATOM     29  C   UNL     1      49.691   5.632  18.433  0.00  0.00    +0.000 A 
ATOM     30  N   UNL     1      49.484   4.824  19.507  0.00  0.00    +0.000 NA
ATOM     31  C   UNL     1      48.536   3.962  19.350  0.00  0.00    +0.000 A 
ATOM     32  N   UNL     1      47.774   3.836  18.217  0.00  0.00    +0.000 N 
ATOM     33  C   UNL     1      47.931   4.648  17.119  0.00  0.00    +0.000 A 
ATOM     34  O   UNL     1      47.204   4.539  16.136  0.00  0.00    +0.000 OA
ATOM     35  C   UNL     1      48.993   5.629  17.239  0.00  0.00    +0.000 A 
ATOM     36  H   UNL     1      47.040   3.146  18.162  0.00  0.00    +0.000 HD
ENDBRANCH  23  26
ENDBRANCH  21  22
ENDBRANCH   4  21
TORSDOF 6
ENDMDL
MODEL 2
REMARK VINA RESULT:    -7.795      2.028      2.358
REMARK INTER + INTRA:         -11.595
REMARK INTER:                 -10.429
REMARK INTRA:                  -1.166
REMARK UNBOUND:                -1.065
REMARK  Name = 
REMARK  6 active torsions:
REMARK  status: ('A' for Active; 'I' for Inactive)
REMARK    1  A    between atoms: C_2  and  C_26
REMARK    2  A    between atoms: N_3  and  C_4
REMARK    3  A    between atoms: C_4  and  C_5
REMARK    4  A    between atoms: C_8  and  C_9
REMARK    5  A    between atoms: C_9  and  N_10
REMARK    6  A    between atoms: C_11  and  C_13
REMARK                            x       y       z     vdW  Elec       q    Type
REMARK                         _______ _______ _______ _____ _____    ______ ____
ROOT
ATOM      1  C   UNL     1      45.351   4.379  12.530  0.00  0.00    +0.000 A 
ATOM      2  C   UNL     1      46.267   3.743  13.386  0.00  0.00    +0.000 A 
ATOM      3  C   UNL     1      47.219   4.477  14.102  0.00  0.00    +0.000 A 
ATOM      4  C   UNL     1      47.297   5.867  13.966  0.00  0.00    +0.000 A 
ATOM      5  C   UNL     1      46.379   6.510  13.125  0.00  0.00    +0.000 A 
ATOM      6  C   UNL     1      45.423   5.775  12.408  0.00  0.00    +0.000 A 
ATOM      7 CL   UNL     1      44.358   6.654  11.369  0.00  0.00    +0.000 Cl
ENDROOT
BRANCH   1   8
ATOM      8  C   UNL     1      44.344   3.531  11.793  0.00  0.00    +0.000 C 
BRANCH   8  11
ATOM      9  O   UNL     1      44.126   4.233   9.107  0.00  0.00    +0.000 OA
ATOM     10  C   UNL     1      44.818   3.267   9.406  0.00  0.00    +0.000 C 
ATOM     11  N   UNL     1      44.946   2.795  10.698  0.00  0.00    +0.000 N 
ATOM     12  H   UNL     1      45.726   2.193  10.924  0.00  0.00    +0.000 HD
BRANCH  10  13
ATOM     13  C   UNL     1      45.597   2.571   8.346  0.00  0.00    +0.000 A 
ATOM     14  C   UNL     1      45.860   1.203   8.509  0.00  0.00    +0.000 A 
ATOM     15  C   UNL     1      46.604   0.519   7.550  0.00  0.00    +0.000 A 
ATOM     16 CL   UNL     1      46.911  -1.163   7.747  0.00  0.00    +0.000 Cl
ATOM     17  C   UNL     1      47.103   1.183   6.433  0.00  0.00    +0.000 A 
ATOM     18  C   UNL     1      46.856   2.546   6.286  0.00  0.00    +0.000 A 
ATOM     19 CL   UNL     1      47.492   3.379   4.920  0.00  0.00    +0.000 Cl
ATOM     20  C   UNL     1      46.108   3.249   7.234  0.00  0.00    +0.000 A 
ENDBRANCH  10  13
ENDBRANCH   8  11
ENDBRANCH   1   8
BRANCH   4  21
ATOM     21  C   UNL     1      48.335   6.655  14.726  0.00  0.00    +0.000 C 
BRANCH  21  22
ATOM     22  N   UNL     1      48.159   6.528  16.152  0.00  0.00    +0.000 N 
ATOM     23  C   UNL     1      49.148   5.989  16.935  0.00  0.00    +0.000 C 
ATOM     24  O   UNL     1      50.241   5.670  16.473  0.00  0.00    +0.000 OA
ATOM     25  H   UNL     1      47.209   6.572  16.508  0.00  0.00    +0.000 HD
BRANCH  23  26
ATOM     26  C   UNL     1      48.858   5.858  18.370  0.00  0.00    +0.000 A 
ATOM     27  C   UNL     1      49.104   4.653  19.015  0.00  0.00    +0.000 A 
ATOM     28  S   UNL     1      48.746   4.682  20.682  0.00  0.00    +0.000 S 
ATOM     29  C   UNL     1      48.206   6.294  20.593  0.00  0.00    +0.000 A 
ATOM     30  N   UNL     1      47.732   6.932  21.696  0.00  0.00    +0.000 NA
ATOM     31  C   UNL     1      47.331   8.141  21.481  0.00  0.00    +0.000 A 
ATOM     32  N   UNL     1      47.365   8.769  20.263  0.00  0.00    +0.000 N 
ATOM     33  C   UNL     1      47.861   8.172  19.128  0.00  0.00    +0.000 A 
ATOM     34  O   UNL     1      47.918   8.777  18.062  0.00  0.00    +0.000 OA
ATOM     35  C   UNL     1      48.314   6.807  19.313  0.00  0.00    +0.000 A 
ATOM     36  H   UNL     1      47.045   9.721  20.164  0.00  0.00    +0.000 HD
ENDBRANCH  23  26
ENDBRANCH  21  22
ENDBRANCH   4  21
TORSDOF 6
ENDMDL
MODEL 3
REMARK VINA RESULT:    -7.483      1.585      2.294
REMARK INTER + INTRA:         -11.172
REMARK INTER:                 -10.100
REMARK INTRA:                  -1.072
REMARK UNBOUND:                -1.065
REMARK  Name = 
REMARK  6 active torsions:
REMARK  status: ('A' for Active; 'I' for Inactive)
REMARK    1  A    between atoms: C_2  and  C_26
REMARK    2  A    between atoms: N_3  and  C_4
REMARK    3  A    between atoms: C_4  and  C_5
REMARK    4  A    between atoms: C_8  and  C_9
REMARK    5  A    between atoms: C_9  and  N_10
REMARK    6  A    between atoms: C_11  and  C_13
REMARK                            x       y       z     vdW  Elec       q    Type
REMARK                         _______ _______ _______ _____ _____    ______ ____
ROOT
ATOM      1  C   UNL     1      45.216   4.725  12.499  0.00  0.00    +0.000 A 
ATOM      2  C   UNL     1      46.373   4.360  13.210  0.00  0.00    +0.000 A 
ATOM      3  C   UNL     1      47.247   5.327  13.718  0.00  0.00    +0.000 A 
ATOM      4  C   UNL     1      47.000   6.689  13.511  0.00  0.00    +0.000 A 
ATOM      5  C   UNL     1      45.842   7.061  12.815  0.00  0.00    +0.000 A 
ATOM      6  C   UNL     1      44.965   6.091  12.306  0.00  0.00    +0.000 A 
ATOM      7 CL   UNL     1      43.584   6.649  11.431  0.00  0.00    +0.000 Cl
ENDROOT
BRANCH   1   8
ATOM      8  C   UNL     1      44.311   3.633  11.984  0.00  0.00    +0.000 C 
BRANCH   8  11
ATOM      9  O   UNL     1      44.053   4.267   9.285  0.00  0.00    +0.000 OA
ATOM     10  C   UNL     1      44.768   3.323   9.599  0.00  0.00    +0.000 C 
ATOM     11  N   UNL     1      44.918   2.884  10.900  0.00  0.00    +0.000 N 
ATOM     12  H   UNL     1      45.713   2.304  11.132  0.00  0.00    +0.000 HD
BRANCH  10  13
ATOM     13  C   UNL     1      45.553   2.619   8.548  0.00  0.00    +0.000 A 
ATOM     14  C   UNL     1      45.978   3.357   7.434  0.00  0.00    +0.000 A 
ATOM     15  C   UNL     1      46.697   2.731   6.419  0.00  0.00    +0.000 A 
ATOM     16 CL   UNL     1      47.229   3.645   5.060  0.00  0.00    +0.000 Cl
ATOM     17  C   UNL     1      46.989   1.372   6.490  0.00  0.00    +0.000 A 
ATOM     18  C   UNL     1      46.547   0.640   7.590  0.00  0.00    +0.000 A 
ATOM     19 CL   UNL     1      46.882  -1.048   7.673  0.00  0.00    +0.000 Cl
ATOM     20  C   UNL     1      45.830   1.249   8.621  0.00  0.00    +0.000 A 
ENDBRANCH  10  13
ENDBRANCH   8  11
ENDBRANCH   1   8
BRANCH   4  21
ATOM     21  C   UNL     1      47.952   7.729  14.045  0.00  0.00    +0.000 C 
BRANCH  21  22
ATOM     22  N   UNL     1      49.149   7.129  14.580  0.00  0.00    +0.000 N 
ATOM     23  C   UNL     1      49.413   7.169  15.926  0.00  0.00    +0.000 C 
ATOM     24  O   UNL     1      48.612   7.640  16.731  0.00  0.00    +0.000 OA
ATOM     25  H   UNL     1      49.907   6.945  13.929  0.00  0.00    +0.000 HD
BRANCH  23  26
ATOM     26  C   UNL     1      50.680   6.571  16.371  0.00  0.00    +0.000 A 
ATOM     27  C   UNL     1      51.877   7.227  16.114  0.00  0.00    +0.000 A 
ATOM     28  S   UNL     1      53.247   6.416  16.726  0.00  0.00    +0.000 S 
ATOM     29  C   UNL     1      52.292   5.137  17.317  0.00  0.00    +0.000 A 
ATOM     30  N   UNL     1      52.862   4.075  17.948  0.00  0.00    +0.000 NA
ATOM     31  C   UNL     1      52.026   3.165  18.321  0.00  0.00    +0.000 A 
ATOM     32  N   UNL     1      50.670   3.223  18.123  0.00  0.00    +0.000 N 
ATOM     33  C   UNL     1      50.049   4.288  17.516  0.00  0.00    +0.000 A 
ATOM     34  O   UNL     1      48.829   4.329  17.393  0.00  0.00    +0.000 OA
ATOM     35  C   UNL     1      50.947   5.335  17.066  0.00  0.00    +0.000 A 
ATOM     36  H   UNL     1      50.069   2.481  18.449  0.00  0.00    +0.000 HD
ENDBRANCH  23  26
ENDBRANCH  21  22
ENDBRANCH   4  21
TORSDOF 6
ENDMDL
MODEL 4
REMARK VINA RESULT:    -7.334      4.616      7.628
REMARK INTER + INTRA:         -10.972
REMARK INTER:                  -9.880
REMARK INTRA:                  -1.091
REMARK UNBOUND:                -1.065
REMARK  Name = 
REMARK  6 active torsions:
REMARK  status: ('A' for Active; 'I' for Inactive)
REMARK    1  A    between atoms: C_2  and  C_26
REMARK    2  A    between atoms: N_3  and  C_4
REMARK    3  A    between atoms: C_4  and  C_5
REMARK    4  A    between atoms: C_8  and  C_9
REMARK    5  A    between atoms: C_9  and  N_10
REMARK    6  A    between atoms: C_11  and  C_13
REMARK                            x       y       z     vdW  Elec       q    Type
REMARK                         _______ _______ _______ _____ _____    ______ ____
ROOT
ATOM      1  C   UNL     1      44.656   8.216  11.557  0.00  0.00    +0.000 A 
ATOM      2  C   UNL     1      43.948   7.005  11.464  0.00  0.00    +0.000 A 
ATOM      3  C   UNL     1      44.399   5.850  12.113  0.00  0.00    +0.000 A 
ATOM      4  C   UNL     1      45.584   5.867  12.856  0.00  0.00    +0.000 A 
ATOM      5  C   UNL     1      46.289   7.074  12.964  0.00  0.00    +0.000 A 
ATOM      6  C   UNL     1      45.836   8.232  12.315  0.00  0.00    +0.000 A 
ATOM      7 CL   UNL     1      46.793   9.662  12.479  0.00  0.00    +0.000 Cl
ENDROOT
BRANCH   1   8
ATOM      8  C   UNL     1      44.112   9.427  10.840  0.00  0.00    +0.000 C 
BRANCH   8  11
ATOM      9  O   UNL     1      42.053  10.665   9.432  0.00  0.00    +0.000 OA
ATOM     10  C   UNL     1      41.901  10.457  10.630  0.00  0.00    +0.000 C 
ATOM     11  N   UNL     1      42.879   9.907  11.435  0.00  0.00    +0.000 N 
ATOM     12  H   UNL     1      42.613   9.506  12.325  0.00  0.00    +0.000 HD
BRANCH  10  13
ATOM     13  C   UNL     1      40.593  10.772  11.266  0.00  0.00    +0.000 A 
ATOM     14  C   UNL     1      40.597  11.520  12.452  0.00  0.00    +0.000 A 
ATOM     15  C   UNL     1      39.395  11.819  13.090  0.00  0.00    +0.000 A 
ATOM     16 CL   UNL     1      39.406  12.748  14.539  0.00  0.00    +0.000 Cl
ATOM     17  C   UNL     1      38.185  11.372  12.568  0.00  0.00    +0.000 A 
ATOM     18  C   UNL     1      38.188  10.614  11.400  0.00  0.00    +0.000 A 
ATOM     19 CL   UNL     1      36.696  10.036  10.762  0.00  0.00    +0.000 Cl
ATOM     20  C   UNL     1      39.381  10.307  10.743  0.00  0.00    +0.000 A 
ENDBRANCH  10  13
ENDBRANCH   8  11
ENDBRANCH   1   8
BRANCH   4  21
ATOM     21  C   UNL     1      46.078   4.618  13.541  0.00  0.00    +0.000 C 
BRANCH  21  22
ATOM     22  N   UNL     1      46.737   4.920  14.787  0.00  0.00    +0.000 N 
ATOM     23  C   UNL     1      47.479   3.967  15.438  0.00  0.00    +0.000 C 
ATOM     24  O   UNL     1      47.676   2.855  14.952  0.00  0.00    +0.000 OA
ATOM     25  H   UNL     1      46.409   5.733  15.301  0.00  0.00    +0.000 HD
BRANCH  23  26
ATOM     26  C   UNL     1      48.075   4.355  16.724  0.00  0.00    +0.000 A 
ATOM     27  C   UNL     1      47.777   3.627  17.868  0.00  0.00    +0.000 A 
ATOM     28  S   UNL     1      48.577   4.189  19.265  0.00  0.00    +0.000 S 
ATOM     29  C   UNL     1      49.317   5.453  18.399  0.00  0.00    +0.000 A 
ATOM     30  N   UNL     1      50.135   6.341  19.024  0.00  0.00    +0.000 NA
ATOM     31  C   UNL     1      50.606   7.265  18.255  0.00  0.00    +0.000 A 
ATOM     32  N   UNL     1      50.335   7.378  16.916  0.00  0.00    +0.000 N 
ATOM     33  C   UNL     1      49.536   6.489  16.238  0.00  0.00    +0.000 A 
ATOM     34  O   UNL     1      49.348   6.593  15.030  0.00  0.00    +0.000 OA
ATOM     35  C   UNL     1      48.971   5.436  17.060  0.00  0.00    +0.000 A 
ATOM     36  H   UNL     1      50.745   8.120  16.367  0.00  0.00    +0.000 HD
ENDBRANCH  23  26
ENDBRANCH  21  22
ENDBRANCH   4  21
TORSDOF 6
ENDMDL
MODEL 5
REMARK VINA RESULT:    -7.135      5.006      7.489
REMARK INTER + INTRA:         -10.703
REMARK INTER:                  -9.826
REMARK INTRA:                  -0.877
REMARK UNBOUND:                -1.065
REMARK  Name = 
REMARK  6 active torsions:
REMARK  status: ('A' for Active; 'I' for Inactive)
REMARK    1  A    between atoms: C_2  and  C_26
REMARK    2  A    between atoms: N_3  and  C_4
REMARK    3  A    between atoms: C_4  and  C_5
REMARK    4  A    between atoms: C_8  and  C_9
REMARK    5  A    between atoms: C_9  and  N_10
REMARK    6  A    between atoms: C_11  and  C_13
REMARK                            x       y       z     vdW  Elec       q    Type
REMARK                         _______ _______ _______ _____ _____    ______ ____
ROOT
ATOM      1  C   UNL     1      45.386   8.789  12.079  0.00  0.00    +0.000 A 
ATOM      2  C   UNL     1      44.548   7.664  11.984  0.00  0.00    +0.000 A 
ATOM      3  C   UNL     1      44.892   6.451  12.591  0.00  0.00    +0.000 A 
ATOM      4  C   UNL     1      46.096   6.322  13.293  0.00  0.00    +0.000 A 
ATOM      5  C   UNL     1      46.930   7.443  13.403  0.00  0.00    +0.000 A 
ATOM      6  C   UNL     1      46.584   8.659  12.796  0.00  0.00    +0.000 A 
ATOM      7 CL   UNL     1      47.695   9.973  12.958  0.00  0.00    +0.000 Cl
ENDROOT
BRANCH   1   8
ATOM      8  C   UNL     1      44.953  10.069  11.408  0.00  0.00    +0.000 C 
BRANCH   8  11
ATOM      9  O   UNL     1      42.778  10.382   9.698  0.00  0.00    +0.000 OA
ATOM     10  C   UNL     1      42.609  10.555  10.899  0.00  0.00    +0.000 C 
ATOM     11  N   UNL     1      43.629  10.486  11.827  0.00  0.00    +0.000 N 
ATOM     12  H   UNL     1      43.396  10.359  12.803  0.00  0.00    +0.000 HD
BRANCH  10  13
ATOM     13  C   UNL     1      41.237  10.819  11.413  0.00  0.00    +0.000 A 
ATOM     14  C   UNL     1      40.148  10.361  10.658  0.00  0.00    +0.000 A 
ATOM     15  C   UNL     1      38.847  10.606  11.094  0.00  0.00    +0.000 A 
ATOM     16 CL   UNL     1      37.514  10.029  10.170  0.00  0.00    +0.000 Cl
ATOM     17  C   UNL     1      38.615  11.315  12.269  0.00  0.00    +0.000 A 
ATOM     18  C   UNL     1      39.700  11.785  13.004  0.00  0.00    +0.000 A 
ATOM     19 CL   UNL     1      39.420  12.685  14.446  0.00  0.00    +0.000 Cl
ATOM     20  C   UNL     1      41.011  11.545  12.588  0.00  0.00    +0.000 A 
ENDBRANCH  10  13
ENDBRANCH   8  11
ENDBRANCH   1   8
BRANCH   4  21
ATOM     21  C   UNL     1      46.472   5.009  13.933  0.00  0.00    +0.000 C 
BRANCH  21  22
ATOM     22  N   UNL     1      47.569   5.164  14.856  0.00  0.00    +0.000 N 
ATOM     23  C   UNL     1      47.621   4.430  16.014  0.00  0.00    +0.000 C 
ATOM     24  O   UNL     1      46.787   3.564  16.271  0.00  0.00    +0.000 OA
ATOM     25  H   UNL     1      48.128   6.009  14.776  0.00  0.00    +0.000 HD
BRANCH  23  26
ATOM     26  C   UNL     1      48.753   4.691  16.914  0.00  0.00    +0.000 A 
ATOM     27  C   UNL     1      48.877   5.933  17.523  0.00  0.00    +0.000 A 
ATOM     28  S   UNL     1      50.225   6.056  18.560  0.00  0.00    +0.000 S 
ATOM     29  C   UNL     1      50.717   4.468  18.198  0.00  0.00    +0.000 A 
ATOM     30  N   UNL     1      51.843   3.943  18.751  0.00  0.00    +0.000 NA
ATOM     31  C   UNL     1      52.114   2.740  18.370  0.00  0.00    +0.000 A 
ATOM     32  N   UNL     1      51.358   2.013  17.487  0.00  0.00    +0.000 N 
ATOM     33  C   UNL     1      50.199   2.492  16.924  0.00  0.00    +0.000 A 
ATOM     34  O   UNL     1      49.522   1.800  16.170  0.00  0.00    +0.000 OA
ATOM     35  C   UNL     1      49.855   3.847  17.311  0.00  0.00    +0.000 A 
ATOM     36  H   UNL     1      51.620   1.071  17.237  0.00  0.00    +0.000 HD
ENDBRANCH  23  26
ENDBRANCH  21  22
ENDBRANCH   4  21
TORSDOF 6
ENDMDL
MODEL 6
REMARK VINA RESULT:    -7.123      3.104      4.674
REMARK INTER + INTRA:         -10.687
REMARK INTER:                  -9.680
REMARK INTRA:                  -1.006
REMARK UNBOUND:                -1.065
REMARK  Name = 
REMARK  6 active torsions:
REMARK  status: ('A' for Active; 'I' for Inactive)
REMARK    1  A    between atoms: C_2  and  C_26
REMARK    2  A    between atoms: N_3  and  C_4
REMARK    3  A    between atoms: C_4  and  C_5
REMARK    4  A    between atoms: C_8  and  C_9
REMARK    5  A    between atoms: C_9  and  N_10
REMARK    6  A    between atoms: C_11  and  C_13
REMARK                            x       y       z     vdW  Elec       q    Type
REMARK                         _______ _______ _______ _____ _____    ______ ____
ROOT
ATOM      1  C   UNL     1      48.224   8.116  13.439  0.00  0.00    +0.000 A 
ATOM      2  C   UNL     1      48.304   6.863  14.072  0.00  0.00    +0.000 A 
ATOM      3  C   UNL     1      48.701   6.751  15.409  0.00  0.00    +0.000 A 
ATOM      4  C   UNL     1      49.051   7.887  16.146  0.00  0.00    +0.000 A 
ATOM      5  C   UNL     1      48.961   9.141  15.526  0.00  0.00    +0.000 A 
ATOM      6  C   UNL     1      48.562   9.254  14.186  0.00  0.00    +0.000 A 
ATOM      7 CL   UNL     1      48.517  10.839  13.500  0.00  0.00    +0.000 Cl
ENDROOT
BRANCH   1   8
ATOM      8  C   UNL     1      47.781   8.169  11.997  0.00  0.00    +0.000 C 
BRANCH   8  11
ATOM      9  O   UNL     1      45.097   7.704  11.424  0.00  0.00    +0.000 OA
ATOM     10  C   UNL     1      45.901   6.800  11.236  0.00  0.00    +0.000 C 
ATOM     11  N   UNL     1      47.244   6.901  11.543  0.00  0.00    +0.000 N 
ATOM     12  H   UNL     1      47.893   6.253  11.119  0.00  0.00    +0.000 HD
BRANCH  10  13
ATOM     13  C   UNL     1      45.439   5.529  10.612  0.00  0.00    +0.000 A 
ATOM     14  C   UNL     1      44.652   4.662  11.383  0.00  0.00    +0.000 A 
ATOM     15  C   UNL     1      44.216   3.454  10.844  0.00  0.00    +0.000 A 
ATOM     16 CL   UNL     1      43.238   2.399  11.790  0.00  0.00    +0.000 Cl
ATOM     17  C   UNL     1      44.565   3.089   9.547  0.00  0.00    +0.000 A 
ATOM     18  C   UNL     1      45.364   3.946   8.792  0.00  0.00    +0.000 A 
ATOM     19 CL   UNL     1      45.821   3.489   7.196  0.00  0.00    +0.000 Cl
ATOM     20  C   UNL     1      45.806   5.163   9.312  0.00  0.00    +0.000 A 
ENDBRANCH  10  13
ENDBRANCH   8  11
ENDBRANCH   1   8
BRANCH   4  21
ATOM     21  C   UNL     1      49.494   7.763  17.582  0.00  0.00    +0.000 C 
BRANCH  21  22
ATOM     22  N   UNL     1      50.491   6.733  17.743  0.00  0.00    +0.000 N 
ATOM     23  C   UNL     1      50.270   5.666  18.576  0.00  0.00    +0.000 C 
ATOM     24  O   UNL     1      49.195   5.503  19.150  0.00  0.00    +0.000 OA
ATOM     25  H   UNL     1      51.442   6.960  17.465  0.00  0.00    +0.000 HD
BRANCH  23  26
ATOM     26  C   UNL     1      51.362   4.692  18.710  0.00  0.00    +0.000 A 
ATOM     27  C   UNL     1      52.498   5.027  19.436  0.00  0.00    +0.000 A 
ATOM     28  S   UNL     1      53.651   3.774  19.521  0.00  0.00    +0.000 S 
ATOM     29  C   UNL     1      52.694   2.754  18.553  0.00  0.00    +0.000 A 
ATOM     30  N   UNL     1      53.122   1.507  18.218  0.00  0.00    +0.000 NA
ATOM     31  C   UNL     1      52.310   0.852  17.457  0.00  0.00    +0.000 A 
ATOM     32  N   UNL     1      51.107   1.329  17.004  0.00  0.00    +0.000 N 
ATOM     33  C   UNL     1      50.623   2.571  17.339  0.00  0.00    +0.000 A 
ATOM     34  O   UNL     1      49.523   2.953  16.952  0.00  0.00    +0.000 OA
ATOM     35  C   UNL     1      51.504   3.355  18.184  0.00  0.00    +0.000 A 
ATOM     36  H   UNL     1      50.514   0.760  16.419  0.00  0.00    +0.000 HD
ENDBRANCH  23  26
ENDBRANCH  21  22
ENDBRANCH   4  21
TORSDOF 6
ENDMDL
MODEL 7
REMARK VINA RESULT:    -6.916      1.949      2.667
REMARK INTER + INTRA:         -10.407
REMARK INTER:                  -9.408
REMARK INTRA:                  -0.999
REMARK UNBOUND:                -1.065
REMARK  Name = 
REMARK  6 active torsions:
REMARK  status: ('A' for Active; 'I' for Inactive)
REMARK    1  A    between atoms: C_2  and  C_26
REMARK    2  A    between atoms: N_3  and  C_4
REMARK    3  A    between atoms: C_4  and  C_5
REMARK    4  A    between atoms: C_8  and  C_9
REMARK    5  A    between atoms: C_9  and  N_10
REMARK    6  A    between atoms: C_11  and  C_13
REMARK                            x       y       z     vdW  Elec       q    Type
REMARK                         _______ _______ _______ _____ _____    ______ ____
ROOT
ATOM      1  C   UNL     1      44.968   4.349  12.282  0.00  0.00    +0.000 A 
ATOM      2  C   UNL     1      46.088   3.868  12.983  0.00  0.00    +0.000 A 
ATOM      3  C   UNL     1      46.974   4.742  13.622  0.00  0.00    +0.000 A 
ATOM      4  C   UNL     1      46.778   6.126  13.560  0.00  0.00    +0.000 A 
ATOM      5  C   UNL     1      45.656   6.613  12.875  0.00  0.00    +0.000 A 
ATOM      6  C   UNL     1      44.767   5.737  12.235  0.00  0.00    +0.000 A 
ATOM      7 CL   UNL     1      43.435   6.435  11.386  0.00  0.00    +0.000 Cl
ENDROOT
BRANCH   1   8
ATOM      8  C   UNL     1      44.048   3.353  11.621  0.00  0.00    +0.000 C 
BRANCH   8  11
ATOM      9  O   UNL     1      44.170   4.211   8.976  0.00  0.00    +0.000 OA
ATOM     10  C   UNL     1      44.750   3.177   9.284  0.00  0.00    +0.000 C 
ATOM     11  N   UNL     1      44.704   2.628  10.550  0.00  0.00    +0.000 N 
ATOM     12  H   UNL     1      45.406   1.952  10.817  0.00  0.00    +0.000 HD
BRANCH  10  13
ATOM     13  C   UNL     1      45.581   2.475   8.268  0.00  0.00    +0.000 A 
ATOM     14  C   UNL     1      45.833   1.108   8.449  0.00  0.00    +0.000 A 
ATOM     15  C   UNL     1      46.624   0.418   7.532  0.00  0.00    +0.000 A 
ATOM     16 CL   UNL     1      46.919  -1.263   7.753  0.00  0.00    +0.000 Cl
ATOM     17  C   UNL     1      47.180   1.077   6.439  0.00  0.00    +0.000 A 
ATOM     18  C   UNL     1      46.942   2.440   6.274  0.00  0.00    +0.000 A 
ATOM     19 CL   UNL     1      47.648   3.266   4.939  0.00  0.00    +0.000 Cl
ATOM     20  C   UNL     1      46.149   3.147   7.179  0.00  0.00    +0.000 A 
ENDBRANCH  10  13
ENDBRANCH   8  11
ENDBRANCH   1   8
BRANCH   4  21
ATOM     21  C   UNL     1      47.743   7.068  14.236  0.00  0.00    +0.000 C 
BRANCH  21  22
ATOM     22  N   UNL     1      48.748   6.352  14.983  0.00  0.00    +0.000 N 
ATOM     23  C   UNL     1      49.319   6.907  16.100  0.00  0.00    +0.000 C 
ATOM     24  O   UNL     1      48.945   7.988  16.552  0.00  0.00    +0.000 OA
ATOM     25  H   UNL     1      49.218   5.585  14.511  0.00  0.00    +0.000 HD
BRANCH  23  26
ATOM     26  C   UNL     1      50.367   6.122  16.768  0.00  0.00    +0.000 A 
ATOM     27  C   UNL     1      50.015   5.164  17.709  0.00  0.00    +0.000 A 
ATOM     28  S   UNL     1      51.347   4.322  18.361  0.00  0.00    +0.000 S 
ATOM     29  C   UNL     1      52.446   5.238  17.440  0.00  0.00    +0.000 A 
ATOM     30  N   UNL     1      53.786   5.031  17.544  0.00  0.00    +0.000 NA
ATOM     31  C   UNL     1      54.505   5.813  16.811  0.00  0.00    +0.000 A 
ATOM     32  N   UNL     1      54.004   6.782  15.979  0.00  0.00    +0.000 N 
ATOM     33  C   UNL     1      52.657   7.008  15.822  0.00  0.00    +0.000 A 
ATOM     34  O   UNL     1      52.240   7.853  15.037  0.00  0.00    +0.000 OA
ATOM     35  C   UNL     1      51.804   6.162  16.635  0.00  0.00    +0.000 A 
ATOM     36  H   UNL     1      54.622   7.354  15.423  0.00  0.00    +0.000 HD
ENDBRANCH  23  26
ENDBRANCH  21  22
ENDBRANCH   4  21
TORSDOF 6
ENDMDL
MODEL 8
REMARK VINA RESULT:    -6.882      3.164      4.906
REMARK INTER + INTRA:         -10.362
REMARK INTER:                  -9.355
REMARK INTRA:                  -1.007
REMARK UNBOUND:                -1.065
REMARK  Name = 
REMARK  6 active torsions:
REMARK  status: ('A' for Active; 'I' for Inactive)
REMARK    1  A    between atoms: C_2  and  C_26
REMARK    2  A    between atoms: N_3  and  C_4
REMARK    3  A    between atoms: C_4  and  C_5
REMARK    4  A    between atoms: C_8  and  C_9
REMARK    5  A    between atoms: C_9  and  N_10
REMARK    6  A    between atoms: C_11  and  C_13
REMARK                            x       y       z     vdW  Elec       q    Type
REMARK                         _______ _______ _______ _____ _____    ______ ____
ROOT
ATOM      1  C   UNL     1      48.538   8.126  13.180  0.00  0.00    +0.000 A 
ATOM      2  C   UNL     1      48.494   6.940  13.934  0.00  0.00    +0.000 A 
ATOM      3  C   UNL     1      48.953   6.904  15.255  0.00  0.00    +0.000 A 
ATOM      4  C   UNL     1      49.490   8.048  15.855  0.00  0.00    +0.000 A 
ATOM      5  C   UNL     1      49.525   9.238  15.115  0.00  0.00    +0.000 A 
ATOM      6  C   UNL     1      49.063   9.275  13.791  0.00  0.00    +0.000 A 
ATOM      7 CL   UNL     1      49.182  10.779  12.949  0.00  0.00    +0.000 Cl
ENDROOT
BRANCH   1   8
ATOM      8  C   UNL     1      48.020   8.100  11.764  0.00  0.00    +0.000 C 
BRANCH   8  11
ATOM      9  O   UNL     1      45.284   7.669  11.479  0.00  0.00    +0.000 OA
ATOM     10  C   UNL     1      46.050   6.740  11.255  0.00  0.00    +0.000 C 
ATOM     11  N   UNL     1      47.418   6.825  11.424  0.00  0.00    +0.000 N 
ATOM     12  H   UNL     1      48.011   6.145  10.969  0.00  0.00    +0.000 HD
BRANCH  10  13
ATOM     13  C   UNL     1      45.507   5.453  10.740  0.00  0.00    +0.000 A 
ATOM     14  C   UNL     1      45.750   5.121   9.400  0.00  0.00    +0.000 A 
ATOM     15  C   UNL     1      45.241   3.936   8.873  0.00  0.00    +0.000 A 
ATOM     16 CL   UNL     1      45.554   3.527   7.231  0.00  0.00    +0.000 Cl
ATOM     17  C   UNL     1      44.481   3.078   9.663  0.00  0.00    +0.000 A 
ATOM     18  C   UNL     1      44.226   3.422  10.989  0.00  0.00    +0.000 A 
ATOM     19 CL   UNL     1      43.264   2.378  11.964  0.00  0.00    +0.000 Cl
ATOM     20  C   UNL     1      44.731   4.603  11.536  0.00  0.00    +0.000 A 
ENDBRANCH  10  13
ENDBRANCH   8  11
ENDBRANCH   1   8
BRANCH   4  21
ATOM     21  C   UNL     1      49.999   8.003  17.274  0.00  0.00    +0.000 C 
BRANCH  21  22
ATOM     22  N   UNL     1      50.888   6.887  17.484  0.00  0.00    +0.000 N 
ATOM     23  C   UNL     1      50.597   5.923  18.415  0.00  0.00    +0.000 C 
ATOM     24  O   UNL     1      49.541   5.926  19.044  0.00  0.00    +0.000 OA
ATOM     25  H   UNL     1      51.843   6.985  17.149  0.00  0.00    +0.000 HD
BRANCH  23  26
ATOM     26  C   UNL     1      51.586   4.850  18.590  0.00  0.00    +0.000 A 
ATOM     27  C   UNL     1      52.760   5.103  19.286  0.00  0.00    +0.000 A 
ATOM     28  S   UNL     1      53.781   3.744  19.426  0.00  0.00    +0.000 S 
ATOM     29  C   UNL     1      52.710   2.780  18.521  0.00  0.00    +0.000 A 
ATOM     30  N   UNL     1      53.003   1.480  18.248  0.00  0.00    +0.000 NA
ATOM     31  C   UNL     1      52.118   0.873  17.531  0.00  0.00    +0.000 A 
ATOM     32  N   UNL     1      50.963   1.448  17.065  0.00  0.00    +0.000 N 
ATOM     33  C   UNL     1      50.614   2.749  17.339  0.00  0.00    +0.000 A 
ATOM     34  O   UNL     1      49.553   3.221  16.943  0.00  0.00    +0.000 OA
ATOM     35  C   UNL     1      51.583   3.481  18.133  0.00  0.00    +0.000 A 
ATOM     36  H   UNL     1      50.306   0.915  16.516  0.00  0.00    +0.000 HD
ENDBRANCH  23  26
ENDBRANCH  21  22
ENDBRANCH   4  21
TORSDOF 6
ENDMDL
MODEL 9
REMARK VINA RESULT:    -6.851      6.074      7.996
REMARK INTER + INTRA:         -10.320
REMARK INTER:                  -9.240
REMARK INTRA:                  -1.080
REMARK UNBOUND:                -1.065
REMARK  Name = 
REMARK  6 active torsions:
REMARK  status: ('A' for Active; 'I' for Inactive)
REMARK    1  A    between atoms: C_2  and  C_26
REMARK    2  A    between atoms: N_3  and  C_4
REMARK    3  A    between atoms: C_4  and  C_5
REMARK    4  A    between atoms: C_8  and  C_9
REMARK    5  A    between atoms: C_9  and  N_10
REMARK    6  A    between atoms: C_11  and  C_13
REMARK                            x       y       z     vdW  Elec       q    Type
REMARK                         _______ _______ _______ _____ _____    ______ ____
ROOT
ATOM      1  C   UNL     1      48.105   8.513  12.347  0.00  0.00    +0.000 A 
ATOM      2  C   UNL     1      49.150   7.576  12.265  0.00  0.00    +0.000 A 
ATOM      3  C   UNL     1      50.404   7.931  11.758  0.00  0.00    +0.000 A 
ATOM      4  C   UNL     1      50.644   9.230  11.296  0.00  0.00    +0.000 A 
ATOM      5  C   UNL     1      49.611  10.174  11.385  0.00  0.00    +0.000 A 
ATOM      6  C   UNL     1      48.354   9.817  11.895  0.00  0.00    +0.000 A 
ATOM      7 CL   UNL     1      47.135  11.041  11.932  0.00  0.00    +0.000 Cl
ENDROOT
BRANCH   1   8
ATOM      8  C   UNL     1      46.778   8.067  12.911  0.00  0.00    +0.000 C 
BRANCH   8  11
ATOM      9  O   UNL     1      44.694   7.767  11.090  0.00  0.00    +0.000 OA
ATOM     10  C   UNL     1      45.334   6.775  11.417  0.00  0.00    +0.000 C 
ATOM     11  N   UNL     1      46.346   6.799  12.357  0.00  0.00    +0.000 N 
ATOM     12  H   UNL     1      47.010   6.038  12.381  0.00  0.00    +0.000 HD
BRANCH  10  13
ATOM     13  C   UNL     1      45.050   5.471  10.756  0.00  0.00    +0.000 A 
ATOM     14  C   UNL     1      44.335   4.506  11.478  0.00  0.00    +0.000 A 
ATOM     15  C   UNL     1      44.066   3.265  10.904  0.00  0.00    +0.000 A 
ATOM     16 CL   UNL     1      43.176   2.088  11.791  0.00  0.00    +0.000 Cl
ATOM     17  C   UNL     1      44.511   2.967   9.620  0.00  0.00    +0.000 A 
ATOM     18  C   UNL     1      45.238   3.923   8.914  0.00  0.00    +0.000 A 
ATOM     19 CL   UNL     1      45.814   3.552   7.334  0.00  0.00    +0.000 Cl
ATOM     20  C   UNL     1      45.514   5.174   9.470  0.00  0.00    +0.000 A 
ENDBRANCH  10  13
ENDBRANCH   8  11
ENDBRANCH   1   8
BRANCH   4  21
ATOM     21  C   UNL     1      51.992   9.607  10.734  0.00  0.00    +0.000 C 
BRANCH  21  22
ATOM     22  N   UNL     1      52.317   8.827   9.565  0.00  0.00    +0.000 N 
ATOM     23  C   UNL     1      53.408   9.140   8.794  0.00  0.00    +0.000 C 
ATOM     24  O   UNL     1      54.189  10.035   9.107  0.00  0.00    +0.000 OA
ATOM     25  H   UNL     1      51.580   8.246   9.174  0.00  0.00    +0.000 HD
BRANCH  23  26
ATOM     26  C   UNL     1      53.631   8.316   7.597  0.00  0.00    +0.000 A 
ATOM     27  C   UNL     1      53.806   8.928   6.363  0.00  0.00    +0.000 A 
ATOM     28  S   UNL     1      54.087   7.831   5.088  0.00  0.00    +0.000 S 
ATOM     29  C   UNL     1      53.941   6.495   6.132  0.00  0.00    +0.000 A 
ATOM     30  N   UNL     1      54.056   5.225   5.661  0.00  0.00    +0.000 NA
ATOM     31  C   UNL     1      53.897   4.308   6.555  0.00  0.00    +0.000 A 
ATOM     32  N   UNL     1      53.636   4.547   7.880  0.00  0.00    +0.000 N 
ATOM     33  C   UNL     1      53.538   5.813   8.405  0.00  0.00    +0.000 A 
ATOM     34  O   UNL     1      53.347   5.994   9.604  0.00  0.00    +0.000 OA
ATOM     35  C   UNL     1      53.698   6.883   7.438  0.00  0.00    +0.000 A 
ATOM     36  H   UNL     1      53.532   3.783   8.531  0.00  0.00    +0.000 HD
ENDBRANCH  23  26
ENDBRANCH  21  22
ENDBRANCH   4  21
TORSDOF 6
ENDMDL
