MODEL 1
REMARK VINA RESULT:    -7.322      0.000      0.000
REMARK INTER + INTRA:          -8.967
REMARK INTER:                  -8.606
REMARK INTRA:                  -0.361
REMARK UNBOUND:                -0.361
REMARK  Name = 
REMARK  3 active torsions:
REMARK  status: ('A' for Active; 'I' for Inactive)
REMARK    1  A    between atoms: C_5  and  N_6
REMARK    2  A    between atoms: N_6  and  C_7
REMARK    3  A    between atoms: C_7  and  C_8
REMARK                            x       y       z     vdW  Elec       q    Type
REMARK                         _______ _______ _______ _____ _____    ______ ____
ROOT
ATOM      1  C   UNL     1      44.881   4.482  11.190  0.00  0.00    +0.000 A 
ATOM      2  C   UNL     1      45.050   3.532  12.190  0.00  0.00    +0.000 A 
ATOM      3  C   UNL     1      46.013   3.772  13.161  0.00  0.00    +0.000 A 
ATOM      4  N   UNL     1      46.802   4.871  13.199  0.00  0.00    +0.000 NA
ATOM      5  C   UNL     1      46.610   5.823  12.264  0.00  0.00    +0.000 A 
ATOM      6  N   UNL     1      47.421   6.951  12.237  0.00  0.00    +0.000 N 
ATOM      7  C   UNL     1      48.790   6.850  12.736  0.00  0.00    +0.000 C 
ATOM      8  C   UNL     1      48.978   7.556  14.076  0.00  0.00    +0.000 C 
ATOM      9  C   UNL     1      48.407   8.970  14.044  0.00  0.00    +0.000 C 
ATOM     10  C   UNL     1      46.941   8.932  13.625  0.00  0.00    +0.000 C 
ATOM     11  C   UNL     1      46.774   8.260  12.263  0.00  0.00    +0.000 C 
ATOM     12  C   UNL     1      45.648   5.653  11.262  0.00  0.00    +0.000 A 
ENDROOT
BRANCH   1  13
ATOM     13  C   UNL     1      43.953   4.253  10.023  0.00  0.00    +0.000 C 
BRANCH  13  14
ATOM     14  N   UNL     1      44.649   4.437   8.761  0.00  0.00    +0.000 N 
ATOM     15  H   UNL     1      44.065   4.826   8.024  0.00  0.00    +0.000 HD
BRANCH  14  20
ATOM     16  C   UNL     1      47.269   2.614   6.820  0.00  0.00    +0.000 A 
ATOM     17  C   UNL     1      47.064   1.350   7.343  0.00  0.00    +0.000 A 
ATOM     18  N   UNL     1      46.141   1.081   8.286  0.00  0.00    +0.000 NA
ATOM     19  C   UNL     1      45.398   2.132   8.720  0.00  0.00    +0.000 A 
ATOM     20  C   UNL     1      45.531   3.459   8.293  0.00  0.00    +0.000 A 
ATOM     21  C   UNL     1      46.486   3.669   7.294  0.00  0.00    +0.000 A 
ENDBRANCH  14  20
ENDBRANCH  13  14
ENDBRANCH   1  13
TORSDOF 3
ENDMDL
MODEL 2
REMARK VINA RESULT:    -6.631      2.752      4.059
REMARK INTER + INTRA:          -8.155
REMARK INTER:                  -7.819
REMARK INTRA:                  -0.336
REMARK UNBOUND:                -0.361
REMARK  Name = 
REMARK  3 active torsions:
REMARK  status: ('A' for Active; 'I' for Inactive)
REMARK    1  A    between atoms: C_5  and  N_6
REMARK    2  A    between atoms: N_6  and  C_7
REMARK    3  A    between atoms: C_7  and  C_8
REMARK                            x       y       z     vdW  Elec       q    Type
REMARK                         _______ _______ _______ _____ _____    ______ ____
ROOT
ATOM      1  C   UNL     1      45.916   5.174  13.175  0.00  0.00    +0.000 A 
ATOM      2  C   UNL     1      46.832   5.996  12.530  0.00  0.00    +0.000 A 
ATOM      3  C   UNL     1      48.013   6.303  13.192  0.00  0.00    +0.000 A 
ATOM      4  N   UNL     1      48.334   5.857  14.428  0.00  0.00    +0.000 NA
ATOM      5  C   UNL     1      47.477   5.016  15.042  0.00  0.00    +0.000 A 
ATOM      6  N   UNL     1      47.742   4.562  16.328  0.00  0.00    +0.000 N 
ATOM      7  C   UNL     1      48.523   5.405  17.229  0.00  0.00    +0.000 C 
ATOM      8  C   UNL     1      49.933   4.867  17.458  0.00  0.00    +0.000 C 
ATOM      9  C   UNL     1      49.911   3.385  17.819  0.00  0.00    +0.000 C 
ATOM     10  C   UNL     1      49.172   2.596  16.744  0.00  0.00    +0.000 C 
ATOM     11  C   UNL     1      47.748   3.119  16.557  0.00  0.00    +0.000 C 
ATOM     12  C   UNL     1      46.273   4.654  14.428  0.00  0.00    +0.000 A 
ENDROOT
BRANCH   1  13
ATOM     13  C   UNL     1      44.555   4.888  12.594  0.00  0.00    +0.000 C 
BRANCH  13  14
ATOM     14  N   UNL     1      44.464   5.362  11.223  0.00  0.00    +0.000 N 
ATOM     15  H   UNL     1      43.650   5.945  11.044  0.00  0.00    +0.000 HD
BRANCH  14  20
ATOM     16  C   UNL     1      44.855   2.335   9.069  0.00  0.00    +0.000 A 
ATOM     17  C   UNL     1      45.605   2.905   8.055  0.00  0.00    +0.000 A 
ATOM     18  N   UNL     1      45.965   4.203   8.042  0.00  0.00    +0.000 NA
ATOM     19  C   UNL     1      45.547   4.955   9.093  0.00  0.00    +0.000 A 
ATOM     20  C   UNL     1      44.760   4.504  10.160  0.00  0.00    +0.000 A 
ATOM     21  C   UNL     1      44.443   3.143  10.130  0.00  0.00    +0.000 A 
ENDBRANCH  14  20
ENDBRANCH  13  14
ENDBRANCH   1  13
TORSDOF 3
ENDMDL
MODEL 3
REMARK VINA RESULT:    -6.618      3.052      5.310
REMARK INTER + INTRA:          -8.139
REMARK INTER:                  -7.760
REMARK INTRA:                  -0.380
REMARK UNBOUND:                -0.361
REMARK  Name = 
REMARK  3 active torsions:
REMARK  status: ('A' for Active; 'I' for Inactive)
REMARK    1  A    between atoms: C_5  and  N_6
REMARK    2  A    between atoms: N_6  and  C_7
REMARK    3  A    between atoms: C_7  and  C_8
REMARK                            x       y       z     vdW  Elec       q    Type
REMARK                         _______ _______ _______ _____ _____    ______ ____
ROOT
ATOM      1  C   UNL     1      46.616   2.065   7.594  0.00  0.00    +0.000 A 
ATOM      2  C   UNL     1      47.007   3.230   6.944  0.00  0.00    +0.000 A 
ATOM      3  C   UNL     1      46.539   4.440   7.438  0.00  0.00    +0.000 A 
ATOM      4  N   UNL     1      45.724   4.563   8.511  0.00  0.00    +0.000 NA
ATOM      5  C   UNL     1      45.381   3.444   9.181  0.00  0.00    +0.000 A 
ATOM      6  N   UNL     1      44.515   3.514  10.264  0.00  0.00    +0.000 N 
ATOM      7  C   UNL     1      43.519   4.582  10.306  0.00  0.00    +0.000 C 
ATOM      8  C   UNL     1      43.850   5.650  11.344  0.00  0.00    +0.000 C 
ATOM      9  C   UNL     1      44.185   5.029  12.695  0.00  0.00    +0.000 C 
ATOM     10  C   UNL     1      45.318   4.020  12.541  0.00  0.00    +0.000 C 
ATOM     11  C   UNL     1      44.954   2.933  11.530  0.00  0.00    +0.000 C 
ATOM     12  C   UNL     1      45.826   2.191   8.746  0.00  0.00    +0.000 A 
ENDROOT
BRANCH   1  13
ATOM     13  C   UNL     1      46.966   0.699   7.059  0.00  0.00    +0.000 C 
BRANCH  13  14
ATOM     14  N   UNL     1      47.683   0.801   5.799  0.00  0.00    +0.000 N 
ATOM     15  H   UNL     1      48.228   1.655   5.705  0.00  0.00    +0.000 HD
BRANCH  14  20
ATOM     16  C   UNL     1      45.690   0.804   2.640  0.00  0.00    +0.000 A 
ATOM     17  C   UNL     1      45.733  -0.553   2.373  0.00  0.00    +0.000 A 
ATOM     18  N   UNL     1      46.381  -1.439   3.153  0.00  0.00    +0.000 NA
ATOM     19  C   UNL     1      47.012  -0.933   4.245  0.00  0.00    +0.000 A 
ATOM     20  C   UNL     1      47.067   0.419   4.604  0.00  0.00    +0.000 A 
ATOM     21  C   UNL     1      46.353   1.284   3.770  0.00  0.00    +0.000 A 
ENDBRANCH  14  20
ENDBRANCH  13  14
ENDBRANCH   1  13
TORSDOF 3
ENDMDL
MODEL 4
REMARK VINA RESULT:    -6.046      2.991      5.067
REMARK INTER + INTRA:          -7.467
REMARK INTER:                  -7.178
REMARK INTRA:                  -0.289
REMARK UNBOUND:                -0.361
REMARK  Name = 
REMARK  3 active torsions:
REMARK  status: ('A' for Active; 'I' for Inactive)
REMARK    1  A    between atoms: C_5  and  N_6
REMARK    2  A    between atoms: N_6  and  C_7
REMARK    3  A    between atoms: C_7  and  C_8
REMARK                            x       y       z     vdW  Elec       q    Type
REMARK                         _______ _______ _______ _____ _____    ______ ____
ROOT
ATOM      1  C   UNL     1      47.799   6.507  13.040  0.00  0.00    +0.000 A 
ATOM      2  C   UNL     1      48.948   7.280  13.150  0.00  0.00    +0.000 A 
ATOM      3  C   UNL     1      49.650   7.240  14.348  0.00  0.00    +0.000 A 
ATOM      4  N   UNL     1      49.288   6.496  15.420  0.00  0.00    +0.000 NA
ATOM      5  C   UNL     1      48.205   5.702  15.306  0.00  0.00    +0.000 A 
ATOM      6  N   UNL     1      47.771   4.951  16.391  0.00  0.00    +0.000 N 
ATOM      7  C   UNL     1      48.029   5.443  17.741  0.00  0.00    +0.000 C 
ATOM      8  C   UNL     1      49.110   4.641  18.459  0.00  0.00    +0.000 C 
ATOM      9  C   UNL     1      48.849   3.142  18.360  0.00  0.00    +0.000 C 
ATOM     10  C   UNL     1      48.717   2.730  16.898  0.00  0.00    +0.000 C 
ATOM     11  C   UNL     1      47.602   3.512  16.203  0.00  0.00    +0.000 C 
ATOM     12  C   UNL     1      47.458   5.684  14.123  0.00  0.00    +0.000 A 
ENDROOT
BRANCH   1  13
ATOM     13  C   UNL     1      46.902   6.581  11.830  0.00  0.00    +0.000 C 
BRANCH  13  14
ATOM     14  N   UNL     1      45.510   6.391  12.201  0.00  0.00    +0.000 N 
ATOM     15  H   UNL     1      45.272   6.779  13.110  0.00  0.00    +0.000 HD
BRANCH  14  20
ATOM     16  C   UNL     1      43.949   3.452  10.503  0.00  0.00    +0.000 A 
ATOM     17  C   UNL     1      43.411   2.837  11.618  0.00  0.00    +0.000 A 
ATOM     18  N   UNL     1      43.546   3.322  12.868  0.00  0.00    +0.000 NA
ATOM     19  C   UNL     1      44.257   4.473  12.994  0.00  0.00    +0.000 A 
ATOM     20  C   UNL     1      44.874   5.172  11.949  0.00  0.00    +0.000 A 
ATOM     21  C   UNL     1      44.675   4.633  10.675  0.00  0.00    +0.000 A 
ENDBRANCH  14  20
ENDBRANCH  13  14
ENDBRANCH   1  13
TORSDOF 3
ENDMDL
MODEL 5
REMARK VINA RESULT:    -5.998      2.784      7.137
REMARK INTER + INTRA:          -7.411
REMARK INTER:                  -6.967
REMARK INTRA:                  -0.444
REMARK UNBOUND:                -0.361
REMARK  Name = 
REMARK  3 active torsions:
REMARK  status: ('A' for Active; 'I' for Inactive)
REMARK    1  A    between atoms: C_5  and  N_6
REMARK    2  A    between atoms: N_6  and  C_7
REMARK    3  A    between atoms: C_7  and  C_8
REMARK                            x       y       z     vdW  Elec       q    Type
REMARK                         _______ _______ _______ _____ _____    ______ ____
ROOT
ATOM      1  C   UNL     1      47.578   7.203  13.916  0.00  0.00    +0.000 A 
ATOM      2  C   UNL     1      46.896   8.378  13.619  0.00  0.00    +0.000 A 
ATOM      3  C   UNL     1      45.852   8.313  12.707  0.00  0.00    +0.000 A 
ATOM      4  N   UNL     1      45.452   7.180  12.082  0.00  0.00    +0.000 NA
ATOM      5  C   UNL     1      46.072   6.026  12.401  0.00  0.00    +0.000 A 
ATOM      6  N   UNL     1      45.725   4.845  11.759  0.00  0.00    +0.000 N 
ATOM      7  C   UNL     1      45.212   4.906  10.393  0.00  0.00    +0.000 C 
ATOM      8  C   UNL     1      43.716   4.615  10.316  0.00  0.00    +0.000 C 
ATOM      9  C   UNL     1      43.356   3.346  11.082  0.00  0.00    +0.000 C 
ATOM     10  C   UNL     1      43.839   3.453  12.525  0.00  0.00    +0.000 C 
ATOM     11  C   UNL     1      45.345   3.702  12.586  0.00  0.00    +0.000 C 
ATOM     12  C   UNL     1      47.125   6.016  13.323  0.00  0.00    +0.000 A 
ENDROOT
BRANCH   1  13
ATOM     13  C   UNL     1      48.803   7.194  14.794  0.00  0.00    +0.000 C 
BRANCH  13  14
ATOM     14  N   UNL     1      48.474   6.770  16.144  0.00  0.00    +0.000 N 
ATOM     15  H   UNL     1      48.757   7.431  16.863  0.00  0.00    +0.000 HD
BRANCH  14  20
ATOM     16  C   UNL     1      47.892   3.200  17.077  0.00  0.00    +0.000 A 
ATOM     17  C   UNL     1      49.169   2.894  17.512  0.00  0.00    +0.000 A 
ATOM     18  N   UNL     1      50.185   3.778  17.498  0.00  0.00    +0.000 NA
ATOM     19  C   UNL     1      49.899   5.018  17.024  0.00  0.00    +0.000 A 
ATOM     20  C   UNL     1      48.659   5.439  16.529  0.00  0.00    +0.000 A 
ATOM     21  C   UNL     1      47.639   4.485  16.595  0.00  0.00    +0.000 A 
ENDBRANCH  14  20
ENDBRANCH  13  14
ENDBRANCH   1  13
TORSDOF 3
ENDMDL
MODEL 6
REMARK VINA RESULT:    -5.726      2.579      7.250
REMARK INTER + INTRA:          -7.091
REMARK INTER:                  -6.703
REMARK INTRA:                  -0.389
REMARK UNBOUND:                -0.361
REMARK  Name = 
REMARK  3 active torsions:
REMARK  status: ('A' for Active; 'I' for Inactive)
REMARK    1  A    between atoms: C_5  and  N_6
REMARK    2  A    between atoms: N_6  and  C_7
REMARK    3  A    between atoms: C_7  and  C_8
REMARK                            x       y       z     vdW  Elec       q    Type
REMARK                         _______ _______ _______ _____ _____    ______ ____
ROOT
ATOM      1  C   UNL     1      47.327   7.683  13.459  0.00  0.00    +0.000 A 
ATOM      2  C   UNL     1      46.542   8.757  13.056  0.00  0.00    +0.000 A 
ATOM      3  C   UNL     1      45.472   8.502  12.210  0.00  0.00    +0.000 A 
ATOM      4  N   UNL     1      45.140   7.274  11.746  0.00  0.00    +0.000 NA
ATOM      5  C   UNL     1      45.862   6.218  12.172  0.00  0.00    +0.000 A 
ATOM      6  N   UNL     1      45.587   4.944  11.694  0.00  0.00    +0.000 N 
ATOM      7  C   UNL     1      45.018   4.797  10.357  0.00  0.00    +0.000 C 
ATOM      8  C   UNL     1      43.548   4.387  10.388  0.00  0.00    +0.000 C 
ATOM      9  C   UNL     1      43.321   3.200  11.318  0.00  0.00    +0.000 C 
ATOM     10  C   UNL     1      43.849   3.520  12.712  0.00  0.00    +0.000 C 
ATOM     11  C   UNL     1      45.332   3.887  12.670  0.00  0.00    +0.000 C 
ATOM     12  C   UNL     1      46.948   6.401  13.036  0.00  0.00    +0.000 A 
ENDROOT
BRANCH   1  13
ATOM     13  C   UNL     1      48.583   7.874  14.271  0.00  0.00    +0.000 C 
BRANCH  13  14
ATOM     14  N   UNL     1      48.345   7.579  15.674  0.00  0.00    +0.000 N 
ATOM     15  H   UNL     1      48.251   8.407  16.257  0.00  0.00    +0.000 HD
BRANCH  14  20
ATOM     16  C   UNL     1      51.052   5.500  17.194  0.00  0.00    +0.000 A 
ATOM     17  C   UNL     1      50.332   4.333  17.373  0.00  0.00    +0.000 A 
ATOM     18  N   UNL     1      49.032   4.206  17.041  0.00  0.00    +0.000 NA
ATOM     19  C   UNL     1      48.437   5.305  16.509  0.00  0.00    +0.000 A 
ATOM     20  C   UNL     1      49.047   6.549  16.306  0.00  0.00    +0.000 A 
ATOM     21  C   UNL     1      50.402   6.608  16.646  0.00  0.00    +0.000 A 
ENDBRANCH  14  20
ENDBRANCH  13  14
ENDBRANCH   1  13
TORSDOF 3
ENDMDL
MODEL 7
REMARK VINA RESULT:    -5.250      2.520      4.058
REMARK INTER + INTRA:          -6.532
REMARK INTER:                  -6.220
REMARK INTRA:                  -0.312
REMARK UNBOUND:                -0.361
REMARK  Name = 
REMARK  3 active torsions:
REMARK  status: ('A' for Active; 'I' for Inactive)
REMARK    1  A    between atoms: C_5  and  N_6
REMARK    2  A    between atoms: N_6  and  C_7
REMARK    3  A    between atoms: C_7  and  C_8
REMARK                            x       y       z     vdW  Elec       q    Type
REMARK                         _______ _______ _______ _____ _____    ______ ____
ROOT
ATOM      1  C   UNL     1      47.176   6.294  13.081  0.00  0.00    +0.000 A 
ATOM      2  C   UNL     1      48.086   6.844  12.185  0.00  0.00    +0.000 A 
ATOM      3  C   UNL     1      49.281   7.338  12.691  0.00  0.00    +0.000 A 
ATOM      4  N   UNL     1      49.621   7.322  14.001  0.00  0.00    +0.000 NA
ATOM      5  C   UNL     1      48.770   6.743  14.871  0.00  0.00    +0.000 A 
ATOM      6  N   UNL     1      49.056   6.737  16.230  0.00  0.00    +0.000 N 
ATOM      7  C   UNL     1      49.860   7.820  16.790  0.00  0.00    +0.000 C 
ATOM      8  C   UNL     1      51.269   7.371  17.162  0.00  0.00    +0.000 C 
ATOM      9  C   UNL     1      51.244   6.093  17.994  0.00  0.00    +0.000 C 
ATOM     10  C   UNL     1      50.479   5.002  17.252  0.00  0.00    +0.000 C 
ATOM     11  C   UNL     1      49.056   5.451  16.924  0.00  0.00    +0.000 C 
ATOM     12  C   UNL     1      47.552   6.214  14.429  0.00  0.00    +0.000 A 
ENDROOT
BRANCH   1  13
ATOM     13  C   UNL     1      45.802   5.849  12.647  0.00  0.00    +0.000 C 
BRANCH  13  14
ATOM     14  N   UNL     1      45.616   6.048  11.220  0.00  0.00    +0.000 N 
ATOM     15  H   UNL     1      45.081   6.881  10.989  0.00  0.00    +0.000 HD
BRANCH  14  20
ATOM     16  C   UNL     1      45.264   3.796   8.260  0.00  0.00    +0.000 A 
ATOM     17  C   UNL     1      44.460   2.830   8.837  0.00  0.00    +0.000 A 
ATOM     18  N   UNL     1      44.053   2.876  10.120  0.00  0.00    +0.000 NA
ATOM     19  C   UNL     1      44.478   3.940  10.849  0.00  0.00    +0.000 A 
ATOM     20  C   UNL     1      45.316   4.964  10.391  0.00  0.00    +0.000 A 
ATOM     21  C   UNL     1      45.682   4.873   9.044  0.00  0.00    +0.000 A 
ENDBRANCH  14  20
ENDBRANCH  13  14
ENDBRANCH   1  13
TORSDOF 3
ENDMDL
MODEL 8
REMARK VINA RESULT:    -4.993      3.297      8.202
REMARK INTER + INTRA:          -6.230
REMARK INTER:                  -5.872
REMARK INTRA:                  -0.357
REMARK UNBOUND:                -0.361
REMARK  Name = 
REMARK  3 active torsions:
REMARK  status: ('A' for Active; 'I' for Inactive)
REMARK    1  A    between atoms: C_5  and  N_6
REMARK    2  A    between atoms: N_6  and  C_7
REMARK    3  A    between atoms: C_7  and  C_8
REMARK                            x       y       z     vdW  Elec       q    Type
REMARK                         _______ _______ _______ _____ _____    ______ ____
ROOT
ATOM      1  C   UNL     1      47.969   6.239  14.660  0.00  0.00    +0.000 A 
ATOM      2  C   UNL     1      47.943   5.025  15.335  0.00  0.00    +0.000 A 
ATOM      3  C   UNL     1      46.953   4.112  14.997  0.00  0.00    +0.000 A 
ATOM      4  N   UNL     1      46.007   4.326  14.053  0.00  0.00    +0.000 NA
ATOM      5  C   UNL     1      46.054   5.479  13.356  0.00  0.00    +0.000 A 
ATOM      6  N   UNL     1      45.082   5.762  12.405  0.00  0.00    +0.000 N 
ATOM      7  C   UNL     1      43.744   5.203  12.574  0.00  0.00    +0.000 C 
ATOM      8  C   UNL     1      43.449   4.082  11.582  0.00  0.00    +0.000 C 
ATOM      9  C   UNL     1      43.799   4.494  10.156  0.00  0.00    +0.000 C 
ATOM     10  C   UNL     1      45.255   4.943  10.085  0.00  0.00    +0.000 C 
ATOM     11  C   UNL     1      45.524   6.095  11.053  0.00  0.00    +0.000 C 
ATOM     12  C   UNL     1      47.033   6.439  13.636  0.00  0.00    +0.000 A 
ENDROOT
BRANCH   1  13
ATOM     13  C   UNL     1      48.923   7.343  15.043  0.00  0.00    +0.000 C 
BRANCH  13  14
ATOM     14  N   UNL     1      48.333   8.219  16.040  0.00  0.00    +0.000 N 
ATOM     15  H   UNL     1      48.368   9.205  15.793  0.00  0.00    +0.000 HD
BRANCH  14  20
ATOM     16  C   UNL     1      48.165   8.362  19.770  0.00  0.00    +0.000 A 
ATOM     17  C   UNL     1      49.285   7.600  20.051  0.00  0.00    +0.000 A 
ATOM     18  N   UNL     1      50.061   7.047  19.099  0.00  0.00    +0.000 NA
ATOM     19  C   UNL     1      49.688   7.270  17.812  0.00  0.00    +0.000 A 
ATOM     20  C   UNL     1      48.562   7.994  17.401  0.00  0.00    +0.000 A 
ATOM     21  C   UNL     1      47.814   8.565  18.434  0.00  0.00    +0.000 A 
ENDBRANCH  14  20
ENDBRANCH  13  14
ENDBRANCH   1  13
TORSDOF 3
ENDMDL
MODEL 9
REMARK VINA RESULT:    -4.861      2.427      6.739
REMARK INTER + INTRA:          -6.075
REMARK INTER:                  -5.678
REMARK INTRA:                  -0.397
REMARK UNBOUND:                -0.361
REMARK  Name = 
REMARK  3 active torsions:
REMARK  status: ('A' for Active; 'I' for Inactive)
REMARK    1  A    between atoms: C_5  and  N_6
REMARK    2  A    between atoms: N_6  and  C_7
REMARK    3  A    between atoms: C_7  and  C_8
REMARK                            x       y       z     vdW  Elec       q    Type
REMARK                         _______ _______ _______ _____ _____    ______ ____
ROOT
ATOM      1  C   UNL     1      47.686   6.574  14.072  0.00  0.00    +0.000 A 
ATOM      2  C   UNL     1      47.815   5.455  14.886  0.00  0.00    +0.000 A 
ATOM      3  C   UNL     1      46.993   4.365  14.632  0.00  0.00    +0.000 A 
ATOM      4  N   UNL     1      46.070   4.318  13.644  0.00  0.00    +0.000 NA
ATOM      5  C   UNL     1      45.972   5.378  12.815  0.00  0.00    +0.000 A 
ATOM      6  N   UNL     1      45.014   5.394  11.810  0.00  0.00    +0.000 N 
ATOM      7  C   UNL     1      43.770   4.654  12.007  0.00  0.00    +0.000 C 
ATOM      8  C   UNL     1      43.696   3.395  11.148  0.00  0.00    +0.000 C 
ATOM      9  C   UNL     1      44.046   3.692   9.694  0.00  0.00    +0.000 C 
ATOM     10  C   UNL     1      45.417   4.354   9.611  0.00  0.00    +0.000 C 
ATOM     11  C   UNL     1      45.461   5.636  10.441  0.00  0.00    +0.000 C 
ATOM     12  C   UNL     1      46.778   6.506  13.005  0.00  0.00    +0.000 A 
ENDROOT
BRANCH   1  13
ATOM     13  C   UNL     1      48.441   7.850  14.347  0.00  0.00    +0.000 C 
BRANCH  13  14
ATOM     14  N   UNL     1      47.770   8.991  13.748  0.00  0.00    +0.000 N 
ATOM     15  H   UNL     1      46.786   8.829  13.545  0.00  0.00    +0.000 HD
BRANCH  14  20
ATOM     16  C   UNL     1      48.483  11.422  11.002  0.00  0.00    +0.000 A 
ATOM     17  C   UNL     1      49.763  11.001  10.688  0.00  0.00    +0.000 A 
ATOM     18  N   UNL     1      50.389   9.995  11.329  0.00  0.00    +0.000 NA
ATOM     19  C   UNL     1      49.693   9.392  12.328  0.00  0.00    +0.000 A 
ATOM     20  C   UNL     1      48.409   9.745  12.759  0.00  0.00    +0.000 A 
ATOM     21  C   UNL     1      47.803  10.778  12.037  0.00  0.00    +0.000 A 
ENDBRANCH  14  20
ENDBRANCH  13  14
ENDBRANCH   1  13
TORSDOF 3
ENDMDL
