MODEL 1
REMARK VINA RESULT:    -8.344      0.000      0.000
REMARK INTER + INTRA:         -11.970
REMARK INTER:                 -11.270
REMARK INTRA:                  -0.699
REMARK UNBOUND:                -0.699
REMARK  Name = 
REMARK  6 active torsions:
REMARK  status: ('A' for Active; 'I' for Inactive)
REMARK    1  A    between atoms: C_2  and  C_4
REMARK    2  A    between atoms: N_8  and  C_9
REMARK    3  A    between atoms: C_9  and  C_10
REMARK    4  A    between atoms: C_10  and  C_11
REMARK    5  A    between atoms: C_13  and  N_14
REMARK    6  A    between atoms: N_14  and  C_15
REMARK                            x       y       z     vdW  Elec       q    Type
REMARK                         _______ _______ _______ _____ _____    ______ ____
ROOT
ATOM      1  C   UNL     1      43.381   5.224  12.247  0.00  0.00    +0.000 C 
ENDROOT
BRANCH   1   2
ATOM      2  C   UNL     1      44.772   5.485  12.786  0.00  0.00    +0.000 A 
ATOM      3  C   UNL     1      45.339   4.546  13.668  0.00  0.00    +0.000 A 
ATOM      4  C   UNL     1      46.613   4.728  14.234  0.00  0.00    +0.000 A 
ATOM      5  C   UNL     1      47.339   5.865  13.875  0.00  0.00    +0.000 A 
ATOM      6  C   UNL     1      46.806   6.794  12.975  0.00  0.00    +0.000 A 
ATOM      7  C   UNL     1      45.534   6.603  12.428  0.00  0.00    +0.000 A 
ATOM      8 CL   UNL     1      44.965   7.774  11.293  0.00  0.00    +0.000 Cl
BRANCH   4   9
ATOM      9  N   UNL     1      47.142   3.716  15.062  0.00  0.00    +0.000 N 
ATOM     10  H   UNL     1      46.500   2.932  15.155  0.00  0.00    +0.000 HD
BRANCH   9  11
ATOM     11  C   UNL     1      47.922   3.916  16.260  0.00  0.00    +0.000 C 
ATOM     12  C   UNL     1      47.999   2.640  17.125  0.00  0.00    +0.000 C 
ATOM     13  N   UNL     1      47.496   3.388  18.287  0.00  0.00    +0.000 NA
ATOM     14  C   UNL     1      47.115   4.522  17.426  0.00  0.00    +0.000 C 
ATOM     15  H   UNL     1      48.219   3.616  18.970  0.00  0.00    +0.000 HD
ENDBRANCH   9  11
ENDBRANCH   4   9
ENDBRANCH   1   2
BRANCH   1  16
ATOM     16  C   UNL     1      43.363   4.118  11.186  0.00  0.00    +0.000 C 
BRANCH  16  21
ATOM     17  C   UNL     1      46.441   2.570   7.682  0.00  0.00    +0.000 A 
ATOM     18  C   UNL     1      45.573   1.946   8.543  0.00  0.00    +0.000 A 
ATOM     19  N   UNL     1      44.652   2.604   9.278  0.00  0.00    +0.000 NA
ATOM     20  C   UNL     1      44.609   3.940   9.158  0.00  0.00    +0.000 A 
ATOM     21  N   UNL     1      43.682   4.679   9.880  0.00  0.00    +0.000 N 
ATOM     22  N   UNL     1      45.432   4.641   8.366  0.00  0.00    +0.000 NA
ATOM     23  C   UNL     1      46.339   3.941   7.644  0.00  0.00    +0.000 A 
ATOM     24  H   UNL     1      44.033   5.632   9.883  0.00  0.00    +0.000 HD
BRANCH  17  26
ATOM     25  N   UNL     1      48.514   2.575   6.420  0.00  0.00    +0.000 N 
ATOM     26  C   UNL     1      47.440   1.860   6.872  0.00  0.00    +0.000 C 
ATOM     27  O   UNL     1      47.328   0.665   6.636  0.00  0.00    +0.000 OA
ATOM     28  H   UNL     1      49.235   2.046   5.941  0.00  0.00    +0.000 HD
ATOM     29  H   UNL     1      48.778   3.478   6.787  0.00  0.00    +0.000 HD
ENDBRANCH  17  26
ENDBRANCH  16  21
ENDBRANCH   1  16
TORSDOF 6
ENDMDL
MODEL 2
REMARK VINA RESULT:    -7.494      2.952      4.613
REMARK INTER + INTRA:         -10.821
REMARK INTER:                 -10.314
REMARK INTRA:                  -0.508
REMARK UNBOUND:                -0.699
REMARK  Name = 
REMARK  6 active torsions:
REMARK  status: ('A' for Active; 'I' for Inactive)
REMARK    1  A    between atoms: C_2  and  C_4
REMARK    2  A    between atoms: N_8  and  C_9
REMARK    3  A    between atoms: C_9  and  C_10
REMARK    4  A    between atoms: C_10  and  C_11
REMARK    5  A    between atoms: C_13  and  N_14
REMARK    6  A    between atoms: N_14  and  C_15
REMARK                            x       y       z     vdW  Elec       q    Type
REMARK                         _______ _______ _______ _____ _____    ______ ____
ROOT
ATOM      1  C   UNL     1      43.586   4.127  12.638  0.00  0.00    +0.000 C 
ENDROOT
BRANCH   1   2
ATOM      2  C   UNL     1      44.662   5.191  12.687  0.00  0.00    +0.000 A 
ATOM      3  C   UNL     1      44.287   6.537  12.511  0.00  0.00    +0.000 A 
ATOM      4  C   UNL     1      45.229   7.581  12.515  0.00  0.00    +0.000 A 
ATOM      5  C   UNL     1      46.570   7.260  12.733  0.00  0.00    +0.000 A 
ATOM      6  C   UNL     1      46.958   5.932  12.941  0.00  0.00    +0.000 A 
ATOM      7  C   UNL     1      46.011   4.904  12.926  0.00  0.00    +0.000 A 
ATOM      8 CL   UNL     1      46.565   3.298  13.232  0.00  0.00    +0.000 Cl
BRANCH   4   9
ATOM      9  N   UNL     1      44.774   8.910  12.395  0.00  0.00    +0.000 N 
ATOM     10  H   UNL     1      44.124   9.154  13.138  0.00  0.00    +0.000 HD
BRANCH   9  11
ATOM     11  C   UNL     1      44.461   9.595  11.164  0.00  0.00    +0.000 C 
ATOM     12  C   UNL     1      44.060  11.067  11.401  0.00  0.00    +0.000 C 
ATOM     13  N   UNL     1      42.804  10.852  10.666  0.00  0.00    +0.000 NA
ATOM     14  C   UNL     1      43.005   9.392  10.697  0.00  0.00    +0.000 C 
ATOM     15  H   UNL     1      42.809  11.246   9.725  0.00  0.00    +0.000 HD
ENDBRANCH   9  11
ENDBRANCH   4   9
ENDBRANCH   1   2
BRANCH   1  16
ATOM     16  C   UNL     1      43.785   3.148  11.475  0.00  0.00    +0.000 C 
BRANCH  16  21
ATOM     17  C   UNL     1      46.517   2.441   7.452  0.00  0.00    +0.000 A 
ATOM     18  C   UNL     1      45.874   1.611   8.336  0.00  0.00    +0.000 A 
ATOM     19  N   UNL     1      44.985   2.045   9.254  0.00  0.00    +0.000 NA
ATOM     20  C   UNL     1      44.742   3.364   9.300  0.00  0.00    +0.000 A 
ATOM     21  N   UNL     1      43.835   3.877  10.216  0.00  0.00    +0.000 N 
ATOM     22  N   UNL     1      45.340   4.258   8.499  0.00  0.00    +0.000 NA
ATOM     23  C   UNL     1      46.223   3.778   7.591  0.00  0.00    +0.000 A 
ATOM     24  H   UNL     1      44.048   4.868  10.288  0.00  0.00    +0.000 HD
BRANCH  17  26
ATOM     25  N   UNL     1      48.666   2.647   6.344  0.00  0.00    +0.000 N 
ATOM     26  C   UNL     1      47.478   1.977   6.445  0.00  0.00    +0.000 C 
ATOM     27  O   UNL     1      47.235   1.006   5.741  0.00  0.00    +0.000 OA
ATOM     28  H   UNL     1      49.350   2.253   5.707  0.00  0.00    +0.000 HD
ATOM     29  H   UNL     1      49.013   3.278   7.052  0.00  0.00    +0.000 HD
ENDBRANCH  17  26
ENDBRANCH  16  21
ENDBRANCH   1  16
TORSDOF 6
ENDMDL
MODEL 3
REMARK VINA RESULT:    -7.283      3.327      5.179
REMARK INTER + INTRA:         -10.536
REMARK INTER:                 -10.032
REMARK INTRA:                  -0.505
REMARK UNBOUND:                -0.699
REMARK  Name = 
REMARK  6 active torsions:
REMARK  status: ('A' for Active; 'I' for Inactive)
REMARK    1  A    between atoms: C_2  and  C_4
REMARK    2  A    between atoms: N_8  and  C_9
REMARK    3  A    between atoms: C_9  and  C_10
REMARK    4  A    between atoms: C_10  and  C_11
REMARK    5  A    between atoms: C_13  and  N_14
REMARK    6  A    between atoms: N_14  and  C_15
REMARK                            x       y       z     vdW  Elec       q    Type
REMARK                         _______ _______ _______ _____ _____    ______ ____
ROOT
ATOM      1  C   UNL     1      45.815   5.578  11.916  0.00  0.00    +0.000 C 
ENDROOT
BRANCH   1   2
ATOM      2  C   UNL     1      46.097   7.054  12.103  0.00  0.00    +0.000 A 
ATOM      3  C   UNL     1      45.011   7.949  12.121  0.00  0.00    +0.000 A 
ATOM      4  C   UNL     1      45.189   9.337  12.262  0.00  0.00    +0.000 A 
ATOM      5  C   UNL     1      46.488   9.823  12.420  0.00  0.00    +0.000 A 
ATOM      6  C   UNL     1      47.578   8.946  12.437  0.00  0.00    +0.000 A 
ATOM      7  C   UNL     1      47.385   7.569  12.287  0.00  0.00    +0.000 A 
ATOM      8 CL   UNL     1      48.777   6.551  12.360  0.00  0.00    +0.000 Cl
BRANCH   4   9
ATOM      9  N   UNL     1      44.052  10.167  12.332  0.00  0.00    +0.000 N 
ATOM     10  H   UNL     1      43.366   9.810  12.994  0.00  0.00    +0.000 HD
BRANCH   9  11
ATOM     11  C   UNL     1      43.424  10.849  11.225  0.00  0.00    +0.000 C 
ATOM     12  C   UNL     1      42.512   9.912  10.405  0.00  0.00    +0.000 C 
ATOM     13  N   UNL     1      43.237  10.270   9.176  0.00  0.00    +0.000 NA
ATOM     14  C   UNL     1      44.305  10.912   9.961  0.00  0.00    +0.000 C 
ATOM     15  H   UNL     1      42.725  10.915   8.574  0.00  0.00    +0.000 HD
ENDBRANCH   9  11
ENDBRANCH   4   9
ENDBRANCH   1   2
BRANCH   1  16
ATOM     16  C   UNL     1      44.469   5.323  11.228  0.00  0.00    +0.000 C 
BRANCH  16  21
ATOM     17  C   UNL     1      46.302   2.102   8.001  0.00  0.00    +0.000 A 
ATOM     18  C   UNL     1      45.514   1.999   9.120  0.00  0.00    +0.000 A 
ATOM     19  N   UNL     1      44.944   3.059   9.730  0.00  0.00    +0.000 NA
ATOM     20  C   UNL     1      45.187   4.272   9.209  0.00  0.00    +0.000 A 
ATOM     21  N   UNL     1      44.628   5.405   9.782  0.00  0.00    +0.000 N 
ATOM     22  N   UNL     1      45.966   4.478   8.137  0.00  0.00    +0.000 NA
ATOM     23  C   UNL     1      46.515   3.385   7.555  0.00  0.00    +0.000 A 
ATOM     24  H   UNL     1      45.183   6.187   9.443  0.00  0.00    +0.000 HD
BRANCH  17  26
ATOM     25  N   UNL     1      47.714   1.203   6.244  0.00  0.00    +0.000 N 
ATOM     26  C   UNL     1      46.918   0.952   7.326  0.00  0.00    +0.000 C 
ATOM     27  O   UNL     1      46.746  -0.188   7.737  0.00  0.00    +0.000 OA
ATOM     28  H   UNL     1      48.201   0.404   5.850  0.00  0.00    +0.000 HD
ATOM     29  H   UNL     1      48.083   2.116   6.022  0.00  0.00    +0.000 HD
ENDBRANCH  17  26
ENDBRANCH  16  21
ENDBRANCH   1  16
TORSDOF 6
ENDMDL
MODEL 4
REMARK VINA RESULT:    -6.900      3.249      8.245
REMARK INTER + INTRA:         -10.019
REMARK INTER:                 -10.081
REMARK INTRA:                   0.062
REMARK UNBOUND:                -0.699
REMARK  Name = 
REMARK  6 active torsions:
REMARK  status: ('A' for Active; 'I' for Inactive)
REMARK    1  A    between atoms: C_2  and  C_4
REMARK    2  A    between atoms: N_8  and  C_9
REMARK    3  A    between atoms: C_9  and  C_10
REMARK    4  A    between atoms: C_10  and  C_11
REMARK    5  A    between atoms: C_13  and  N_14
REMARK    6  A    between atoms: N_14  and  C_15
REMARK                            x       y       z     vdW  Elec       q    Type
REMARK                         _______ _______ _______ _____ _____    ______ ____
ROOT
ATOM      1  C   UNL     1      45.282   5.988  11.388  0.00  0.00    +0.000 C 
ENDROOT
BRANCH   1   2
ATOM      2  C   UNL     1      45.042   4.764  10.529  0.00  0.00    +0.000 A 
ATOM      3  C   UNL     1      45.654   4.701   9.263  0.00  0.00    +0.000 A 
ATOM      4  C   UNL     1      45.459   3.613   8.393  0.00  0.00    +0.000 A 
ATOM      5  C   UNL     1      44.657   2.557   8.827  0.00  0.00    +0.000 A 
ATOM      6  C   UNL     1      44.065   2.587  10.094  0.00  0.00    +0.000 A 
ATOM      7  C   UNL     1      44.262   3.679  10.944  0.00  0.00    +0.000 A 
ATOM      8 CL   UNL     1      43.531   3.621  12.507  0.00  0.00    +0.000 Cl
BRANCH   4   9
ATOM      9  N   UNL     1      46.153   3.589   7.165  0.00  0.00    +0.000 N 
ATOM     10  H   UNL     1      45.858   4.345   6.552  0.00  0.00    +0.000 HD
BRANCH   9  11
ATOM     11  C   UNL     1      46.528   2.410   6.422  0.00  0.00    +0.000 C 
ATOM     12  C   UNL     1      47.816   1.760   6.970  0.00  0.00    +0.000 C 
ATOM     13  N   UNL     1      48.426   1.822   5.633  0.00  0.00    +0.000 NA
ATOM     14  C   UNL     1      47.356   2.716   5.157  0.00  0.00    +0.000 C 
ATOM     15  H   UNL     1      48.451   0.922   5.154  0.00  0.00    +0.000 HD
ENDBRANCH   9  11
ENDBRANCH   4   9
ENDBRANCH   1   2
BRANCH   1  16
ATOM     16  C   UNL     1      45.594   5.627  12.845  0.00  0.00    +0.000 C 
BRANCH  16  21
ATOM     17  C   UNL     1      48.264   4.758  16.878  0.00  0.00    +0.000 A 
ATOM     18  C   UNL     1      47.247   4.096  16.237  0.00  0.00    +0.000 A 
ATOM     19  N   UNL     1      46.811   4.417  15.002  0.00  0.00    +0.000 NA
ATOM     20  C   UNL     1      47.405   5.453  14.390  0.00  0.00    +0.000 A 
ATOM     21  N   UNL     1      47.011   5.834  13.115  0.00  0.00    +0.000 N 
ATOM     22  N   UNL     1      48.387   6.179  14.943  0.00  0.00    +0.000 NA
ATOM     23  C   UNL     1      48.795   5.820  16.184  0.00  0.00    +0.000 A 
ATOM     24  H   UNL     1      47.348   6.786  12.996  0.00  0.00    +0.000 HD
BRANCH  17  26
ATOM     25  N   UNL     1      48.869   3.081  18.525  0.00  0.00    +0.000 N 
ATOM     26  C   UNL     1      48.750   4.408  18.219  0.00  0.00    +0.000 C 
ATOM     27  O   UNL     1      49.065   5.276  19.022  0.00  0.00    +0.000 OA
ATOM     28  H   UNL     1      49.292   2.864  19.422  0.00  0.00    +0.000 HD
ATOM     29  H   UNL     1      48.864   2.346  17.834  0.00  0.00    +0.000 HD
ENDBRANCH  17  26
ENDBRANCH  16  21
ENDBRANCH   1  16
TORSDOF 6
ENDMDL
MODEL 5
REMARK VINA RESULT:    -6.587      3.834      7.394
REMARK INTER + INTRA:          -9.597
REMARK INTER:                  -8.831
REMARK INTRA:                  -0.765
REMARK UNBOUND:                -0.699
REMARK  Name = 
REMARK  6 active torsions:
REMARK  status: ('A' for Active; 'I' for Inactive)
REMARK    1  A    between atoms: C_2  and  C_4
REMARK    2  A    between atoms: N_8  and  C_9
REMARK    3  A    between atoms: C_9  and  C_10
REMARK    4  A    between atoms: C_10  and  C_11
REMARK    5  A    between atoms: C_13  and  N_14
REMARK    6  A    between atoms: N_14  and  C_15
REMARK                            x       y       z     vdW  Elec       q    Type
REMARK                         _______ _______ _______ _____ _____    ______ ____
ROOT
ATOM      1  C   UNL     1      47.807   9.040  12.814  0.00  0.00    +0.000 C 
ENDROOT
BRANCH   1   2
ATOM      2  C   UNL     1      46.455   9.259  12.166  0.00  0.00    +0.000 A 
ATOM      3  C   UNL     1      45.610   8.148  11.982  0.00  0.00    +0.000 A 
ATOM      4  C   UNL     1      44.352   8.261  11.364  0.00  0.00    +0.000 A 
ATOM      5  C   UNL     1      43.930   9.527  10.953  0.00  0.00    +0.000 A 
ATOM      6  C   UNL     1      44.742  10.648  11.155  0.00  0.00    +0.000 A 
ATOM      7  C   UNL     1      45.994  10.517  11.764  0.00  0.00    +0.000 A 
ATOM      8 CL   UNL     1      46.918  11.954  12.014  0.00  0.00    +0.000 Cl
BRANCH   4   9
ATOM      9  N   UNL     1      43.533   7.117  11.269  0.00  0.00    +0.000 N 
ATOM     10  H   UNL     1      42.566   7.326  11.507  0.00  0.00    +0.000 HD
BRANCH   9  11
ATOM     11  C   UNL     1      43.900   5.773  11.648  0.00  0.00    +0.000 C 
ATOM     12  C   UNL     1      43.599   4.751  10.531  0.00  0.00    +0.000 C 
ATOM     13  N   UNL     1      42.807   3.944  11.473  0.00  0.00    +0.000 NA
ATOM     14  C   UNL     1      42.809   5.041  12.456  0.00  0.00    +0.000 C 
ATOM     15  H   UNL     1      43.288   3.104  11.795  0.00  0.00    +0.000 HD
ENDBRANCH   9  11
ENDBRANCH   4   9
ENDBRANCH   1   2
BRANCH   1  16
ATOM     16  C   UNL     1      48.483   7.751  12.334  0.00  0.00    +0.000 C 
BRANCH  16  21
ATOM     17  C   UNL     1      47.786   4.916  16.287  0.00  0.00    +0.000 A 
ATOM     18  C   UNL     1      47.299   4.914  15.003  0.00  0.00    +0.000 A 
ATOM     19  N   UNL     1      47.810   5.671  14.011  0.00  0.00    +0.000 NA
ATOM     20  C   UNL     1      48.840   6.475  14.319  0.00  0.00    +0.000 A 
ATOM     21  N   UNL     1      49.419   7.276  13.345  0.00  0.00    +0.000 N 
ATOM     22  N   UNL     1      49.367   6.570  15.548  0.00  0.00    +0.000 NA
ATOM     23  C   UNL     1      48.824   5.790  16.513  0.00  0.00    +0.000 A 
ATOM     24  H   UNL     1      49.927   7.998  13.849  0.00  0.00    +0.000 HD
BRANCH  17  26
ATOM     25  N   UNL     1      47.574   4.423  18.654  0.00  0.00    +0.000 N 
ATOM     26  C   UNL     1      47.240   4.089  17.370  0.00  0.00    +0.000 C 
ATOM     27  O   UNL     1      46.491   3.151  17.133  0.00  0.00    +0.000 OA
ATOM     28  H   UNL     1      47.114   3.895  19.388  0.00  0.00    +0.000 HD
ATOM     29  H   UNL     1      47.972   5.313  18.913  0.00  0.00    +0.000 HD
ENDBRANCH  17  26
ENDBRANCH  16  21
ENDBRANCH   1  16
TORSDOF 6
ENDMDL
MODEL 6
REMARK VINA RESULT:    -6.569      3.902      8.421
REMARK INTER + INTRA:          -9.572
REMARK INTER:                  -9.009
REMARK INTRA:                  -0.563
REMARK UNBOUND:                -0.699
REMARK  Name = 
REMARK  6 active torsions:
REMARK  status: ('A' for Active; 'I' for Inactive)
REMARK    1  A    between atoms: C_2  and  C_4
REMARK    2  A    between atoms: N_8  and  C_9
REMARK    3  A    between atoms: C_9  and  C_10
REMARK    4  A    between atoms: C_10  and  C_11
REMARK    5  A    between atoms: C_13  and  N_14
REMARK    6  A    between atoms: N_14  and  C_15
REMARK                            x       y       z     vdW  Elec       q    Type
REMARK                         _______ _______ _______ _____ _____    ______ ____
ROOT
ATOM      1  C   UNL     1      45.220   6.250  11.036  0.00  0.00    +0.000 C 
ENDROOT
BRANCH   1   2
ATOM      2  C   UNL     1      45.013   4.923  10.335  0.00  0.00    +0.000 A 
ATOM      3  C   UNL     1      45.535   4.759   9.038  0.00  0.00    +0.000 A 
ATOM      4  C   UNL     1      45.361   3.569   8.309  0.00  0.00    +0.000 A 
ATOM      5  C   UNL     1      44.675   2.516   8.916  0.00  0.00    +0.000 A 
ATOM      6  C   UNL     1      44.176   2.649  10.216  0.00  0.00    +0.000 A 
ATOM      7  C   UNL     1      44.350   3.842  10.925  0.00  0.00    +0.000 A 
ATOM      8 CL   UNL     1      43.741   3.911  12.539  0.00  0.00    +0.000 Cl
BRANCH   4   9
ATOM      9  N   UNL     1      45.965   3.454   7.039  0.00  0.00    +0.000 N 
ATOM     10  H   UNL     1      45.460   3.985   6.333  0.00  0.00    +0.000 HD
BRANCH   9  11
ATOM     11  C   UNL     1      46.565   2.264   6.486  0.00  0.00    +0.000 C 
ATOM     12  C   UNL     1      48.051   2.123   6.882  0.00  0.00    +0.000 C 
ATOM     13  N   UNL     1      48.425   2.004   5.464  0.00  0.00    +0.000 NA
ATOM     14  C   UNL     1      47.083   2.446   5.045  0.00  0.00    +0.000 C 
ATOM     15  H   UNL     1      48.650   1.051   5.180  0.00  0.00    +0.000 HD
ENDBRANCH   9  11
ENDBRANCH   4   9
ENDBRANCH   1   2
BRANCH   1  16
ATOM     16  C   UNL     1      46.676   6.461  11.467  0.00  0.00    +0.000 C 
BRANCH  16  21
ATOM     17  C   UNL     1      48.877   8.104  15.542  0.00  0.00    +0.000 A 
ATOM     18  C   UNL     1      48.033   8.661  14.613  0.00  0.00    +0.000 A 
ATOM     19  N   UNL     1      47.369   7.943  13.685  0.00  0.00    +0.000 NA
ATOM     20  C   UNL     1      47.569   6.616  13.675  0.00  0.00    +0.000 A 
ATOM     21  N   UNL     1      46.912   5.815  12.751  0.00  0.00    +0.000 N 
ATOM     22  N   UNL     1      48.393   5.982  14.521  0.00  0.00    +0.000 NA
ATOM     23  C   UNL     1      49.038   6.742  15.438  0.00  0.00    +0.000 A 
ATOM     24  H   UNL     1      47.438   4.946  12.717  0.00  0.00    +0.000 HD
BRANCH  17  26
ATOM     25  N   UNL     1      50.085  10.103  16.200  0.00  0.00    +0.000 N 
ATOM     26  C   UNL     1      49.597   8.878  16.561  0.00  0.00    +0.000 C 
ATOM     27  O   UNL     1      49.730   8.452  17.700  0.00  0.00    +0.000 OA
ATOM     28  H   UNL     1      50.498  10.657  16.942  0.00  0.00    +0.000 HD
ATOM     29  H   UNL     1      49.793  10.598  15.370  0.00  0.00    +0.000 HD
ENDBRANCH  17  26
ENDBRANCH  16  21
ENDBRANCH   1  16
TORSDOF 6
ENDMDL
MODEL 7
REMARK VINA RESULT:    -6.467      4.212      7.169
REMARK INTER + INTRA:          -9.434
REMARK INTER:                  -8.446
REMARK INTRA:                  -0.988
REMARK UNBOUND:                -0.699
REMARK  Name = 
REMARK  6 active torsions:
REMARK  status: ('A' for Active; 'I' for Inactive)
REMARK    1  A    between atoms: C_2  and  C_4
REMARK    2  A    between atoms: N_8  and  C_9
REMARK    3  A    between atoms: C_9  and  C_10
REMARK    4  A    between atoms: C_10  and  C_11
REMARK    5  A    between atoms: C_13  and  N_14
REMARK    6  A    between atoms: N_14  and  C_15
REMARK                            x       y       z     vdW  Elec       q    Type
REMARK                         _______ _______ _______ _____ _____    ______ ____
ROOT
ATOM      1  C   UNL     1      48.571   8.906  12.871  0.00  0.00    +0.000 C 
ENDROOT
BRANCH   1   2
ATOM      2  C   UNL     1      47.724   9.903  12.107  0.00  0.00    +0.000 A 
ATOM      3  C   UNL     1      46.337   9.931  12.347  0.00  0.00    +0.000 A 
ATOM      4  C   UNL     1      45.477  10.806  11.659  0.00  0.00    +0.000 A 
ATOM      5  C   UNL     1      46.037  11.689  10.735  0.00  0.00    +0.000 A 
ATOM      6  C   UNL     1      47.417  11.698  10.505  0.00  0.00    +0.000 A 
ATOM      7  C   UNL     1      48.257  10.816  11.191  0.00  0.00    +0.000 A 
ATOM      8 CL   UNL     1      49.953  10.918  10.882  0.00  0.00    +0.000 Cl
BRANCH   4   9
ATOM      9  N   UNL     1      44.108  10.821  11.995  0.00  0.00    +0.000 N 
ATOM     10  H   UNL     1      43.911  10.228  12.798  0.00  0.00    +0.000 HD
BRANCH   9  11
ATOM     11  C   UNL     1      43.003  10.850  11.067  0.00  0.00    +0.000 C 
ATOM     12  C   UNL     1      41.644  11.002  11.784  0.00  0.00    +0.000 C 
ATOM     13  N   UNL     1      41.142   9.798  11.103  0.00  0.00    +0.000 NA
ATOM     14  C   UNL     1      42.503   9.450  10.659  0.00  0.00    +0.000 C 
ATOM     15  H   UNL     1      40.500  10.000  10.338  0.00  0.00    +0.000 HD
ENDBRANCH   9  11
ENDBRANCH   4   9
ENDBRANCH   1   2
BRANCH   1  16
ATOM     16  C   UNL     1      48.845   7.632  12.065  0.00  0.00    +0.000 C 
BRANCH  16  21
ATOM     17  C   UNL     1      44.452   5.438  11.882  0.00  0.00    +0.000 A 
ATOM     18  C   UNL     1      45.285   6.001  10.948  0.00  0.00    +0.000 A 
ATOM     19  N   UNL     1      46.563   6.351  11.203  0.00  0.00    +0.000 NA
ATOM     20  C   UNL     1      47.020   6.143  12.448  0.00  0.00    +0.000 A 
ATOM     21  N   UNL     1      48.327   6.473  12.778  0.00  0.00    +0.000 N 
ATOM     22  N   UNL     1      46.276   5.625  13.436  0.00  0.00    +0.000 NA
ATOM     23  C   UNL     1      45.000   5.287  13.134  0.00  0.00    +0.000 A 
ATOM     24  H   UNL     1      48.347   6.534  13.793  0.00  0.00    +0.000 HD
BRANCH  17  26
ATOM     25  N   UNL     1      42.089   5.988  11.802  0.00  0.00    +0.000 N 
ATOM     26  C   UNL     1      43.063   5.047  11.609  0.00  0.00    +0.000 C 
ATOM     27  O   UNL     1      42.791   3.928  11.197  0.00  0.00    +0.000 OA
ATOM     28  H   UNL     1      41.151   5.725  11.522  0.00  0.00    +0.000 HD
ATOM     29  H   UNL     1      42.278   6.975  11.896  0.00  0.00    +0.000 HD
ENDBRANCH  17  26
ENDBRANCH  16  21
ENDBRANCH   1  16
TORSDOF 6
ENDMDL
MODEL 8
REMARK VINA RESULT:    -6.413      3.803      8.182
REMARK INTER + INTRA:          -9.362
REMARK INTER:                  -8.970
REMARK INTRA:                  -0.392
REMARK UNBOUND:                -0.699
REMARK  Name = 
REMARK  6 active torsions:
REMARK  status: ('A' for Active; 'I' for Inactive)
REMARK    1  A    between atoms: C_2  and  C_4
REMARK    2  A    between atoms: N_8  and  C_9
REMARK    3  A    between atoms: C_9  and  C_10
REMARK    4  A    between atoms: C_10  and  C_11
REMARK    5  A    between atoms: C_13  and  N_14
REMARK    6  A    between atoms: N_14  and  C_15
REMARK                            x       y       z     vdW  Elec       q    Type
REMARK                         _______ _______ _______ _____ _____    ______ ____
ROOT
ATOM      1  C   UNL     1      47.533   4.091  14.543  0.00  0.00    +0.000 C 
ENDROOT
BRANCH   1   2
ATOM      2  C   UNL     1      46.771   5.192  13.836  0.00  0.00    +0.000 A 
ATOM      3  C   UNL     1      45.430   4.958  13.475  0.00  0.00    +0.000 A 
ATOM      4  C   UNL     1      44.663   5.918  12.791  0.00  0.00    +0.000 A 
ATOM      5  C   UNL     1      45.253   7.148  12.498  0.00  0.00    +0.000 A 
ATOM      6  C   UNL     1      46.574   7.412  12.877  0.00  0.00    +0.000 A 
ATOM      7  C   UNL     1      47.327   6.444  13.548  0.00  0.00    +0.000 A 
ATOM      8 CL   UNL     1      48.935   6.861  14.018  0.00  0.00    +0.000 Cl
BRANCH   4   9
ATOM      9  N   UNL     1      43.308   5.638  12.516  0.00  0.00    +0.000 N 
ATOM     10  H   UNL     1      42.764   5.535  13.370  0.00  0.00    +0.000 HD
BRANCH   9  11
ATOM     11  C   UNL     1      42.812   4.791  11.459  0.00  0.00    +0.000 C 
ATOM     12  C   UNL     1      43.176   3.307  11.681  0.00  0.00    +0.000 C 
ATOM     13  N   UNL     1      43.794   3.251  10.347  0.00  0.00    +0.000 NA
ATOM     14  C   UNL     1      43.747   4.719  10.234  0.00  0.00    +0.000 C 
ATOM     15  H   UNL     1      43.225   2.768   9.653  0.00  0.00    +0.000 HD
ENDBRANCH   9  11
ENDBRANCH   4   9
ENDBRANCH   1   2
BRANCH   1  16
ATOM     16  C   UNL     1      47.363   4.147  16.066  0.00  0.00    +0.000 C 
BRANCH  16  21
ATOM     17  C   UNL     1      51.771   2.721  17.703  0.00  0.00    +0.000 A 
ATOM     18  C   UNL     1      51.058   3.893  17.757  0.00  0.00    +0.000 A 
ATOM     19  N   UNL     1      49.754   3.987  17.426  0.00  0.00    +0.000 NA
ATOM     20  C   UNL     1      49.142   2.868  17.010  0.00  0.00    +0.000 A 
ATOM     21  N   UNL     1      47.799   2.891  16.660  0.00  0.00    +0.000 N 
ATOM     22  N   UNL     1      49.759   1.683  16.897  0.00  0.00    +0.000 NA
ATOM     23  C   UNL     1      51.068   1.633  17.242  0.00  0.00    +0.000 A 
ATOM     24  H   UNL     1      47.648   2.060  16.096  0.00  0.00    +0.000 HD
BRANCH  17  26
ATOM     25  N   UNL     1      53.575   1.507  18.780  0.00  0.00    +0.000 N 
ATOM     26  C   UNL     1      53.188   2.609  18.070  0.00  0.00    +0.000 C 
ATOM     27  O   UNL     1      53.999   3.459  17.726  0.00  0.00    +0.000 OA
ATOM     28  H   UNL     1      54.571   1.405  18.943  0.00  0.00    +0.000 HD
ATOM     29  H   UNL     1      53.011   0.674  18.870  0.00  0.00    +0.000 HD
ENDBRANCH  17  26
ENDBRANCH  16  21
ENDBRANCH   1  16
TORSDOF 6
ENDMDL
MODEL 9
REMARK VINA RESULT:    -6.373      3.574      5.576
REMARK INTER + INTRA:          -9.308
REMARK INTER:                  -8.444
REMARK INTRA:                  -0.863
REMARK UNBOUND:                -0.699
REMARK  Name = 
REMARK  6 active torsions:
REMARK  status: ('A' for Active; 'I' for Inactive)
REMARK    1  A    between atoms: C_2  and  C_4
REMARK    2  A    between atoms: N_8  and  C_9
REMARK    3  A    between atoms: C_9  and  C_10
REMARK    4  A    between atoms: C_10  and  C_11
REMARK    5  A    between atoms: C_13  and  N_14
REMARK    6  A    between atoms: N_14  and  C_15
REMARK                            x       y       z     vdW  Elec       q    Type
REMARK                         _______ _______ _______ _____ _____    ______ ____
ROOT
ATOM      1  C   UNL     1      49.746   8.093  15.213  0.00  0.00    +0.000 C 
ENDROOT
BRANCH   1   2
ATOM      2  C   UNL     1      49.314   7.433  16.506  0.00  0.00    +0.000 A 
ATOM      3  C   UNL     1      49.799   6.144  16.799  0.00  0.00    +0.000 A 
ATOM      4  C   UNL     1      49.424   5.451  17.964  0.00  0.00    +0.000 A 
ATOM      5  C   UNL     1      48.568   6.088  18.863  0.00  0.00    +0.000 A 
ATOM      6  C   UNL     1      48.100   7.382  18.606  0.00  0.00    +0.000 A 
ATOM      7  C   UNL     1      48.476   8.053  17.439  0.00  0.00    +0.000 A 
ATOM      8 CL   UNL     1      47.889   9.662  17.215  0.00  0.00    +0.000 Cl
BRANCH   4   9
ATOM      9  N   UNL     1      49.997   4.189  18.221  0.00  0.00    +0.000 N 
ATOM     10  H   UNL     1      50.999   4.188  18.045  0.00  0.00    +0.000 HD
BRANCH   9  11
ATOM     11  C   UNL     1      49.401   2.907  17.930  0.00  0.00    +0.000 C 
ATOM     12  C   UNL     1      50.322   2.018  17.066  0.00  0.00    +0.000 C 
ATOM     13  N   UNL     1      49.244   1.846  16.080  0.00  0.00    +0.000 NA
ATOM     14  C   UNL     1      48.462   2.927  16.707  0.00  0.00    +0.000 C 
ATOM     15  H   UNL     1      48.791   0.933  16.125  0.00  0.00    +0.000 HD
ENDBRANCH   9  11
ENDBRANCH   4   9
ENDBRANCH   1   2
BRANCH   1  16
ATOM     16  C   UNL     1      49.113   7.435  13.982  0.00  0.00    +0.000 C 
BRANCH  16  21
ATOM     17  C   UNL     1      45.435   4.421  12.744  0.00  0.00    +0.000 A 
ATOM     18  C   UNL     1      46.636   4.258  13.390  0.00  0.00    +0.000 A 
ATOM     19  N   UNL     1      47.395   5.287  13.820  0.00  0.00    +0.000 NA
ATOM     20  C   UNL     1      46.943   6.528  13.580  0.00  0.00    +0.000 A 
ATOM     21  N   UNL     1      47.670   7.632  14.002  0.00  0.00    +0.000 N 
ATOM     22  N   UNL     1      45.798   6.789  12.933  0.00  0.00    +0.000 NA
ATOM     23  C   UNL     1      45.066   5.726  12.521  0.00  0.00    +0.000 A 
ATOM     24  H   UNL     1      47.324   8.414  13.453  0.00  0.00    +0.000 HD
BRANCH  17  26
ATOM     25  N   UNL     1      44.928   2.718  11.090  0.00  0.00    +0.000 N 
ATOM     26  C   UNL     1      44.599   3.306  12.280  0.00  0.00    +0.000 C 
ATOM     27  O   UNL     1      43.659   2.901  12.950  0.00  0.00    +0.000 OA
ATOM     28  H   UNL     1      44.394   1.895  10.834  0.00  0.00    +0.000 HD
ATOM     29  H   UNL     1      45.819   2.844  10.633  0.00  0.00    +0.000 HD
ENDBRANCH  17  26
ENDBRANCH  16  21
ENDBRANCH   1  16
TORSDOF 6
ENDMDL
