MODEL 1
REMARK VINA RESULT:    -8.676      0.000      0.000
REMARK INTER + INTRA:         -12.174
REMARK INTER:                 -11.212
REMARK INTRA:                  -0.963
REMARK UNBOUND:                -0.963
REMARK  Name = 
REMARK  5 active torsions:
REMARK  status: ('A' for Active; 'I' for Inactive)
REMARK    1  A    between atoms: C_2  and  C_4
REMARK    2  A    between atoms: N_8  and  C_9
REMARK    3  A    between atoms: C_9  and  C_10
REMARK    4  A    between atoms: C_10  and  C_11
REMARK    5  A    between atoms: C_15  and  C_16
REMARK                            x       y       z     vdW  Elec       q    Type
REMARK                         _______ _______ _______ _____ _____    ______ ____
ROOT
ATOM      1  C   UNL     1      43.382   4.310  10.966  0.00  0.00    +0.000 C 
ENDROOT
BRANCH   1   6
ATOM      2  C   UNL     1      46.606   2.485   7.502  0.00  0.00    +0.000 A 
ATOM      3  C   UNL     1      45.783   1.802   8.390  0.00  0.00    +0.000 A 
ATOM      4  C   UNL     1      44.840   2.518   9.130  0.00  0.00    +0.000 A 
ATOM      5  C   UNL     1      44.754   3.900   8.985  0.00  0.00    +0.000 A 
ATOM      6  N   UNL     1      43.783   4.667   9.615  0.00  0.00    +0.000 N 
ATOM      7  N   UNL     1      45.572   4.577   8.158  0.00  0.00    +0.000 NA
ATOM      8  C   UNL     1      46.480   3.863   7.439  0.00  0.00    +0.000 A 
ATOM      9  H   UNL     1      44.040   5.641   9.467  0.00  0.00    +0.000 HD
BRANCH   2  11
ATOM     10  N   UNL     1      48.788   2.422   6.442  0.00  0.00    +0.000 N 
ATOM     11  C   UNL     1      47.582   1.801   6.634  0.00  0.00    +0.000 C 
ATOM     12  O   UNL     1      47.345   0.706   6.139  0.00  0.00    +0.000 OA
ATOM     13  H   UNL     1      49.488   1.889   5.940  0.00  0.00    +0.000 HD
ATOM     14  H   UNL     1      49.109   3.179   7.027  0.00  0.00    +0.000 HD
ENDBRANCH   2  11
ENDBRANCH   1   6
BRANCH   1  15
ATOM     15  C   UNL     1      43.451   5.530  11.894  0.00  0.00    +0.000 C 
BRANCH  15  16
ATOM     16  C   UNL     1      44.829   5.651  12.503  0.00  0.00    +0.000 A 
ATOM     17  C   UNL     1      45.348   4.631  13.305  0.00  0.00    +0.000 A 
ATOM     18  C   UNL     1      46.647   4.725  13.795  0.00  0.00    +0.000 A 
ATOM     19  C   UNL     1      47.447   5.823  13.464  0.00  0.00    +0.000 A 
ATOM     20  C   UNL     1      46.975   6.844  12.621  0.00  0.00    +0.000 A 
ATOM     21  C   UNL     1      45.644   6.747  12.177  0.00  0.00    +0.000 A 
BRANCH  20  22
ATOM     22  C   UNL     1      47.863   7.921  12.122  0.00  0.00    +0.000 A 
ATOM     23  C   UNL     1      47.446   9.264  12.141  0.00  0.00    +0.000 A 
ATOM     24  C   UNL     1      48.311  10.306  11.793  0.00  0.00    +0.000 A 
ATOM     25  C   UNL     1      49.620  10.025  11.417  0.00  0.00    +0.000 A 
ATOM     26  C   UNL     1      50.053   8.705  11.361  0.00  0.00    +0.000 A 
ATOM     27  C   UNL     1      49.180   7.664  11.699  0.00  0.00    +0.000 A 
ENDBRANCH  20  22
ENDBRANCH  15  16
ENDBRANCH   1  15
TORSDOF 5
ENDMDL
MODEL 2
REMARK VINA RESULT:    -8.570      1.639      3.578
REMARK INTER + INTRA:         -12.037
REMARK INTER:                 -11.219
REMARK INTRA:                  -0.818
REMARK UNBOUND:                -0.963
REMARK  Name = 
REMARK  5 active torsions:
REMARK  status: ('A' for Active; 'I' for Inactive)
REMARK    1  A    between atoms: C_2  and  C_4
REMARK    2  A    between atoms: N_8  and  C_9
REMARK    3  A    between atoms: C_9  and  C_10
REMARK    4  A    between atoms: C_10  and  C_11
REMARK    5  A    between atoms: C_15  and  C_16
REMARK                            x       y       z     vdW  Elec       q    Type
REMARK                         _______ _______ _______ _____ _____    ______ ____
ROOT
ATOM      1  C   UNL     1      43.555   4.305  11.000  0.00  0.00    +0.000 C 
ENDROOT
BRANCH   1   6
ATOM      2  C   UNL     1      46.651   2.443   7.440  0.00  0.00    +0.000 A 
ATOM      3  C   UNL     1      45.869   1.770   8.372  0.00  0.00    +0.000 A 
ATOM      4  C   UNL     1      44.951   2.492   9.136  0.00  0.00    +0.000 A 
ATOM      5  C   UNL     1      44.850   3.871   8.973  0.00  0.00    +0.000 A 
ATOM      6  N   UNL     1      43.899   4.641   9.628  0.00  0.00    +0.000 N 
ATOM      7  N   UNL     1      45.630   4.539   8.103  0.00  0.00    +0.000 NA
ATOM      8  C   UNL     1      46.514   3.818   7.360  0.00  0.00    +0.000 A 
ATOM      9  H   UNL     1      44.143   5.615   9.454  0.00  0.00    +0.000 HD
BRANCH   2  11
ATOM     10  N   UNL     1      48.786   2.381   6.288  0.00  0.00    +0.000 N 
ATOM     11  C   UNL     1      47.598   1.751   6.545  0.00  0.00    +0.000 C 
ATOM     12  O   UNL     1      47.352   0.643   6.086  0.00  0.00    +0.000 OA
ATOM     13  H   UNL     1      49.470   1.845   5.768  0.00  0.00    +0.000 HD
ATOM     14  H   UNL     1      49.123   3.154   6.842  0.00  0.00    +0.000 HD
ENDBRANCH   2  11
ENDBRANCH   1   6
BRANCH   1  15
ATOM     15  C   UNL     1      43.725   5.522  11.918  0.00  0.00    +0.000 C 
BRANCH  15  16
ATOM     16  C   UNL     1      45.185   5.735  12.245  0.00  0.00    +0.000 A 
ATOM     17  C   UNL     1      45.972   6.594  11.475  0.00  0.00    +0.000 A 
ATOM     18  C   UNL     1      47.295   6.837  11.836  0.00  0.00    +0.000 A 
ATOM     19  C   UNL     1      47.831   6.246  12.984  0.00  0.00    +0.000 A 
ATOM     20  C   UNL     1      47.054   5.415  13.810  0.00  0.00    +0.000 A 
ATOM     21  C   UNL     1      45.735   5.150  13.398  0.00  0.00    +0.000 A 
BRANCH  20  22
ATOM     22  C   UNL     1      47.552   4.924  15.117  0.00  0.00    +0.000 A 
ATOM     23  C   UNL     1      47.254   3.621  15.557  0.00  0.00    +0.000 A 
ATOM     24  C   UNL     1      47.814   3.096  16.725  0.00  0.00    +0.000 A 
ATOM     25  C   UNL     1      48.691   3.865  17.482  0.00  0.00    +0.000 A 
ATOM     26  C   UNL     1      48.982   5.167  17.088  0.00  0.00    +0.000 A 
ATOM     27  C   UNL     1      48.409   5.694  15.924  0.00  0.00    +0.000 A 
ENDBRANCH  20  22
ENDBRANCH  15  16
ENDBRANCH   1  15
TORSDOF 5
ENDMDL
MODEL 3
REMARK VINA RESULT:    -8.136      1.723      2.347
REMARK INTER + INTRA:         -11.476
REMARK INTER:                 -10.485
REMARK INTRA:                  -0.991
REMARK UNBOUND:                -0.963
REMARK  Name = 
REMARK  5 active torsions:
REMARK  status: ('A' for Active; 'I' for Inactive)
REMARK    1  A    between atoms: C_2  and  C_4
REMARK    2  A    between atoms: N_8  and  C_9
REMARK    3  A    between atoms: C_9  and  C_10
REMARK    4  A    between atoms: C_10  and  C_11
REMARK    5  A    between atoms: C_15  and  C_16
REMARK                            x       y       z     vdW  Elec       q    Type
REMARK                         _______ _______ _______ _____ _____    ______ ____
ROOT
ATOM      1  C   UNL     1      43.352   3.666  11.297  0.00  0.00    +0.000 C 
ENDROOT
BRANCH   1   6
ATOM      2  C   UNL     1      46.449   2.784   7.378  0.00  0.00    +0.000 A 
ATOM      3  C   UNL     1      46.035   3.994   7.924  0.00  0.00    +0.000 A 
ATOM      4  C   UNL     1      45.321   3.990   9.123  0.00  0.00    +0.000 A 
ATOM      5  C   UNL     1      45.014   2.780   9.739  0.00  0.00    +0.000 A 
ATOM      6  N   UNL     1      44.390   2.699  10.976  0.00  0.00    +0.000 N 
ATOM      7  N   UNL     1      45.374   1.600   9.200  0.00  0.00    +0.000 NA
ATOM      8  C   UNL     1      46.077   1.623   8.035  0.00  0.00    +0.000 A 
ATOM      9  H   UNL     1      44.148   1.720  11.117  0.00  0.00    +0.000 HD
BRANCH   2  11
ATOM     10  N   UNL     1      48.620   2.608   6.310  0.00  0.00    +0.000 N 
ATOM     11  C   UNL     1      47.263   2.699   6.152  0.00  0.00    +0.000 C 
ATOM     12  O   UNL     1      46.748   2.668   5.041  0.00  0.00    +0.000 OA
ATOM     13  H   UNL     1      49.156   2.434   5.467  0.00  0.00    +0.000 HD
ATOM     14  H   UNL     1      49.050   2.374   7.192  0.00  0.00    +0.000 HD
ENDBRANCH   2  11
ENDBRANCH   1   6
BRANCH   1  15
ATOM     15  C   UNL     1      43.453   4.106  12.764  0.00  0.00    +0.000 C 
BRANCH  15  16
ATOM     16  C   UNL     1      44.624   5.041  12.953  0.00  0.00    +0.000 A 
ATOM     17  C   UNL     1      45.848   4.567  13.432  0.00  0.00    +0.000 A 
ATOM     18  C   UNL     1      46.938   5.427  13.529  0.00  0.00    +0.000 A 
ATOM     19  C   UNL     1      46.822   6.759  13.119  0.00  0.00    +0.000 A 
ATOM     20  C   UNL     1      45.621   7.259  12.587  0.00  0.00    +0.000 A 
ATOM     21  C   UNL     1      44.522   6.381  12.544  0.00  0.00    +0.000 A 
BRANCH  20  22
ATOM     22  C   UNL     1      45.532   8.613  11.991  0.00  0.00    +0.000 A 
ATOM     23  C   UNL     1      44.409   8.994  11.233  0.00  0.00    +0.000 A 
ATOM     24  C   UNL     1      44.247  10.301  10.767  0.00  0.00    +0.000 A 
ATOM     25  C   UNL     1      45.210  11.264  11.052  0.00  0.00    +0.000 A 
ATOM     26  C   UNL     1      46.345  10.911  11.774  0.00  0.00    +0.000 A 
ATOM     27  C   UNL     1      46.509   9.597  12.228  0.00  0.00    +0.000 A 
ENDBRANCH  20  22
ENDBRANCH  15  16
ENDBRANCH   1  15
TORSDOF 5
ENDMDL
MODEL 4
REMARK VINA RESULT:    -7.501      3.901      7.394
REMARK INTER + INTRA:         -10.656
REMARK INTER:                  -9.661
REMARK INTRA:                  -0.995
REMARK UNBOUND:                -0.963
REMARK  Name = 
REMARK  5 active torsions:
REMARK  status: ('A' for Active; 'I' for Inactive)
REMARK    1  A    between atoms: C_2  and  C_4
REMARK    2  A    between atoms: N_8  and  C_9
REMARK    3  A    between atoms: C_9  and  C_10
REMARK    4  A    between atoms: C_10  and  C_11
REMARK    5  A    between atoms: C_15  and  C_16
REMARK                            x       y       z     vdW  Elec       q    Type
REMARK                         _______ _______ _______ _____ _____    ______ ____
ROOT
ATOM      1  C   UNL     1      45.340   6.910  12.519  0.00  0.00    +0.000 C 
ENDROOT
BRANCH   1   6
ATOM      2  C   UNL     1      48.035   4.474  16.057  0.00  0.00    +0.000 A 
ATOM      3  C   UNL     1      46.890   4.067  15.383  0.00  0.00    +0.000 A 
ATOM      4  C   UNL     1      46.424   4.833  14.313  0.00  0.00    +0.000 A 
ATOM      5  C   UNL     1      47.096   5.998  13.954  0.00  0.00    +0.000 A 
ATOM      6  N   UNL     1      46.748   6.760  12.847  0.00  0.00    +0.000 N 
ATOM      7  N   UNL     1      48.183   6.423  14.624  0.00  0.00    +0.000 NA
ATOM      8  C   UNL     1      48.628   5.661  15.660  0.00  0.00    +0.000 A 
ATOM      9  H   UNL     1      47.288   7.621  12.904  0.00  0.00    +0.000 HD
BRANCH   2  11
ATOM     10  N   UNL     1      47.816   3.358  18.201  0.00  0.00    +0.000 N 
ATOM     11  C   UNL     1      48.634   3.692  17.155  0.00  0.00    +0.000 C 
ATOM     12  O   UNL     1      49.800   3.319  17.115  0.00  0.00    +0.000 OA
ATOM     13  H   UNL     1      48.208   2.726  18.889  0.00  0.00    +0.000 HD
ATOM     14  H   UNL     1      46.811   3.423  18.147  0.00  0.00    +0.000 HD
ENDBRANCH   2  11
ENDBRANCH   1   6
BRANCH   1  15
ATOM     15  C   UNL     1      45.106   6.702  11.017  0.00  0.00    +0.000 C 
BRANCH  15  16
ATOM     16  C   UNL     1      44.873   5.240  10.717  0.00  0.00    +0.000 A 
ATOM     17  C   UNL     1      43.885   4.521  11.393  0.00  0.00    +0.000 A 
ATOM     18  C   UNL     1      43.633   3.195  11.051  0.00  0.00    +0.000 A 
ATOM     19  C   UNL     1      44.345   2.588  10.012  0.00  0.00    +0.000 A 
ATOM     20  C   UNL     1      45.313   3.296   9.278  0.00  0.00    +0.000 A 
ATOM     21  C   UNL     1      45.580   4.619   9.674  0.00  0.00    +0.000 A 
BRANCH  20  22
ATOM     22  C   UNL     1      45.951   2.725   8.068  0.00  0.00    +0.000 A 
ATOM     23  C   UNL     1      46.212   3.530   6.944  0.00  0.00    +0.000 A 
ATOM     24  C   UNL     1      46.922   3.043   5.843  0.00  0.00    +0.000 A 
ATOM     25  C   UNL     1      47.391   1.734   5.842  0.00  0.00    +0.000 A 
ATOM     26  C   UNL     1      47.124   0.906   6.926  0.00  0.00    +0.000 A 
ATOM     27  C   UNL     1      46.401   1.393   8.022  0.00  0.00    +0.000 A 
ENDBRANCH  20  22
ENDBRANCH  15  16
ENDBRANCH   1  15
TORSDOF 5
ENDMDL
MODEL 5
REMARK VINA RESULT:    -7.369      4.770      8.212
REMARK INTER + INTRA:         -10.486
REMARK INTER:                  -9.766
REMARK INTRA:                  -0.720
REMARK UNBOUND:                -0.963
REMARK  Name = 
REMARK  5 active torsions:
REMARK  status: ('A' for Active; 'I' for Inactive)
REMARK    1  A    between atoms: C_2  and  C_4
REMARK    2  A    between atoms: N_8  and  C_9
REMARK    3  A    between atoms: C_9  and  C_10
REMARK    4  A    between atoms: C_10  and  C_11
REMARK    5  A    between atoms: C_15  and  C_16
REMARK                            x       y       z     vdW  Elec       q    Type
REMARK                         _______ _______ _______ _____ _____    ______ ____
ROOT
ATOM      1  C   UNL     1      47.327   5.834  13.289  0.00  0.00    +0.000 C 
ENDROOT
BRANCH   1   6
ATOM      2  C   UNL     1      48.496   4.491  18.038  0.00  0.00    +0.000 A 
ATOM      3  C   UNL     1      48.840   5.639  17.334  0.00  0.00    +0.000 A 
ATOM      4  C   UNL     1      48.249   5.877  16.092  0.00  0.00    +0.000 A 
ATOM      5  C   UNL     1      47.346   4.956  15.570  0.00  0.00    +0.000 A 
ATOM      6  N   UNL     1      46.649   5.167  14.388  0.00  0.00    +0.000 N 
ATOM      7  N   UNL     1      47.034   3.822  16.224  0.00  0.00    +0.000 NA
ATOM      8  C   UNL     1      47.615   3.609  17.437  0.00  0.00    +0.000 A 
ATOM      9  H   UNL     1      46.187   4.289  14.161  0.00  0.00    +0.000 HD
BRANCH   2  11
ATOM     10  N   UNL     1      48.400   3.199  20.090  0.00  0.00    +0.000 N 
ATOM     11  C   UNL     1      49.022   4.194  19.384  0.00  0.00    +0.000 C 
ATOM     12  O   UNL     1      49.997   4.781  19.835  0.00  0.00    +0.000 OA
ATOM     13  H   UNL     1      48.842   2.928  20.961  0.00  0.00    +0.000 HD
ATOM     14  H   UNL     1      47.776   2.535  19.658  0.00  0.00    +0.000 HD
ENDBRANCH   2  11
ENDBRANCH   1   6
BRANCH   1  15
ATOM     15  C   UNL     1      46.357   6.740  12.520  0.00  0.00    +0.000 C 
BRANCH  15  16
ATOM     16  C   UNL     1      45.385   5.909  11.716  0.00  0.00    +0.000 A 
ATOM     17  C   UNL     1      44.008   6.121  11.819  0.00  0.00    +0.000 A 
ATOM     18  C   UNL     1      43.131   5.398  11.014  0.00  0.00    +0.000 A 
ATOM     19  C   UNL     1      43.625   4.480  10.082  0.00  0.00    +0.000 A 
ATOM     20  C   UNL     1      45.006   4.277   9.917  0.00  0.00    +0.000 A 
ATOM     21  C   UNL     1      45.868   4.986  10.774  0.00  0.00    +0.000 A 
BRANCH  20  22
ATOM     22  C   UNL     1      45.549   3.441   8.820  0.00  0.00    +0.000 A 
ATOM     23  C   UNL     1      46.089   4.034   7.663  0.00  0.00    +0.000 A 
ATOM     24  C   UNL     1      46.717   3.272   6.674  0.00  0.00    +0.000 A 
ATOM     25  C   UNL     1      46.821   1.893   6.820  0.00  0.00    +0.000 A 
ATOM     26  C   UNL     1      46.272   1.276   7.939  0.00  0.00    +0.000 A 
ATOM     27  C   UNL     1      45.633   2.041   8.921  0.00  0.00    +0.000 A 
ENDBRANCH  20  22
ENDBRANCH  15  16
ENDBRANCH   1  15
TORSDOF 5
ENDMDL
MODEL 6
REMARK VINA RESULT:    -7.264      1.248      2.087
REMARK INTER + INTRA:         -10.350
REMARK INTER:                  -9.529
REMARK INTRA:                  -0.822
REMARK UNBOUND:                -0.963
REMARK  Name = 
REMARK  5 active torsions:
REMARK  status: ('A' for Active; 'I' for Inactive)
REMARK    1  A    between atoms: C_2  and  C_4
REMARK    2  A    between atoms: N_8  and  C_9
REMARK    3  A    between atoms: C_9  and  C_10
REMARK    4  A    between atoms: C_10  and  C_11
REMARK    5  A    between atoms: C_15  and  C_16
REMARK                            x       y       z     vdW  Elec       q    Type
REMARK                         _______ _______ _______ _____ _____    ______ ____
ROOT
ATOM      1  C   UNL     1      44.151   4.805  11.033  0.00  0.00    +0.000 C 
ENDROOT
BRANCH   1   6
ATOM      2  C   UNL     1      46.655   2.238   7.447  0.00  0.00    +0.000 A 
ATOM      3  C   UNL     1      45.848   1.763   8.473  0.00  0.00    +0.000 A 
ATOM      4  C   UNL     1      45.111   2.671   9.234  0.00  0.00    +0.000 A 
ATOM      5  C   UNL     1      45.213   4.035   8.971  0.00  0.00    +0.000 A 
ATOM      6  N   UNL     1      44.443   4.989   9.622  0.00  0.00    +0.000 N 
ATOM      7  N   UNL     1      46.021   4.510   8.006  0.00  0.00    +0.000 NA
ATOM      8  C   UNL     1      46.727   3.610   7.269  0.00  0.00    +0.000 A 
ATOM      9  H   UNL     1      44.821   5.897   9.358  0.00  0.00    +0.000 HD
BRANCH   2  11
ATOM     10  N   UNL     1      47.046   0.028   6.524  0.00  0.00    +0.000 N 
ATOM     11  C   UNL     1      47.416   1.346   6.552  0.00  0.00    +0.000 C 
ATOM     12  O   UNL     1      48.312   1.771   5.833  0.00  0.00    +0.000 OA
ATOM     13  H   UNL     1      47.498  -0.547   5.823  0.00  0.00    +0.000 HD
ATOM     14  H   UNL     1      46.167  -0.297   6.898  0.00  0.00    +0.000 HD
ENDBRANCH   2  11
ENDBRANCH   1   6
BRANCH   1  15
ATOM     15  C   UNL     1      45.430   4.918  11.873  0.00  0.00    +0.000 C 
BRANCH  15  16
ATOM     16  C   UNL     1      45.853   6.363  11.995  0.00  0.00    +0.000 A 
ATOM     17  C   UNL     1      44.931   7.351  12.347  0.00  0.00    +0.000 A 
ATOM     18  C   UNL     1      45.353   8.665  12.529  0.00  0.00    +0.000 A 
ATOM     19  C   UNL     1      46.705   8.995  12.390  0.00  0.00    +0.000 A 
ATOM     20  C   UNL     1      47.669   8.019  12.085  0.00  0.00    +0.000 A 
ATOM     21  C   UNL     1      47.208   6.708  11.861  0.00  0.00    +0.000 A 
BRANCH  20  22
ATOM     22  C   UNL     1      49.120   8.318  12.105  0.00  0.00    +0.000 A 
ATOM     23  C   UNL     1      50.002   7.665  11.223  0.00  0.00    +0.000 A 
ATOM     24  C   UNL     1      51.351   8.020  11.139  0.00  0.00    +0.000 A 
ATOM     25  C   UNL     1      51.851   9.043  11.938  0.00  0.00    +0.000 A 
ATOM     26  C   UNL     1      51.011   9.687  12.840  0.00  0.00    +0.000 A 
ATOM     27  C   UNL     1      49.663   9.320  12.930  0.00  0.00    +0.000 A 
ENDBRANCH  20  22
ENDBRANCH  15  16
ENDBRANCH   1  15
TORSDOF 5
ENDMDL
MODEL 7
REMARK VINA RESULT:    -7.072      3.580      7.007
REMARK INTER + INTRA:         -10.101
REMARK INTER:                  -9.273
REMARK INTRA:                  -0.828
REMARK UNBOUND:                -0.963
REMARK  Name = 
REMARK  5 active torsions:
REMARK  status: ('A' for Active; 'I' for Inactive)
REMARK    1  A    between atoms: C_2  and  C_4
REMARK    2  A    between atoms: N_8  and  C_9
REMARK    3  A    between atoms: C_9  and  C_10
REMARK    4  A    between atoms: C_10  and  C_11
REMARK    5  A    between atoms: C_15  and  C_16
REMARK                            x       y       z     vdW  Elec       q    Type
REMARK                         _______ _______ _______ _____ _____    ______ ____
ROOT
ATOM      1  C   UNL     1      45.026   6.970  12.535  0.00  0.00    +0.000 C 
ENDROOT
BRANCH   1   6
ATOM      2  C   UNL     1      49.757   8.757  12.148  0.00  0.00    +0.000 A 
ATOM      3  C   UNL     1      49.227   7.552  11.700  0.00  0.00    +0.000 A 
ATOM      4  C   UNL     1      47.847   7.353  11.759  0.00  0.00    +0.000 A 
ATOM      5  C   UNL     1      47.028   8.350  12.282  0.00  0.00    +0.000 A 
ATOM      6  N   UNL     1      45.642   8.263  12.287  0.00  0.00    +0.000 N 
ATOM      7  N   UNL     1      47.532   9.504  12.754  0.00  0.00    +0.000 NA
ATOM      8  C   UNL     1      48.880   9.685  12.683  0.00  0.00    +0.000 A 
ATOM      9  H   UNL     1      45.304   9.036  12.856  0.00  0.00    +0.000 HD
BRANCH   2  11
ATOM     10  N   UNL     1      52.069   8.023  12.071  0.00  0.00    +0.000 N 
ATOM     11  C   UNL     1      51.194   9.077  12.063  0.00  0.00    +0.000 C 
ATOM     12  O   UNL     1      51.588  10.231  11.947  0.00  0.00    +0.000 OA
ATOM     13  H   UNL     1      53.040   8.250  11.896  0.00  0.00    +0.000 HD
ATOM     14  H   UNL     1      51.775   7.072  11.906  0.00  0.00    +0.000 HD
ENDBRANCH   2  11
ENDBRANCH   1   6
BRANCH   1  15
ATOM     15  C   UNL     1      44.041   6.612  11.414  0.00  0.00    +0.000 C 
BRANCH  15  16
ATOM     16  C   UNL     1      44.092   5.131  11.122  0.00  0.00    +0.000 A 
ATOM     17  C   UNL     1      43.257   4.240  11.801  0.00  0.00    +0.000 A 
ATOM     18  C   UNL     1      43.263   2.889  11.466  0.00  0.00    +0.000 A 
ATOM     19  C   UNL     1      44.080   2.423  10.431  0.00  0.00    +0.000 A 
ATOM     20  C   UNL     1      44.896   3.298   9.694  0.00  0.00    +0.000 A 
ATOM     21  C   UNL     1      44.906   4.650  10.083  0.00  0.00    +0.000 A 
BRANCH  20  22
ATOM     22  C   UNL     1      45.633   2.853   8.487  0.00  0.00    +0.000 A 
ATOM     23  C   UNL     1      45.976   3.768   7.474  0.00  0.00    +0.000 A 
ATOM     24  C   UNL     1      46.776   3.395   6.390  0.00  0.00    +0.000 A 
ATOM     25  C   UNL     1      47.254   2.093   6.295  0.00  0.00    +0.000 A 
ATOM     26  C   UNL     1      46.908   1.159   7.265  0.00  0.00    +0.000 A 
ATOM     27  C   UNL     1      46.097   1.532   8.343  0.00  0.00    +0.000 A 
ENDBRANCH  20  22
ENDBRANCH  15  16
ENDBRANCH   1  15
TORSDOF 5
ENDMDL
MODEL 8
REMARK VINA RESULT:    -7.033      4.444      7.676
REMARK INTER + INTRA:         -10.051
REMARK INTER:                  -9.105
REMARK INTRA:                  -0.947
REMARK UNBOUND:                -0.963
REMARK  Name = 
REMARK  5 active torsions:
REMARK  status: ('A' for Active; 'I' for Inactive)
REMARK    1  A    between atoms: C_2  and  C_4
REMARK    2  A    between atoms: N_8  and  C_9
REMARK    3  A    between atoms: C_9  and  C_10
REMARK    4  A    between atoms: C_10  and  C_11
REMARK    5  A    between atoms: C_15  and  C_16
REMARK                            x       y       z     vdW  Elec       q    Type
REMARK                         _______ _______ _______ _____ _____    ______ ____
ROOT
ATOM      1  C   UNL     1      49.042   8.386  13.749  0.00  0.00    +0.000 C 
ENDROOT
BRANCH   1   6
ATOM      2  C   UNL     1      48.070   4.480  16.836  0.00  0.00    +0.000 A 
ATOM      3  C   UNL     1      47.368   4.920  15.719  0.00  0.00    +0.000 A 
ATOM      4  C   UNL     1      47.929   5.913  14.913  0.00  0.00    +0.000 A 
ATOM      5  C   UNL     1      49.164   6.460  15.250  0.00  0.00    +0.000 A 
ATOM      6  N   UNL     1      49.825   7.381  14.450  0.00  0.00    +0.000 N 
ATOM      7  N   UNL     1      49.833   6.070  16.350  0.00  0.00    +0.000 NA
ATOM      8  C   UNL     1      49.276   5.097  17.121  0.00  0.00    +0.000 A 
ATOM      9  H   UNL     1      50.613   7.728  14.994  0.00  0.00    +0.000 HD
BRANCH   2  11
ATOM     10  N   UNL     1      48.314   3.118  18.829  0.00  0.00    +0.000 N 
ATOM     11  C   UNL     1      47.583   3.392  17.704  0.00  0.00    +0.000 C 
ATOM     12  O   UNL     1      46.549   2.786  17.455  0.00  0.00    +0.000 OA
ATOM     13  H   UNL     1      47.907   2.450  19.473  0.00  0.00    +0.000 HD
ATOM     14  H   UNL     1      49.009   3.753  19.194  0.00  0.00    +0.000 HD
ENDBRANCH   2  11
ENDBRANCH   1   6
BRANCH   1  15
ATOM     15  C   UNL     1      48.817   7.978  12.287  0.00  0.00    +0.000 C 
BRANCH  15  16
ATOM     16  C   UNL     1      47.350   7.719  12.033  0.00  0.00    +0.000 A 
ATOM     17  C   UNL     1      46.393   8.699  12.305  0.00  0.00    +0.000 A 
ATOM     18  C   UNL     1      45.055   8.471  11.994  0.00  0.00    +0.000 A 
ATOM     19  C   UNL     1      44.669   7.274  11.382  0.00  0.00    +0.000 A 
ATOM     20  C   UNL     1      45.611   6.286  11.050  0.00  0.00    +0.000 A 
ATOM     21  C   UNL     1      46.949   6.522  11.416  0.00  0.00    +0.000 A 
BRANCH  20  22
ATOM     22  C   UNL     1      45.246   5.093  10.248  0.00  0.00    +0.000 A 
ATOM     23  C   UNL     1      45.733   4.929   8.939  0.00  0.00    +0.000 A 
ATOM     24  C   UNL     1      45.503   3.757   8.212  0.00  0.00    +0.000 A 
ATOM     25  C   UNL     1      44.777   2.718   8.783  0.00  0.00    +0.000 A 
ATOM     26  C   UNL     1      44.259   2.861  10.065  0.00  0.00    +0.000 A 
ATOM     27  C   UNL     1      44.481   4.041  10.785  0.00  0.00    +0.000 A 
ENDBRANCH  20  22
ENDBRANCH  15  16
ENDBRANCH   1  15
TORSDOF 5
ENDMDL
MODEL 9
REMARK VINA RESULT:    -6.978      4.932      6.963
REMARK INTER + INTRA:          -9.980
REMARK INTER:                  -9.006
REMARK INTRA:                  -0.974
REMARK UNBOUND:                -0.963
REMARK  Name = 
REMARK  5 active torsions:
REMARK  status: ('A' for Active; 'I' for Inactive)
REMARK    1  A    between atoms: C_2  and  C_4
REMARK    2  A    between atoms: N_8  and  C_9
REMARK    3  A    between atoms: C_9  and  C_10
REMARK    4  A    between atoms: C_10  and  C_11
REMARK    5  A    between atoms: C_15  and  C_16
REMARK                            x       y       z     vdW  Elec       q    Type
REMARK                         _______ _______ _______ _____ _____    ______ ____
ROOT
ATOM      1  C   UNL     1      48.490   6.543  14.498  0.00  0.00    +0.000 C 
ENDROOT
BRANCH   1   6
ATOM      2  C   UNL     1      45.030   3.976  11.822  0.00  0.00    +0.000 A 
ATOM      3  C   UNL     1      45.840   3.543  12.866  0.00  0.00    +0.000 A 
ATOM      4  C   UNL     1      46.591   4.481  13.576  0.00  0.00    +0.000 A 
ATOM      5  C   UNL     1      46.538   5.825  13.216  0.00  0.00    +0.000 A 
ATOM      6  N   UNL     1      47.182   6.825  13.931  0.00  0.00    +0.000 N 
ATOM      7  N   UNL     1      45.788   6.250  12.182  0.00  0.00    +0.000 NA
ATOM      8  C   UNL     1      45.056   5.324  11.505  0.00  0.00    +0.000 A 
ATOM      9  H   UNL     1      47.110   7.674  13.374  0.00  0.00    +0.000 HD
BRANCH   2  11
ATOM     10  N   UNL     1      44.716   2.394  10.009  0.00  0.00    +0.000 N 
ATOM     11  C   UNL     1      44.154   3.065  11.062  0.00  0.00    +0.000 C 
ATOM     12  O   UNL     1      42.987   2.882  11.382  0.00  0.00    +0.000 OA
ATOM     13  H   UNL     1      44.137   1.688   9.570  0.00  0.00    +0.000 HD
ATOM     14  H   UNL     1      45.714   2.323   9.880  0.00  0.00    +0.000 HD
ENDBRANCH   2  11
ENDBRANCH   1   6
BRANCH   1  15
ATOM     15  C   UNL     1      48.474   6.726  16.021  0.00  0.00    +0.000 C 
BRANCH  15  16
ATOM     16  C   UNL     1      48.513   5.383  16.713  0.00  0.00    +0.000 A 
ATOM     17  C   UNL     1      47.337   4.667  16.949  0.00  0.00    +0.000 A 
ATOM     18  C   UNL     1      47.398   3.398  17.519  0.00  0.00    +0.000 A 
ATOM     19  C   UNL     1      48.635   2.824  17.829  0.00  0.00    +0.000 A 
ATOM     20  C   UNL     1      49.841   3.496  17.560  0.00  0.00    +0.000 A 
ATOM     21  C   UNL     1      49.749   4.794  17.027  0.00  0.00    +0.000 A 
BRANCH  20  22
ATOM     22  C   UNL     1      51.158   2.835  17.721  0.00  0.00    +0.000 A 
ATOM     23  C   UNL     1      52.241   3.520  18.301  0.00  0.00    +0.000 A 
ATOM     24  C   UNL     1      53.452   2.879  18.575  0.00  0.00    +0.000 A 
ATOM     25  C   UNL     1      53.608   1.530  18.275  0.00  0.00    +0.000 A 
ATOM     26  C   UNL     1      52.565   0.833  17.675  0.00  0.00    +0.000 A 
ATOM     27  C   UNL     1      51.358   1.482  17.391  0.00  0.00    +0.000 A 
ENDBRANCH  20  22
ENDBRANCH  15  16
ENDBRANCH   1  15
TORSDOF 5
ENDMDL
