MODEL 1
REMARK VINA RESULT:    -8.412      0.000      0.000
REMARK INTER + INTRA:         -15.507
REMARK INTER:                 -13.822
REMARK INTRA:                  -1.686
REMARK UNBOUND:                -1.686
REMARK  Name = 
REMARK  12 active torsions:
REMARK  status: ('A' for Active; 'I' for Inactive)
REMARK    1  A    between atoms: C_1  and  C_2
REMARK    2  A    between atoms: C_2  and  N_3
REMARK    3  A    between atoms: C_2  and  C_20
REMARK    4  A    between atoms: N_3  and  C_4
REMARK    5  A    between atoms: C_4  and  C_5
REMARK    6  A    between atoms: C_9  and  C_10
REMARK    7  A    between atoms: C_10  and  N_11
REMARK    8  A    between atoms: N_11  and  C_12
REMARK    9  A    between atoms: C_12  and  C_13
REMARK   10  A    between atoms: C_23  and  C_24
REMARK   11  A    between atoms: N_26  and  C_27
REMARK   12  A    between atoms: C_27  and  C_28
REMARK                            x       y       z     vdW  Elec       q    Type
REMARK                         _______ _______ _______ _____ _____    ______ ____
ROOT
ATOM      1  C   UNL     1      43.280   3.397  11.686  0.00  0.00    +0.000 C 
ATOM      2  C   UNL     1      43.716   4.412  10.622  0.00  0.00    +0.000 C 
ENDROOT
BRANCH   2   3
ATOM      3  C   UNL     1      44.655   3.757   9.620  0.00  0.00    +0.000 A 
ATOM      4  C   UNL     1      45.408   4.562   8.749  0.00  0.00    +0.000 A 
ATOM      5  C   UNL     1      46.260   3.984   7.803  0.00  0.00    +0.000 A 
ATOM      6  C   UNL     1      46.373   2.594   7.717  0.00  0.00    +0.000 A 
ATOM      7  C   UNL     1      45.677   1.790   8.628  0.00  0.00    +0.000 A 
ATOM      8  C   UNL     1      44.817   2.365   9.563  0.00  0.00    +0.000 A 
BRANCH   6   9
ATOM      9  C   UNL     1      47.223   1.996   6.646  0.00  0.00    +0.000 C 
ATOM     10  O   UNL     1      48.217   1.336   6.934  0.00  0.00    +0.000 OA
ATOM     11  N   UNL     1      46.843   2.270   5.353  0.00  0.00    +0.000 N 
ATOM     12  H   UNL     1      46.034   2.843   5.160  0.00  0.00    +0.000 HD
BRANCH  11  13
ATOM     13  C   UNL     1      47.540   1.741   4.202  0.00  0.00    +0.000 C 
BRANCH  13  14
ATOM     14  C   UNL     1      46.782   0.615   3.534  0.00  0.00    +0.000 A 
ATOM     15  C   UNL     1      45.685   0.900   2.722  0.00  0.00    +0.000 A 
ATOM     16  C   UNL     1      45.003  -0.153   2.116  0.00  0.00    +0.000 A 
ATOM     17  C   UNL     1      45.432  -1.456   2.334  0.00  0.00    +0.000 A 
ATOM     18  C   UNL     1      46.536  -1.654   3.147  0.00  0.00    +0.000 A 
ATOM     19  N   UNL     1      47.223  -0.654   3.746  0.00  0.00    +0.000 NA
ENDBRANCH  13  14
ENDBRANCH  11  13
ENDBRANCH   6   9
ENDBRANCH   2   3
BRANCH   2  20
ATOM     20  N   UNL     1      44.299   5.590  11.278  0.00  0.00    +0.000 NA
ATOM     21  H   UNL     1      43.569   6.263  11.505  0.00  0.00    +0.000 HD
BRANCH  20  22
ATOM     22  C   UNL     1      45.025   5.244  12.500  0.00  0.00    +0.000 C 
BRANCH  22  23
ATOM     23  C   UNL     1      46.352   5.957  12.567  0.00  0.00    +0.000 A 
ATOM     24  C   UNL     1      46.840   6.687  11.476  0.00  0.00    +0.000 A 
ATOM     25  C   UNL     1      48.073   7.333  11.556  0.00  0.00    +0.000 A 
ATOM     26  C   UNL     1      48.813   7.285  12.737  0.00  0.00    +0.000 A 
ATOM     27  C   UNL     1      48.323   6.598  13.857  0.00  0.00    +0.000 A 
ATOM     28  C   UNL     1      47.107   5.911  13.749  0.00  0.00    +0.000 A 
BRANCH  27  29
ATOM     29  C   UNL     1      49.042   6.663  15.185  0.00  0.00    +0.000 C 
BRANCH  29  30
ATOM     30  N   UNL     1      48.081   6.441  16.263  0.00  0.00    +0.000 NA
ATOM     31  H   UNL     1      47.428   5.714  15.967  0.00  0.00    +0.000 HD
BRANCH  30  32
ATOM     32  C   UNL     1      48.724   5.998  17.502  0.00  0.00    +0.000 C 
BRANCH  32  33
ATOM     33  C   UNL     1      49.261   4.583  17.371  0.00  0.00    +0.000 A 
ATOM     34  C   UNL     1      48.427   3.547  16.948  0.00  0.00    +0.000 A 
ATOM     35  C   UNL     1      48.953   2.264  16.824  0.00  0.00    +0.000 A 
ATOM     36  C   UNL     1      50.291   2.046  17.125  0.00  0.00    +0.000 A 
ATOM     37  C   UNL     1      51.052   3.128  17.536  0.00  0.00    +0.000 A 
ATOM     38  N   UNL     1      50.573   4.385  17.663  0.00  0.00    +0.000 NA
ENDBRANCH  32  33
ENDBRANCH  30  32
ENDBRANCH  29  30
ENDBRANCH  27  29
ENDBRANCH  22  23
ENDBRANCH  20  22
ENDBRANCH   2  20
TORSDOF 11
ENDMDL
MODEL 2
REMARK VINA RESULT:    -7.445      2.794      5.975
REMARK INTER + INTRA:         -13.918
REMARK INTER:                 -12.129
REMARK INTRA:                  -1.789
REMARK UNBOUND:                -1.686
REMARK  Name = 
REMARK  12 active torsions:
REMARK  status: ('A' for Active; 'I' for Inactive)
REMARK    1  A    between atoms: C_1  and  C_2
REMARK    2  A    between atoms: C_2  and  N_3
REMARK    3  A    between atoms: C_2  and  C_20
REMARK    4  A    between atoms: N_3  and  C_4
REMARK    5  A    between atoms: C_4  and  C_5
REMARK    6  A    between atoms: C_9  and  C_10
REMARK    7  A    between atoms: C_10  and  N_11
REMARK    8  A    between atoms: N_11  and  C_12
REMARK    9  A    between atoms: C_12  and  C_13
REMARK   10  A    between atoms: C_23  and  C_24
REMARK   11  A    between atoms: N_26  and  C_27
REMARK   12  A    between atoms: C_27  and  C_28
REMARK                            x       y       z     vdW  Elec       q    Type
REMARK                         _______ _______ _______ _____ _____    ______ ____
ROOT
ATOM      1  C   UNL     1      48.837  10.000  13.811  0.00  0.00    +0.000 C 
ATOM      2  C   UNL     1      48.394   8.807  14.668  0.00  0.00    +0.000 C 
ENDROOT
BRANCH   2   3
ATOM      3  C   UNL     1      47.676   7.778  13.808  0.00  0.00    +0.000 A 
ATOM      4  C   UNL     1      46.838   8.209  12.766  0.00  0.00    +0.000 A 
ATOM      5  C   UNL     1      46.148   7.285  11.977  0.00  0.00    +0.000 A 
ATOM      6  C   UNL     1      46.288   5.915  12.216  0.00  0.00    +0.000 A 
ATOM      7  C   UNL     1      47.174   5.478  13.209  0.00  0.00    +0.000 A 
ATOM      8  C   UNL     1      47.853   6.400  14.004  0.00  0.00    +0.000 A 
BRANCH   6   9
ATOM      9  C   UNL     1      45.479   4.948  11.418  0.00  0.00    +0.000 C 
ATOM     10  O   UNL     1      44.970   3.968  11.955  0.00  0.00    +0.000 OA
ATOM     11  N   UNL     1      45.388   5.208  10.071  0.00  0.00    +0.000 N 
ATOM     12  H   UNL     1      45.847   6.011   9.665  0.00  0.00    +0.000 HD
BRANCH  11  13
ATOM     13  C   UNL     1      44.617   4.388   9.164  0.00  0.00    +0.000 C 
BRANCH  13  14
ATOM     14  C   UNL     1      45.480   3.428   8.376  0.00  0.00    +0.000 A 
ATOM     15  C   UNL     1      45.540   2.084   8.743  0.00  0.00    +0.000 A 
ATOM     16  C   UNL     1      46.340   1.218   8.003  0.00  0.00    +0.000 A 
ATOM     17  C   UNL     1      47.055   1.711   6.919  0.00  0.00    +0.000 A 
ATOM     18  C   UNL     1      46.934   3.057   6.614  0.00  0.00    +0.000 A 
ATOM     19  N   UNL     1      46.162   3.922   7.310  0.00  0.00    +0.000 NA
ENDBRANCH  13  14
ENDBRANCH  11  13
ENDBRANCH   6   9
ENDBRANCH   2   3
BRANCH   2  20
ATOM     20  N   UNL     1      47.584   9.287  15.794  0.00  0.00    +0.000 NA
ATOM     21  H   UNL     1      47.152   8.501  16.276  0.00  0.00    +0.000 HD
BRANCH  20  22
ATOM     22  C   UNL     1      48.370  10.061  16.755  0.00  0.00    +0.000 C 
BRANCH  22  23
ATOM     23  C   UNL     1      47.888   9.833  18.166  0.00  0.00    +0.000 A 
ATOM     24  C   UNL     1      47.255  10.852  18.890  0.00  0.00    +0.000 A 
ATOM     25  C   UNL     1      46.823  10.624  20.196  0.00  0.00    +0.000 A 
ATOM     26  C   UNL     1      46.986   9.367  20.777  0.00  0.00    +0.000 A 
ATOM     27  C   UNL     1      47.575   8.318  20.054  0.00  0.00    +0.000 A 
ATOM     28  C   UNL     1      48.050   8.574  18.762  0.00  0.00    +0.000 A 
BRANCH  27  29
ATOM     29  C   UNL     1      47.622   6.916  20.617  0.00  0.00    +0.000 C 
BRANCH  29  30
ATOM     30  N   UNL     1      48.771   6.212  20.055  0.00  0.00    +0.000 NA
ATOM     31  H   UNL     1      49.601   6.472  20.589  0.00  0.00    +0.000 HD
BRANCH  30  32
ATOM     32  C   UNL     1      48.622   4.756  20.126  0.00  0.00    +0.000 C 
BRANCH  32  33
ATOM     33  C   UNL     1      48.397   4.155  18.749  0.00  0.00    +0.000 A 
ATOM     34  C   UNL     1      47.305   4.553  17.975  0.00  0.00    +0.000 A 
ATOM     35  C   UNL     1      47.134   3.995  16.711  0.00  0.00    +0.000 A 
ATOM     36  C   UNL     1      48.050   3.057  16.252  0.00  0.00    +0.000 A 
ATOM     37  C   UNL     1      49.107   2.719  17.080  0.00  0.00    +0.000 A 
ATOM     38  N   UNL     1      49.303   3.244  18.310  0.00  0.00    +0.000 NA
ENDBRANCH  32  33
ENDBRANCH  30  32
ENDBRANCH  29  30
ENDBRANCH  27  29
ENDBRANCH  22  23
ENDBRANCH  20  22
ENDBRANCH   2  20
TORSDOF 11
ENDMDL
MODEL 3
REMARK VINA RESULT:    -7.376      3.374      7.013
REMARK INTER + INTRA:         -13.805
REMARK INTER:                 -11.957
REMARK INTRA:                  -1.848
REMARK UNBOUND:                -1.686
REMARK  Name = 
REMARK  12 active torsions:
REMARK  status: ('A' for Active; 'I' for Inactive)
REMARK    1  A    between atoms: C_1  and  C_2
REMARK    2  A    between atoms: C_2  and  N_3
REMARK    3  A    between atoms: C_2  and  C_20
REMARK    4  A    between atoms: N_3  and  C_4
REMARK    5  A    between atoms: C_4  and  C_5
REMARK    6  A    between atoms: C_9  and  C_10
REMARK    7  A    between atoms: C_10  and  N_11
REMARK    8  A    between atoms: N_11  and  C_12
REMARK    9  A    between atoms: C_12  and  C_13
REMARK   10  A    between atoms: C_23  and  C_24
REMARK   11  A    between atoms: N_26  and  C_27
REMARK   12  A    between atoms: C_27  and  C_28
REMARK                            x       y       z     vdW  Elec       q    Type
REMARK                         _______ _______ _______ _____ _____    ______ ____
ROOT
ATOM      1  C   UNL     1      48.046   4.450  16.561  0.00  0.00    +0.000 C 
ATOM      2  C   UNL     1      47.932   5.630  15.588  0.00  0.00    +0.000 C 
ENDROOT
BRANCH   2   3
ATOM      3  C   UNL     1      47.117   5.232  14.367  0.00  0.00    +0.000 A 
ATOM      4  C   UNL     1      46.820   3.876  14.146  0.00  0.00    +0.000 A 
ATOM      5  C   UNL     1      46.093   3.481  13.019  0.00  0.00    +0.000 A 
ATOM      6  C   UNL     1      45.651   4.435  12.099  0.00  0.00    +0.000 A 
ATOM      7  C   UNL     1      45.885   5.794  12.350  0.00  0.00    +0.000 A 
ATOM      8  C   UNL     1      46.621   6.187  13.467  0.00  0.00    +0.000 A 
BRANCH   6   9
ATOM      9  C   UNL     1      44.950   3.986  10.861  0.00  0.00    +0.000 C 
ATOM     10  O   UNL     1      44.147   4.723  10.295  0.00  0.00    +0.000 OA
ATOM     11  N   UNL     1      45.230   2.706  10.442  0.00  0.00    +0.000 N 
ATOM     12  H   UNL     1      45.875   2.122  10.954  0.00  0.00    +0.000 HD
BRANCH  11  13
ATOM     13  C   UNL     1      44.659   2.130   9.245  0.00  0.00    +0.000 C 
BRANCH  13  14
ATOM     14  C   UNL     1      45.653   2.059   8.107  0.00  0.00    +0.000 A 
ATOM     15  C   UNL     1      45.766   3.125   7.215  0.00  0.00    +0.000 A 
ATOM     16  C   UNL     1      46.688   3.039   6.175  0.00  0.00    +0.000 A 
ATOM     17  C   UNL     1      47.472   1.898   6.054  0.00  0.00    +0.000 A 
ATOM     18  C   UNL     1      47.305   0.888   6.986  0.00  0.00    +0.000 A 
ATOM     19  N   UNL     1      46.422   0.943   8.010  0.00  0.00    +0.000 NA
ENDBRANCH  13  14
ENDBRANCH  11  13
ENDBRANCH   6   9
ENDBRANCH   2   3
BRANCH   2  20
ATOM     20  N   UNL     1      49.276   6.120  15.253  0.00  0.00    +0.000 NA
ATOM     21  H   UNL     1      49.524   5.844  14.305  0.00  0.00    +0.000 HD
BRANCH  20  22
ATOM     22  C   UNL     1      49.384   7.573  15.370  0.00  0.00    +0.000 C 
BRANCH  22  23
ATOM     23  C   UNL     1      49.324   8.237  14.016  0.00  0.00    +0.000 A 
ATOM     24  C   UNL     1      49.965   7.676  12.904  0.00  0.00    +0.000 A 
ATOM     25  C   UNL     1      49.904   8.309  11.663  0.00  0.00    +0.000 A 
ATOM     26  C   UNL     1      49.174   9.487  11.514  0.00  0.00    +0.000 A 
ATOM     27  C   UNL     1      48.486  10.042  12.603  0.00  0.00    +0.000 A 
ATOM     28  C   UNL     1      48.596   9.425  13.855  0.00  0.00    +0.000 A 
BRANCH  27  29
ATOM     29  C   UNL     1      47.572  11.233  12.421  0.00  0.00    +0.000 C 
BRANCH  29  30
ATOM     30  N   UNL     1      46.206  10.761  12.214  0.00  0.00    +0.000 NA
ATOM     31  H   UNL     1      45.706  10.822  13.102  0.00  0.00    +0.000 HD
BRANCH  30  32
ATOM     32  C   UNL     1      45.481  11.565  11.228  0.00  0.00    +0.000 C 
BRANCH  32  33
ATOM     33  C   UNL     1      44.014  11.175  11.166  0.00  0.00    +0.000 A 
ATOM     34  C   UNL     1      43.627   9.973  10.571  0.00  0.00    +0.000 A 
ATOM     35  C   UNL     1      42.277   9.635  10.544  0.00  0.00    +0.000 A 
ATOM     36  C   UNL     1      41.348  10.503  11.105  0.00  0.00    +0.000 A 
ATOM     37  C   UNL     1      41.814  11.674  11.678  0.00  0.00    +0.000 A 
ATOM     38  N   UNL     1      43.117  12.028  11.724  0.00  0.00    +0.000 NA
ENDBRANCH  32  33
ENDBRANCH  30  32
ENDBRANCH  29  30
ENDBRANCH  27  29
ENDBRANCH  22  23
ENDBRANCH  20  22
ENDBRANCH   2  20
TORSDOF 11
ENDMDL
MODEL 4
REMARK VINA RESULT:    -7.335      3.008      6.272
REMARK INTER + INTRA:         -13.737
REMARK INTER:                 -11.760
REMARK INTRA:                  -1.977
REMARK UNBOUND:                -1.686
REMARK  Name = 
REMARK  12 active torsions:
REMARK  status: ('A' for Active; 'I' for Inactive)
REMARK    1  A    between atoms: C_1  and  C_2
REMARK    2  A    between atoms: C_2  and  N_3
REMARK    3  A    between atoms: C_2  and  C_20
REMARK    4  A    between atoms: N_3  and  C_4
REMARK    5  A    between atoms: C_4  and  C_5
REMARK    6  A    between atoms: C_9  and  C_10
REMARK    7  A    between atoms: C_10  and  N_11
REMARK    8  A    between atoms: N_11  and  C_12
REMARK    9  A    between atoms: C_12  and  C_13
REMARK   10  A    between atoms: C_23  and  C_24
REMARK   11  A    between atoms: N_26  and  C_27
REMARK   12  A    between atoms: C_27  and  C_28
REMARK                            x       y       z     vdW  Elec       q    Type
REMARK                         _______ _______ _______ _____ _____    ______ ____
ROOT
ATOM      1  C   UNL     1      48.837  10.281  14.893  0.00  0.00    +0.000 C 
ATOM      2  C   UNL     1      49.397   8.861  14.742  0.00  0.00    +0.000 C 
ENDROOT
BRANCH   2   3
ATOM      3  C   UNL     1      48.359   7.949  14.106  0.00  0.00    +0.000 A 
ATOM      4  C   UNL     1      48.508   6.556  14.203  0.00  0.00    +0.000 A 
ATOM      5  C   UNL     1      47.582   5.696  13.607  0.00  0.00    +0.000 A 
ATOM      6  C   UNL     1      46.491   6.217  12.906  0.00  0.00    +0.000 A 
ATOM      7  C   UNL     1      46.299   7.604  12.864  0.00  0.00    +0.000 A 
ATOM      8  C   UNL     1      47.230   8.462  13.448  0.00  0.00    +0.000 A 
BRANCH   6   9
ATOM      9  C   UNL     1      45.560   5.284  12.206  0.00  0.00    +0.000 C 
ATOM     10  O   UNL     1      45.075   4.324  12.799  0.00  0.00    +0.000 OA
ATOM     11  N   UNL     1      45.329   5.550  10.877  0.00  0.00    +0.000 N 
ATOM     12  H   UNL     1      45.772   6.334  10.419  0.00  0.00    +0.000 HD
BRANCH  11  13
ATOM     13  C   UNL     1      44.429   4.762  10.064  0.00  0.00    +0.000 C 
BRANCH  13  14
ATOM     14  C   UNL     1      45.163   3.848   9.108  0.00  0.00    +0.000 A 
ATOM     15  C   UNL     1      45.153   2.470   9.319  0.00  0.00    +0.000 A 
ATOM     16  C   UNL     1      45.834   1.646   8.426  0.00  0.00    +0.000 A 
ATOM     17  C   UNL     1      46.503   2.216   7.350  0.00  0.00    +0.000 A 
ATOM     18  C   UNL     1      46.457   3.593   7.206  0.00  0.00    +0.000 A 
ATOM     19  N   UNL     1      45.800   4.419   8.053  0.00  0.00    +0.000 NA
ENDBRANCH  13  14
ENDBRANCH  11  13
ENDBRANCH   6   9
ENDBRANCH   2   3
BRANCH   2  20
ATOM     20  N   UNL     1      49.868   8.380  16.047  0.00  0.00    +0.000 NA
ATOM     21  H   UNL     1      50.870   8.536  16.138  0.00  0.00    +0.000 HD
BRANCH  20  22
ATOM     22  C   UNL     1      49.181   9.031  17.162  0.00  0.00    +0.000 C 
BRANCH  22  23
ATOM     23  C   UNL     1      48.555   8.016  18.085  0.00  0.00    +0.000 A 
ATOM     24  C   UNL     1      48.256   8.333  19.416  0.00  0.00    +0.000 A 
ATOM     25  C   UNL     1      47.684   7.379  20.257  0.00  0.00    +0.000 A 
ATOM     26  C   UNL     1      47.372   6.111  19.765  0.00  0.00    +0.000 A 
ATOM     27  C   UNL     1      47.619   5.787  18.423  0.00  0.00    +0.000 A 
ATOM     28  C   UNL     1      48.241   6.736  17.603  0.00  0.00    +0.000 A 
BRANCH  27  29
ATOM     29  C   UNL     1      47.150   4.472  17.842  0.00  0.00    +0.000 C 
BRANCH  29  30
ATOM     30  N   UNL     1      48.066   3.412  18.255  0.00  0.00    +0.000 NA
ATOM     31  H   UNL     1      47.528   2.692  18.740  0.00  0.00    +0.000 HD
BRANCH  30  32
ATOM     32  C   UNL     1      48.742   2.784  17.117  0.00  0.00    +0.000 C 
BRANCH  32  33
ATOM     33  C   UNL     1      50.225   2.598  17.389  0.00  0.00    +0.000 A 
ATOM     34  C   UNL     1      51.010   3.679  17.793  0.00  0.00    +0.000 A 
ATOM     35  C   UNL     1      52.363   3.474  18.049  0.00  0.00    +0.000 A 
ATOM     36  C   UNL     1      52.898   2.201  17.895  0.00  0.00    +0.000 A 
ATOM     37  C   UNL     1      52.051   1.182  17.493  0.00  0.00    +0.000 A 
ATOM     38  N   UNL     1      50.734   1.348  17.240  0.00  0.00    +0.000 NA
ENDBRANCH  32  33
ENDBRANCH  30  32
ENDBRANCH  29  30
ENDBRANCH  27  29
ENDBRANCH  22  23
ENDBRANCH  20  22
ENDBRANCH   2  20
TORSDOF 11
ENDMDL
MODEL 5
REMARK VINA RESULT:    -7.324      4.926     10.720
REMARK INTER + INTRA:         -13.719
REMARK INTER:                 -12.427
REMARK INTRA:                  -1.292
REMARK UNBOUND:                -1.686
REMARK  Name = 
REMARK  12 active torsions:
REMARK  status: ('A' for Active; 'I' for Inactive)
REMARK    1  A    between atoms: C_1  and  C_2
REMARK    2  A    between atoms: C_2  and  N_3
REMARK    3  A    between atoms: C_2  and  C_20
REMARK    4  A    between atoms: N_3  and  C_4
REMARK    5  A    between atoms: C_4  and  C_5
REMARK    6  A    between atoms: C_9  and  C_10
REMARK    7  A    between atoms: C_10  and  N_11
REMARK    8  A    between atoms: N_11  and  C_12
REMARK    9  A    between atoms: C_12  and  C_13
REMARK   10  A    between atoms: C_23  and  C_24
REMARK   11  A    between atoms: N_26  and  C_27
REMARK   12  A    between atoms: C_27  and  C_28
REMARK                            x       y       z     vdW  Elec       q    Type
REMARK                         _______ _______ _______ _____ _____    ______ ____
ROOT
ATOM      1  C   UNL     1      48.999   7.202  13.071  0.00  0.00    +0.000 C 
ATOM      2  C   UNL     1      47.543   6.819  12.774  0.00  0.00    +0.000 C 
ENDROOT
BRANCH   2   3
ATOM      3  C   UNL     1      46.739   8.054  12.394  0.00  0.00    +0.000 A 
ATOM      4  C   UNL     1      47.393   9.289  12.254  0.00  0.00    +0.000 A 
ATOM      5  C   UNL     1      46.674  10.443  11.929  0.00  0.00    +0.000 A 
ATOM      6  C   UNL     1      45.291  10.378  11.737  0.00  0.00    +0.000 A 
ATOM      7  C   UNL     1      44.645   9.137  11.809  0.00  0.00    +0.000 A 
ATOM      8  C   UNL     1      45.359   7.988  12.145  0.00  0.00    +0.000 A 
BRANCH   6   9
ATOM      9  C   UNL     1      44.531  11.634  11.474  0.00  0.00    +0.000 C 
ATOM     10  O   UNL     1      45.098  12.624  11.021  0.00  0.00    +0.000 OA
ATOM     11  N   UNL     1      43.197  11.611  11.808  0.00  0.00    +0.000 N 
ATOM     12  H   UNL     1      42.775  10.784  12.206  0.00  0.00    +0.000 HD
BRANCH  11  13
ATOM     13  C   UNL     1      42.313  12.734  11.587  0.00  0.00    +0.000 C 
BRANCH  13  14
ATOM     14  C   UNL     1      40.952  12.531  12.215  0.00  0.00    +0.000 A 
ATOM     15  C   UNL     1      39.839  12.308  11.406  0.00  0.00    +0.000 A 
ATOM     16  C   UNL     1      38.596  12.122  12.005  0.00  0.00    +0.000 A 
ATOM     17  C   UNL     1      38.496  12.161  13.390  0.00  0.00    +0.000 A 
ATOM     18  C   UNL     1      39.651  12.379  14.123  0.00  0.00    +0.000 A 
ATOM     19  N   UNL     1      40.873  12.558  13.572  0.00  0.00    +0.000 NA
ENDBRANCH  13  14
ENDBRANCH  11  13
ENDBRANCH   6   9
ENDBRANCH   2   3
BRANCH   2  20
ATOM     20  N   UNL     1      46.983   6.095  13.922  0.00  0.00    +0.000 NA
ATOM     21  H   UNL     1      46.153   6.572  14.268  0.00  0.00    +0.000 HD
BRANCH  20  22
ATOM     22  C   UNL     1      46.636   4.713  13.593  0.00  0.00    +0.000 C 
BRANCH  22  23
ATOM     23  C   UNL     1      45.364   4.646  12.785  0.00  0.00    +0.000 A 
ATOM     24  C   UNL     1      44.114   4.856  13.381  0.00  0.00    +0.000 A 
ATOM     25  C   UNL     1      42.949   4.783  12.619  0.00  0.00    +0.000 A 
ATOM     26  C   UNL     1      43.024   4.534  11.249  0.00  0.00    +0.000 A 
ATOM     27  C   UNL     1      44.267   4.366  10.622  0.00  0.00    +0.000 A 
ATOM     28  C   UNL     1      45.427   4.392  11.407  0.00  0.00    +0.000 A 
BRANCH  27  29
ATOM     29  C   UNL     1      44.370   4.246   9.119  0.00  0.00    +0.000 C 
BRANCH  29  30
ATOM     30  N   UNL     1      44.359   2.833   8.749  0.00  0.00    +0.000 NA
ATOM     31  H   UNL     1      44.041   2.756   7.782  0.00  0.00    +0.000 HD
BRANCH  30  32
ATOM     32  C   UNL     1      45.686   2.221   8.843  0.00  0.00    +0.000 C 
BRANCH  32  33
ATOM     33  C   UNL     1      46.340   2.106   7.476  0.00  0.00    +0.000 A 
ATOM     34  C   UNL     1      46.380   3.206   6.618  0.00  0.00    +0.000 A 
ATOM     35  C   UNL     1      47.000   3.075   5.379  0.00  0.00    +0.000 A 
ATOM     36  C   UNL     1      47.560   1.854   5.026  0.00  0.00    +0.000 A 
ATOM     37  C   UNL     1      47.481   0.812   5.935  0.00  0.00    +0.000 A 
ATOM     38  N   UNL     1      46.889   0.909   7.146  0.00  0.00    +0.000 NA
ENDBRANCH  32  33
ENDBRANCH  30  32
ENDBRANCH  29  30
ENDBRANCH  27  29
ENDBRANCH  22  23
ENDBRANCH  20  22
ENDBRANCH   2  20
TORSDOF 11
ENDMDL
MODEL 6
REMARK VINA RESULT:    -7.159      4.305      8.548
REMARK INTER + INTRA:         -13.448
REMARK INTER:                 -12.012
REMARK INTRA:                  -1.436
REMARK UNBOUND:                -1.686
REMARK  Name = 
REMARK  12 active torsions:
REMARK  status: ('A' for Active; 'I' for Inactive)
REMARK    1  A    between atoms: C_1  and  C_2
REMARK    2  A    between atoms: C_2  and  N_3
REMARK    3  A    between atoms: C_2  and  C_20
REMARK    4  A    between atoms: N_3  and  C_4
REMARK    5  A    between atoms: C_4  and  C_5
REMARK    6  A    between atoms: C_9  and  C_10
REMARK    7  A    between atoms: C_10  and  N_11
REMARK    8  A    between atoms: N_11  and  C_12
REMARK    9  A    between atoms: C_12  and  C_13
REMARK   10  A    between atoms: C_23  and  C_24
REMARK   11  A    between atoms: N_26  and  C_27
REMARK   12  A    between atoms: C_27  and  C_28
REMARK                            x       y       z     vdW  Elec       q    Type
REMARK                         _______ _______ _______ _____ _____    ______ ____
ROOT
ATOM      1  C   UNL     1      45.980  10.549  11.712  0.00  0.00    +0.000 C 
ATOM      2  C   UNL     1      46.494   9.223  12.288  0.00  0.00    +0.000 C 
ENDROOT
BRANCH   2   3
ATOM      3  C   UNL     1      47.969   9.042  11.961  0.00  0.00    +0.000 A 
ATOM      4  C   UNL     1      48.532   7.755  11.993  0.00  0.00    +0.000 A 
ATOM      5  C   UNL     1      49.889   7.565  11.721  0.00  0.00    +0.000 A 
ATOM      6  C   UNL     1      50.703   8.658  11.409  0.00  0.00    +0.000 A 
ATOM      7  C   UNL     1      50.132   9.933  11.308  0.00  0.00    +0.000 A 
ATOM      8  C   UNL     1      48.781  10.125  11.592  0.00  0.00    +0.000 A 
BRANCH   6   9
ATOM      9  C   UNL     1      52.165   8.445  11.203  0.00  0.00    +0.000 C 
ATOM     10  O   UNL     1      52.987   9.150  11.782  0.00  0.00    +0.000 OA
ATOM     11  N   UNL     1      52.510   7.458  10.309  0.00  0.00    +0.000 N 
ATOM     12  H   UNL     1      51.801   6.920   9.831  0.00  0.00    +0.000 HD
BRANCH  11  13
ATOM     13  C   UNL     1      53.881   7.104  10.021  0.00  0.00    +0.000 C 
BRANCH  13  14
ATOM     14  C   UNL     1      53.994   6.070   8.922  0.00  0.00    +0.000 A 
ATOM     15  C   UNL     1      55.038   5.147   8.940  0.00  0.00    +0.000 A 
ATOM     16  C   UNL     1      55.121   4.203   7.920  0.00  0.00    +0.000 A 
ATOM     17  C   UNL     1      54.164   4.204   6.913  0.00  0.00    +0.000 A 
ATOM     18  C   UNL     1      53.153   5.149   6.973  0.00  0.00    +0.000 A 
ATOM     19  N   UNL     1      53.041   6.075   7.952  0.00  0.00    +0.000 NA
ENDBRANCH  13  14
ENDBRANCH  11  13
ENDBRANCH   6   9
ENDBRANCH   2   3
BRANCH   2  20
ATOM     20  N   UNL     1      45.654   8.120  11.803  0.00  0.00    +0.000 NA
ATOM     21  H   UNL     1      46.214   7.462  11.265  0.00  0.00    +0.000 HD
BRANCH  20  22
ATOM     22  C   UNL     1      44.993   7.404  12.893  0.00  0.00    +0.000 C 
BRANCH  22  23
ATOM     23  C   UNL     1      45.273   5.923  12.824  0.00  0.00    +0.000 A 
ATOM     24  C   UNL     1      46.370   5.361  13.489  0.00  0.00    +0.000 A 
ATOM     25  C   UNL     1      46.616   3.991  13.406  0.00  0.00    +0.000 A 
ATOM     26  C   UNL     1      45.750   3.166  12.689  0.00  0.00    +0.000 A 
ATOM     27  C   UNL     1      44.619   3.701  12.054  0.00  0.00    +0.000 A 
ATOM     28  C   UNL     1      44.410   5.085  12.102  0.00  0.00    +0.000 A 
BRANCH  27  29
ATOM     29  C   UNL     1      43.595   2.801  11.402  0.00  0.00    +0.000 C 
BRANCH  29  30
ATOM     30  N   UNL     1      44.202   2.140  10.250  0.00  0.00    +0.000 NA
ATOM     31  H   UNL     1      43.537   1.457   9.883  0.00  0.00    +0.000 HD
BRANCH  30  32
ATOM     32  C   UNL     1      44.528   3.079   9.175  0.00  0.00    +0.000 C 
BRANCH  32  33
ATOM     33  C   UNL     1      45.614   2.528   8.268  0.00  0.00    +0.000 A 
ATOM     34  C   UNL     1      46.237   3.351   7.329  0.00  0.00    +0.000 A 
ATOM     35  C   UNL     1      47.240   2.821   6.523  0.00  0.00    +0.000 A 
ATOM     36  C   UNL     1      47.595   1.486   6.671  0.00  0.00    +0.000 A 
ATOM     37  C   UNL     1      46.931   0.736   7.627  0.00  0.00    +0.000 A 
ATOM     38  N   UNL     1      45.957   1.223   8.427  0.00  0.00    +0.000 NA
ENDBRANCH  32  33
ENDBRANCH  30  32
ENDBRANCH  29  30
ENDBRANCH  27  29
ENDBRANCH  22  23
ENDBRANCH  20  22
ENDBRANCH   2  20
TORSDOF 11
ENDMDL
MODEL 7
REMARK VINA RESULT:    -7.128      2.740      6.154
REMARK INTER + INTRA:         -13.398
REMARK INTER:                 -11.080
REMARK INTRA:                  -2.317
REMARK UNBOUND:                -1.686
REMARK  Name = 
REMARK  12 active torsions:
REMARK  status: ('A' for Active; 'I' for Inactive)
REMARK    1  A    between atoms: C_1  and  C_2
REMARK    2  A    between atoms: C_2  and  N_3
REMARK    3  A    between atoms: C_2  and  C_20
REMARK    4  A    between atoms: N_3  and  C_4
REMARK    5  A    between atoms: C_4  and  C_5
REMARK    6  A    between atoms: C_9  and  C_10
REMARK    7  A    between atoms: C_10  and  N_11
REMARK    8  A    between atoms: N_11  and  C_12
REMARK    9  A    between atoms: C_12  and  C_13
REMARK   10  A    between atoms: C_23  and  C_24
REMARK   11  A    between atoms: N_26  and  C_27
REMARK   12  A    between atoms: C_27  and  C_28
REMARK                            x       y       z     vdW  Elec       q    Type
REMARK                         _______ _______ _______ _____ _____    ______ ____
ROOT
ATOM      1  C   UNL     1      47.456   3.542  17.284  0.00  0.00    +0.000 C 
ATOM      2  C   UNL     1      47.682   4.803  16.439  0.00  0.00    +0.000 C 
ENDROOT
BRANCH   2   3
ATOM      3  C   UNL     1      47.098   4.616  15.046  0.00  0.00    +0.000 A 
ATOM      4  C   UNL     1      46.645   5.736  14.330  0.00  0.00    +0.000 A 
ATOM      5  C   UNL     1      46.083   5.589  13.059  0.00  0.00    +0.000 A 
ATOM      6  C   UNL     1      45.968   4.321  12.484  0.00  0.00    +0.000 A 
ATOM      7  C   UNL     1      46.480   3.209  13.165  0.00  0.00    +0.000 A 
ATOM      8  C   UNL     1      47.030   3.353  14.438  0.00  0.00    +0.000 A 
BRANCH   6   9
ATOM      9  C   UNL     1      45.290   4.176  11.164  0.00  0.00    +0.000 C 
ATOM     10  O   UNL     1      44.906   5.166  10.547  0.00  0.00    +0.000 OA
ATOM     11  N   UNL     1      45.094   2.887  10.726  0.00  0.00    +0.000 N 
ATOM     12  H   UNL     1      45.399   2.099  11.279  0.00  0.00    +0.000 HD
BRANCH  11  13
ATOM     13  C   UNL     1      44.481   2.574   9.454  0.00  0.00    +0.000 C 
BRANCH  13  14
ATOM     14  C   UNL     1      45.499   2.382   8.353  0.00  0.00    +0.000 A 
ATOM     15  C   UNL     1      45.719   3.398   7.423  0.00  0.00    +0.000 A 
ATOM     16  C   UNL     1      46.662   3.200   6.418  0.00  0.00    +0.000 A 
ATOM     17  C   UNL     1      47.360   2.000   6.368  0.00  0.00    +0.000 A 
ATOM     18  C   UNL     1      47.090   1.045   7.335  0.00  0.00    +0.000 A 
ATOM     19  N   UNL     1      46.185   1.209   8.325  0.00  0.00    +0.000 NA
ENDBRANCH  13  14
ENDBRANCH  11  13
ENDBRANCH   6   9
ENDBRANCH   2   3
BRANCH   2  20
ATOM     20  N   UNL     1      49.112   5.135  16.428  0.00  0.00    +0.000 NA
ATOM     21  H   UNL     1      49.287   5.914  15.797  0.00  0.00    +0.000 HD
BRANCH  20  22
ATOM     22  C   UNL     1      49.614   5.477  17.758  0.00  0.00    +0.000 C 
BRANCH  22  23
ATOM     23  C   UNL     1      48.914   6.693  18.311  0.00  0.00    +0.000 A 
ATOM     24  C   UNL     1      48.265   6.655  19.552  0.00  0.00    +0.000 A 
ATOM     25  C   UNL     1      47.617   7.787  20.043  0.00  0.00    +0.000 A 
ATOM     26  C   UNL     1      47.642   8.977  19.316  0.00  0.00    +0.000 A 
ATOM     27  C   UNL     1      48.324   9.051  18.093  0.00  0.00    +0.000 A 
ATOM     28  C   UNL     1      48.928   7.894  17.587  0.00  0.00    +0.000 A 
BRANCH  27  29
ATOM     29  C   UNL     1      48.485  10.370  17.370  0.00  0.00    +0.000 C 
BRANCH  29  30
ATOM     30  N   UNL     1      48.067  10.208  15.980  0.00  0.00    +0.000 NA
ATOM     31  H   UNL     1      47.350  10.906  15.776  0.00  0.00    +0.000 HD
BRANCH  30  32
ATOM     32  C   UNL     1      49.172  10.404  15.039  0.00  0.00    +0.000 C 
BRANCH  32  33
ATOM     33  C   UNL     1      49.075   9.446  13.864  0.00  0.00    +0.000 A 
ATOM     34  C   UNL     1      49.661   8.181  13.933  0.00  0.00    +0.000 A 
ATOM     35  C   UNL     1      49.542   7.320  12.846  0.00  0.00    +0.000 A 
ATOM     36  C   UNL     1      48.845   7.741  11.720  0.00  0.00    +0.000 A 
ATOM     37  C   UNL     1      48.291   9.010  11.732  0.00  0.00    +0.000 A 
ATOM     38  N   UNL     1      48.386   9.867  12.772  0.00  0.00    +0.000 NA
ENDBRANCH  32  33
ENDBRANCH  30  32
ENDBRANCH  29  30
ENDBRANCH  27  29
ENDBRANCH  22  23
ENDBRANCH  20  22
ENDBRANCH   2  20
TORSDOF 11
ENDMDL
MODEL 8
REMARK VINA RESULT:    -7.030      3.280     10.618
REMARK INTER + INTRA:         -13.236
REMARK INTER:                 -11.795
REMARK INTRA:                  -1.441
REMARK UNBOUND:                -1.686
REMARK  Name = 
REMARK  12 active torsions:
REMARK  status: ('A' for Active; 'I' for Inactive)
REMARK    1  A    between atoms: C_1  and  C_2
REMARK    2  A    between atoms: C_2  and  N_3
REMARK    3  A    between atoms: C_2  and  C_20
REMARK    4  A    between atoms: N_3  and  C_4
REMARK    5  A    between atoms: C_4  and  C_5
REMARK    6  A    between atoms: C_9  and  C_10
REMARK    7  A    between atoms: C_10  and  N_11
REMARK    8  A    between atoms: N_11  and  C_12
REMARK    9  A    between atoms: C_12  and  C_13
REMARK   10  A    between atoms: C_23  and  C_24
REMARK   11  A    between atoms: N_26  and  C_27
REMARK   12  A    between atoms: C_27  and  C_28
REMARK                            x       y       z     vdW  Elec       q    Type
REMARK                         _______ _______ _______ _____ _____    ______ ____
ROOT
ATOM      1  C   UNL     1      49.405   9.784  11.552  0.00  0.00    +0.000 C 
ATOM      2  C   UNL     1      48.467   8.965  12.448  0.00  0.00    +0.000 C 
ENDROOT
BRANCH   2   3
ATOM      3  C   UNL     1      49.240   8.365  13.613  0.00  0.00    +0.000 A 
ATOM      4  C   UNL     1      50.644   8.320  13.562  0.00  0.00    +0.000 A 
ATOM      5  C   UNL     1      51.376   7.751  14.607  0.00  0.00    +0.000 A 
ATOM      6  C   UNL     1      50.718   7.223  15.721  0.00  0.00    +0.000 A 
ATOM      7  C   UNL     1      49.323   7.327  15.807  0.00  0.00    +0.000 A 
ATOM      8  C   UNL     1      48.591   7.882  14.759  0.00  0.00    +0.000 A 
BRANCH   6   9
ATOM      9  C   UNL     1      51.512   6.546  16.786  0.00  0.00    +0.000 C 
ATOM     10  O   UNL     1      52.707   6.793  16.927  0.00  0.00    +0.000 OA
ATOM     11  N   UNL     1      50.835   5.622  17.547  0.00  0.00    +0.000 N 
ATOM     12  H   UNL     1      49.858   5.427  17.379  0.00  0.00    +0.000 HD
BRANCH  11  13
ATOM     13  C   UNL     1      51.450   4.902  18.640  0.00  0.00    +0.000 C 
BRANCH  13  14
ATOM     14  C   UNL     1      51.846   3.494  18.255  0.00  0.00    +0.000 A 
ATOM     15  C   UNL     1      53.137   3.038  18.518  0.00  0.00    +0.000 A 
ATOM     16  C   UNL     1      53.480   1.738  18.156  0.00  0.00    +0.000 A 
ATOM     17  C   UNL     1      52.529   0.929  17.548  0.00  0.00    +0.000 A 
ATOM     18  C   UNL     1      51.265   1.453  17.330  0.00  0.00    +0.000 A 
ATOM     19  N   UNL     1      50.901   2.710  17.673  0.00  0.00    +0.000 NA
ENDBRANCH  13  14
ENDBRANCH  11  13
ENDBRANCH   6   9
ENDBRANCH   2   3
BRANCH   2  20
ATOM     20  N   UNL     1      47.768   7.960  11.638  0.00  0.00    +0.000 NA
ATOM     21  H   UNL     1      48.273   7.077  11.661  0.00  0.00    +0.000 HD
BRANCH  20  22
ATOM     22  C   UNL     1      46.395   7.737  12.090  0.00  0.00    +0.000 C 
BRANCH  22  23
ATOM     23  C   UNL     1      46.110   6.267  12.268  0.00  0.00    +0.000 A 
ATOM     24  C   UNL     1      46.784   5.509  13.234  0.00  0.00    +0.000 A 
ATOM     25  C   UNL     1      46.512   4.149  13.379  0.00  0.00    +0.000 A 
ATOM     26  C   UNL     1      45.540   3.542  12.584  0.00  0.00    +0.000 A 
ATOM     27  C   UNL     1      44.820   4.291  11.641  0.00  0.00    +0.000 A 
ATOM     28  C   UNL     1      45.138   5.645  11.471  0.00  0.00    +0.000 A 
BRANCH  27  29
ATOM     29  C   UNL     1      43.664   3.681  10.881  0.00  0.00    +0.000 C 
BRANCH  29  30
ATOM     30  N   UNL     1      44.072   3.443   9.499  0.00  0.00    +0.000 NA
ATOM     31  H   UNL     1      44.796   4.120   9.256  0.00  0.00    +0.000 HD
BRANCH  30  32
ATOM     32  C   UNL     1      44.621   2.100   9.303  0.00  0.00    +0.000 C 
BRANCH  32  33
ATOM     33  C   UNL     1      45.715   2.098   8.248  0.00  0.00    +0.000 A 
ATOM     34  C   UNL     1      45.987   3.251   7.510  0.00  0.00    +0.000 A 
ATOM     35  C   UNL     1      47.005   3.223   6.562  0.00  0.00    +0.000 A 
ATOM     36  C   UNL     1      47.723   2.049   6.371  0.00  0.00    +0.000 A 
ATOM     37  C   UNL     1      47.394   0.950   7.145  0.00  0.00    +0.000 A 
ATOM     38  N   UNL     1      46.414   0.946   8.076  0.00  0.00    +0.000 NA
ENDBRANCH  32  33
ENDBRANCH  30  32
ENDBRANCH  29  30
ENDBRANCH  27  29
ENDBRANCH  22  23
ENDBRANCH  20  22
ENDBRANCH   2  20
TORSDOF 11
ENDMDL
MODEL 9
REMARK VINA RESULT:    -6.884      5.346     10.163
REMARK INTER + INTRA:         -12.997
REMARK INTER:                 -11.540
REMARK INTRA:                  -1.457
REMARK UNBOUND:                -1.686
REMARK  Name = 
REMARK  12 active torsions:
REMARK  status: ('A' for Active; 'I' for Inactive)
REMARK    1  A    between atoms: C_1  and  C_2
REMARK    2  A    between atoms: C_2  and  N_3
REMARK    3  A    between atoms: C_2  and  C_20
REMARK    4  A    between atoms: N_3  and  C_4
REMARK    5  A    between atoms: C_4  and  C_5
REMARK    6  A    between atoms: C_9  and  C_10
REMARK    7  A    between atoms: C_10  and  N_11
REMARK    8  A    between atoms: N_11  and  C_12
REMARK    9  A    between atoms: C_12  and  C_13
REMARK   10  A    between atoms: C_23  and  C_24
REMARK   11  A    between atoms: N_26  and  C_27
REMARK   12  A    between atoms: C_27  and  C_28
REMARK                            x       y       z     vdW  Elec       q    Type
REMARK                         _______ _______ _______ _____ _____    ______ ____
ROOT
ATOM      1  C   UNL     1      47.466  11.154  12.880  0.00  0.00    +0.000 C 
ATOM      2  C   UNL     1      46.857   9.947  12.156  0.00  0.00    +0.000 C 
ENDROOT
BRANCH   2   3
ATOM      3  C   UNL     1      45.583  10.354  11.431  0.00  0.00    +0.000 A 
ATOM      4  C   UNL     1      45.548  11.565  10.721  0.00  0.00    +0.000 A 
ATOM      5  C   UNL     1      44.382  11.974  10.067  0.00  0.00    +0.000 A 
ATOM      6  C   UNL     1      43.236  11.175  10.110  0.00  0.00    +0.000 A 
ATOM      7  C   UNL     1      43.287   9.934  10.758  0.00  0.00    +0.000 A 
ATOM      8  C   UNL     1      44.445   9.532  11.422  0.00  0.00    +0.000 A 
BRANCH   6   9
ATOM      9  C   UNL     1      41.979  11.668   9.476  0.00  0.00    +0.000 C 
ATOM     10  O   UNL     1      41.997  12.154   8.348  0.00  0.00    +0.000 OA
ATOM     11  N   UNL     1      40.842  11.578  10.244  0.00  0.00    +0.000 N 
ATOM     12  H   UNL     1      40.876  11.198  11.180  0.00  0.00    +0.000 HD
BRANCH  11  13
ATOM     13  C   UNL     1      39.538  11.982   9.768  0.00  0.00    +0.000 C 
BRANCH  13  14
ATOM     14  C   UNL     1      38.443  11.036  10.208  0.00  0.00    +0.000 A 
ATOM     15  C   UNL     1      38.671  10.148  11.258  0.00  0.00    +0.000 A 
ATOM     16  C   UNL     1      37.649   9.287  11.648  0.00  0.00    +0.000 A 
ATOM     17  C   UNL     1      36.430   9.335  10.984  0.00  0.00    +0.000 A 
ATOM     18  C   UNL     1      36.280  10.252   9.956  0.00  0.00    +0.000 A 
ATOM     19  N   UNL     1      37.251  11.104   9.558  0.00  0.00    +0.000 NA
ENDBRANCH  13  14
ENDBRANCH  11  13
ENDBRANCH   6   9
ENDBRANCH   2   3
BRANCH   2  20
ATOM     20  N   UNL     1      46.654   8.852  13.114  0.00  0.00    +0.000 NA
ATOM     21  H   UNL     1      45.707   8.486  13.033  0.00  0.00    +0.000 HD
BRANCH  20  22
ATOM     22  C   UNL     1      47.606   7.759  12.920  0.00  0.00    +0.000 C 
BRANCH  22  23
ATOM     23  C   UNL     1      46.899   6.431  12.812  0.00  0.00    +0.000 A 
ATOM     24  C   UNL     1      47.168   5.391  13.711  0.00  0.00    +0.000 A 
ATOM     25  C   UNL     1      46.510   4.168  13.591  0.00  0.00    +0.000 A 
ATOM     26  C   UNL     1      45.552   3.985  12.594  0.00  0.00    +0.000 A 
ATOM     27  C   UNL     1      45.233   5.027  11.711  0.00  0.00    +0.000 A 
ATOM     28  C   UNL     1      45.937   6.234  11.811  0.00  0.00    +0.000 A 
BRANCH  27  29
ATOM     29  C   UNL     1      44.094   4.891  10.726  0.00  0.00    +0.000 C 
BRANCH  29  30
ATOM     30  N   UNL     1      44.638   4.602   9.402  0.00  0.00    +0.000 NA
ATOM     31  H   UNL     1      45.649   4.742   9.432  0.00  0.00    +0.000 HD
BRANCH  30  32
ATOM     32  C   UNL     1      44.383   3.222   8.983  0.00  0.00    +0.000 C 
BRANCH  32  33
ATOM     33  C   UNL     1      45.552   2.658   8.194  0.00  0.00    +0.000 A 
ATOM     34  C   UNL     1      46.245   3.461   7.287  0.00  0.00    +0.000 A 
ATOM     35  C   UNL     1      47.322   2.920   6.590  0.00  0.00    +0.000 A 
ATOM     36  C   UNL     1      47.679   1.596   6.813  0.00  0.00    +0.000 A 
ATOM     37  C   UNL     1      46.941   0.867   7.731  0.00  0.00    +0.000 A 
ATOM     38  N   UNL     1      45.894   1.364   8.425  0.00  0.00    +0.000 NA
ENDBRANCH  32  33
ENDBRANCH  30  32
ENDBRANCH  29  30
ENDBRANCH  27  29
ENDBRANCH  22  23
ENDBRANCH  20  22
ENDBRANCH   2  20
TORSDOF 11
ENDMDL
