MODEL 1
REMARK VINA RESULT:    -7.470      0.000      0.000
REMARK INTER + INTRA:         -12.689
REMARK INTER:                 -11.400
REMARK INTRA:                  -1.289
REMARK UNBOUND:                -1.289
REMARK  Name = 
REMARK  10 active torsions:
REMARK  status: ('A' for Active; 'I' for Inactive)
REMARK    1  A    between atoms: C_1  and  O_2
REMARK    2  A    between atoms: O_2  and  C_3
REMARK    3  A    between atoms: C_3  and  C_4
REMARK    4  A    between atoms: C_3  and  C_27
REMARK    5  A    between atoms: C_4  and  N_5
REMARK    6  A    between atoms: N_5  and  C_6
REMARK    7  A    between atoms: C_6  and  C_7
REMARK    8  A    between atoms: C_10  and  C_11
REMARK    9  A    between atoms: C_11  and  N_12
REMARK   10  A    between atoms: C_13  and  C_15
REMARK                            x       y       z     vdW  Elec       q    Type
REMARK                         _______ _______ _______ _____ _____    ______ ____
ROOT
ATOM      1  C   UNL     1      47.120   5.118  14.077  0.00  0.00    +0.000 A 
ATOM      2  C   UNL     1      47.929   6.265  14.160  0.00  0.00    +0.000 A 
ATOM      3  C   UNL     1      48.579   6.612  15.341  0.00  0.00    +0.000 A 
ATOM      4  C   UNL     1      48.466   5.801  16.470  0.00  0.00    +0.000 A 
ATOM      5  C   UNL     1      47.660   4.656  16.404  0.00  0.00    +0.000 A 
ATOM      6  C   UNL     1      46.997   4.315  15.219  0.00  0.00    +0.000 A 
ENDROOT
BRANCH   1   7
ATOM      7  C   UNL     1      46.391   4.734  12.798  0.00  0.00    +0.000 C 
BRANCH   7   8
ATOM      8  N   UNL     1      45.564   3.552  13.003  0.00  0.00    +0.000 NA
ATOM      9  H   UNL     1      46.162   2.731  12.888  0.00  0.00    +0.000 HD
BRANCH   8  10
ATOM     10  C   UNL     1      44.440   3.407  12.074  0.00  0.00    +0.000 C 
BRANCH  10  11
ATOM     11  C   UNL     1      44.528   4.456  10.916  0.00  0.00    +0.000 C 
BRANCH  11  12
ATOM     12  C   UNL     1      45.095   3.800   9.651  0.00  0.00    +0.000 A 
ATOM     13  C   UNL     1      45.169   2.408   9.528  0.00  0.00    +0.000 A 
ATOM     14  C   UNL     1      45.768   1.849   8.402  0.00  0.00    +0.000 A 
ATOM     15  C   UNL     1      46.281   2.686   7.422  0.00  0.00    +0.000 A 
ATOM     16  C   UNL     1      46.166   4.052   7.607  0.00  0.00    +0.000 A 
ATOM     17  N   UNL     1      45.587   4.625   8.688  0.00  0.00    +0.000 NA
ENDBRANCH  11  12
BRANCH  11  19
ATOM     18  C   UNL     1      42.436   5.356  11.714  0.00  0.00    +0.000 C 
ATOM     19  O   UNL     1      43.273   5.093  10.603  0.00  0.00    +0.000 OA
ENDBRANCH  11  19
ENDBRANCH  10  11
ENDBRANCH   8  10
ENDBRANCH   7   8
ENDBRANCH   1   7
BRANCH   4  20
ATOM     20  C   UNL     1      49.153   6.194  17.748  0.00  0.00    +0.000 C 
BRANCH  20  21
ATOM     21  N   UNL     1      50.179   5.241  18.084  0.00  0.00    +0.000 N 
ATOM     22  C   UNL     1      51.458   5.371  17.612  0.00  0.00    +0.000 C 
ATOM     23  O   UNL     1      51.801   6.324  16.916  0.00  0.00    +0.000 OA
ATOM     24  H   UNL     1      49.872   4.361  18.489  0.00  0.00    +0.000 HD
BRANCH  22  25
ATOM     25  C   UNL     1      52.417   4.338  18.027  0.00  0.00    +0.000 A 
ATOM     26  C   UNL     1      53.609   4.717  18.630  0.00  0.00    +0.000 A 
ATOM     27  S   UNL     1      54.585   3.403  19.101  0.00  0.00    +0.000 S 
ATOM     28  C   UNL     1      53.471   2.281  18.471  0.00  0.00    +0.000 A 
ATOM     29  N   UNL     1      53.718   0.945  18.532  0.00  0.00    +0.000 NA
ATOM     30  C   UNL     1      52.806   0.207  17.992  0.00  0.00    +0.000 A 
ATOM     31  N   UNL     1      51.666   0.686  17.400  0.00  0.00    +0.000 N 
ATOM     32  C   UNL     1      51.360   2.026  17.342  0.00  0.00    +0.000 A 
ATOM     33  O   UNL     1      50.317   2.416  16.832  0.00  0.00    +0.000 OA
ATOM     34  C   UNL     1      52.361   2.900  17.925  0.00  0.00    +0.000 A 
ATOM     35  H   UNL     1      50.987   0.057  16.997  0.00  0.00    +0.000 HD
ENDBRANCH  22  25
ENDBRANCH  20  21
ENDBRANCH   4  20
TORSDOF 9
ENDMDL
MODEL 2
REMARK VINA RESULT:    -7.355      3.001      3.931
REMARK INTER + INTRA:         -12.515
REMARK INTER:                 -11.209
REMARK INTRA:                  -1.306
REMARK UNBOUND:                -1.289
REMARK  Name = 
REMARK  10 active torsions:
REMARK  status: ('A' for Active; 'I' for Inactive)
REMARK    1  A    between atoms: C_1  and  O_2
REMARK    2  A    between atoms: O_2  and  C_3
REMARK    3  A    between atoms: C_3  and  C_4
REMARK    4  A    between atoms: C_3  and  C_27
REMARK    5  A    between atoms: C_4  and  N_5
REMARK    6  A    between atoms: N_5  and  C_6
REMARK    7  A    between atoms: C_6  and  C_7
REMARK    8  A    between atoms: C_10  and  C_11
REMARK    9  A    between atoms: C_11  and  N_12
REMARK   10  A    between atoms: C_13  and  C_15
REMARK                            x       y       z     vdW  Elec       q    Type
REMARK                         _______ _______ _______ _____ _____    ______ ____
ROOT
ATOM      1  C   UNL     1      44.712   4.147  12.353  0.00  0.00    +0.000 A 
ATOM      2  C   UNL     1      44.279   5.484  12.339  0.00  0.00    +0.000 A 
ATOM      3  C   UNL     1      45.108   6.521  12.762  0.00  0.00    +0.000 A 
ATOM      4  C   UNL     1      46.410   6.253  13.182  0.00  0.00    +0.000 A 
ATOM      5  C   UNL     1      46.855   4.924  13.205  0.00  0.00    +0.000 A 
ATOM      6  C   UNL     1      46.017   3.882  12.791  0.00  0.00    +0.000 A 
ENDROOT
BRANCH   1   7
ATOM      7  C   UNL     1      43.815   3.002  11.907  0.00  0.00    +0.000 C 
BRANCH   7   8
ATOM      8  N   UNL     1      43.467   3.130  10.498  0.00  0.00    +0.000 NA
ATOM      9  H   UNL     1      42.506   2.798  10.385  0.00  0.00    +0.000 HD
BRANCH   8  10
ATOM     10  C   UNL     1      44.305   2.360   9.575  0.00  0.00    +0.000 C 
BRANCH  10  11
ATOM     11  C   UNL     1      45.512   3.215   9.063  0.00  0.00    +0.000 C 
BRANCH  11  12
ATOM     12  C   UNL     1      46.205   2.503   7.895  0.00  0.00    +0.000 A 
ATOM     13  C   UNL     1      46.412   3.150   6.672  0.00  0.00    +0.000 A 
ATOM     14  C   UNL     1      46.968   2.445   5.607  0.00  0.00    +0.000 A 
ATOM     15  C   UNL     1      47.306   1.111   5.782  0.00  0.00    +0.000 A 
ATOM     16  C   UNL     1      47.080   0.539   7.021  0.00  0.00    +0.000 A 
ATOM     17  N   UNL     1      46.545   1.198   8.075  0.00  0.00    +0.000 NA
ENDBRANCH  11  12
BRANCH  11  19
ATOM     18  C   UNL     1      45.967   5.581   9.200  0.00  0.00    +0.000 C 
ATOM     19  O   UNL     1      45.155   4.554   8.663  0.00  0.00    +0.000 OA
ENDBRANCH  11  19
ENDBRANCH  10  11
ENDBRANCH   8  10
ENDBRANCH   7   8
ENDBRANCH   1   7
BRANCH   4  20
ATOM     20  C   UNL     1      47.290   7.375  13.659  0.00  0.00    +0.000 C 
BRANCH  20  21
ATOM     21  N   UNL     1      47.824   7.079  14.963  0.00  0.00    +0.000 N 
ATOM     22  C   UNL     1      49.171   6.938  15.168  0.00  0.00    +0.000 C 
ATOM     23  O   UNL     1      49.987   7.095  14.264  0.00  0.00    +0.000 OA
ATOM     24  H   UNL     1      47.165   6.760  15.667  0.00  0.00    +0.000 HD
BRANCH  22  25
ATOM     25  C   UNL     1      49.596   6.642  16.544  0.00  0.00    +0.000 A 
ATOM     26  C   UNL     1      50.641   7.362  17.105  0.00  0.00    +0.000 A 
ATOM     27  S   UNL     1      50.975   6.936  18.720  0.00  0.00    +0.000 S 
ATOM     28  C   UNL     1      49.764   5.740  18.711  0.00  0.00    +0.000 A 
ATOM     29  N   UNL     1      49.537   4.971  19.809  0.00  0.00    +0.000 NA
ATOM     30  C   UNL     1      48.612   4.082  19.659  0.00  0.00    +0.000 A 
ATOM     31  N   UNL     1      47.889   3.898  18.508  0.00  0.00    +0.000 N 
ATOM     32  C   UNL     1      48.064   4.671  17.384  0.00  0.00    +0.000 A 
ATOM     33  O   UNL     1      47.378   4.498  16.384  0.00  0.00    +0.000 OA
ATOM     34  C   UNL     1      49.103   5.677  17.498  0.00  0.00    +0.000 A 
ATOM     35  H   UNL     1      47.175   3.187  18.452  0.00  0.00    +0.000 HD
ENDBRANCH  22  25
ENDBRANCH  20  21
ENDBRANCH   4  20
TORSDOF 9
ENDMDL
MODEL 3
REMARK VINA RESULT:    -7.213      3.095      3.761
REMARK INTER + INTRA:         -12.298
REMARK INTER:                 -10.753
REMARK INTRA:                  -1.545
REMARK UNBOUND:                -1.289
REMARK  Name = 
REMARK  10 active torsions:
REMARK  status: ('A' for Active; 'I' for Inactive)
REMARK    1  A    between atoms: C_1  and  O_2
REMARK    2  A    between atoms: O_2  and  C_3
REMARK    3  A    between atoms: C_3  and  C_4
REMARK    4  A    between atoms: C_3  and  C_27
REMARK    5  A    between atoms: C_4  and  N_5
REMARK    6  A    between atoms: N_5  and  C_6
REMARK    7  A    between atoms: C_6  and  C_7
REMARK    8  A    between atoms: C_10  and  C_11
REMARK    9  A    between atoms: C_11  and  N_12
REMARK   10  A    between atoms: C_13  and  C_15
REMARK                            x       y       z     vdW  Elec       q    Type
REMARK                         _______ _______ _______ _____ _____    ______ ____
ROOT
ATOM      1  C   UNL     1      45.683   7.107  12.044  0.00  0.00    +0.000 A 
ATOM      2  C   UNL     1      45.756   8.366  12.665  0.00  0.00    +0.000 A 
ATOM      3  C   UNL     1      46.898   8.775  13.350  0.00  0.00    +0.000 A 
ATOM      4  C   UNL     1      48.018   7.946  13.405  0.00  0.00    +0.000 A 
ATOM      5  C   UNL     1      47.960   6.686  12.793  0.00  0.00    +0.000 A 
ATOM      6  C   UNL     1      46.806   6.272  12.116  0.00  0.00    +0.000 A 
ENDROOT
BRANCH   1   7
ATOM      7  C   UNL     1      44.437   6.641  11.305  0.00  0.00    +0.000 C 
BRANCH   7   8
ATOM      8  N   UNL     1      44.785   5.747  10.208  0.00  0.00    +0.000 NA
ATOM      9  H   UNL     1      44.981   6.325   9.389  0.00  0.00    +0.000 HD
BRANCH   8  10
ATOM     10  C   UNL     1      43.742   4.790   9.828  0.00  0.00    +0.000 C 
BRANCH  10  11
ATOM     11  C   UNL     1      44.260   3.317   9.945  0.00  0.00    +0.000 C 
BRANCH  11  12
ATOM     12  C   UNL     1      45.235   3.008   8.803  0.00  0.00    +0.000 A 
ATOM     13  C   UNL     1      45.769   1.726   8.633  0.00  0.00    +0.000 A 
ATOM     14  C   UNL     1      46.716   1.503   7.637  0.00  0.00    +0.000 A 
ATOM     15  C   UNL     1      47.113   2.559   6.831  0.00  0.00    +0.000 A 
ATOM     16  C   UNL     1      46.538   3.798   7.052  0.00  0.00    +0.000 A 
ATOM     17  N   UNL     1      45.613   4.046   8.008  0.00  0.00    +0.000 NA
ENDBRANCH  11  12
BRANCH  11  19
ATOM     18  C   UNL     1      44.035   3.064  12.335  0.00  0.00    +0.000 C 
ATOM     19  O   UNL     1      44.889   3.014  11.207  0.00  0.00    +0.000 OA
ENDBRANCH  11  19
ENDBRANCH  10  11
ENDBRANCH   8  10
ENDBRANCH   7   8
ENDBRANCH   1   7
BRANCH   4  20
ATOM     20  C   UNL     1      49.239   8.384  14.164  0.00  0.00    +0.000 C 
BRANCH  20  21
ATOM     21  N   UNL     1      49.357   7.652  15.398  0.00  0.00    +0.000 N 
ATOM     22  C   UNL     1      48.783   8.106  16.555  0.00  0.00    +0.000 C 
ATOM     23  O   UNL     1      48.109   9.132  16.589  0.00  0.00    +0.000 OA
ATOM     24  H   UNL     1      50.059   6.918  15.431  0.00  0.00    +0.000 HD
BRANCH  22  25
ATOM     25  C   UNL     1      48.968   7.268  17.749  0.00  0.00    +0.000 A 
ATOM     26  C   UNL     1      49.411   7.851  18.929  0.00  0.00    +0.000 A 
ATOM     27  S   UNL     1      49.523   6.758  20.231  0.00  0.00    +0.000 S 
ATOM     28  C   UNL     1      49.027   5.457  19.251  0.00  0.00    +0.000 A 
ATOM     29  N   UNL     1      48.931   4.200  19.760  0.00  0.00    +0.000 NA
ATOM     30  C   UNL     1      48.573   3.302  18.904  0.00  0.00    +0.000 A 
ATOM     31  N   UNL     1      48.299   3.551  17.584  0.00  0.00    +0.000 N 
ATOM     32  C   UNL     1      48.354   4.810  17.033  0.00  0.00    +0.000 A 
ATOM     33  O   UNL     1      48.072   4.999  15.856  0.00  0.00    +0.000 OA
ATOM     34  C   UNL     1      48.765   5.854  17.953  0.00  0.00    +0.000 A 
ATOM     35  H   UNL     1      48.021   2.806  16.963  0.00  0.00    +0.000 HD
ENDBRANCH  22  25
ENDBRANCH  20  21
ENDBRANCH   4  20
TORSDOF 9
ENDMDL
MODEL 4
REMARK VINA RESULT:    -7.089      1.631      2.239
REMARK INTER + INTRA:         -12.108
REMARK INTER:                 -11.137
REMARK INTRA:                  -0.971
REMARK UNBOUND:                -1.289
REMARK  Name = 
REMARK  10 active torsions:
REMARK  status: ('A' for Active; 'I' for Inactive)
REMARK    1  A    between atoms: C_1  and  O_2
REMARK    2  A    between atoms: O_2  and  C_3
REMARK    3  A    between atoms: C_3  and  C_4
REMARK    4  A    between atoms: C_3  and  C_27
REMARK    5  A    between atoms: C_4  and  N_5
REMARK    6  A    between atoms: N_5  and  C_6
REMARK    7  A    between atoms: C_6  and  C_7
REMARK    8  A    between atoms: C_10  and  C_11
REMARK    9  A    between atoms: C_11  and  N_12
REMARK   10  A    between atoms: C_13  and  C_15
REMARK                            x       y       z     vdW  Elec       q    Type
REMARK                         _______ _______ _______ _____ _____    ______ ____
ROOT
ATOM      1  C   UNL     1      46.675   5.849  12.518  0.00  0.00    +0.000 A 
ATOM      2  C   UNL     1      45.944   4.748  13.000  0.00  0.00    +0.000 A 
ATOM      3  C   UNL     1      46.162   4.233  14.276  0.00  0.00    +0.000 A 
ATOM      4  C   UNL     1      47.099   4.826  15.122  0.00  0.00    +0.000 A 
ATOM      5  C   UNL     1      47.838   5.922  14.654  0.00  0.00    +0.000 A 
ATOM      6  C   UNL     1      47.625   6.431  13.367  0.00  0.00    +0.000 A 
ENDROOT
BRANCH   1   7
ATOM      7  C   UNL     1      46.458   6.414  11.122  0.00  0.00    +0.000 C 
BRANCH   7   8
ATOM      8  N   UNL     1      45.296   5.805  10.488  0.00  0.00    +0.000 NA
ATOM      9  H   UNL     1      44.943   5.082  11.118  0.00  0.00    +0.000 HD
BRANCH   8  10
ATOM     10  C   UNL     1      45.552   5.169   9.193  0.00  0.00    +0.000 C 
BRANCH  10  11
ATOM     11  C   UNL     1      45.006   3.702   9.168  0.00  0.00    +0.000 C 
BRANCH  11  12
ATOM     12  C   UNL     1      45.870   2.833   8.247  0.00  0.00    +0.000 A 
ATOM     13  C   UNL     1      45.903   1.441   8.385  0.00  0.00    +0.000 A 
ATOM     14  C   UNL     1      46.763   0.692   7.588  0.00  0.00    +0.000 A 
ATOM     15  C   UNL     1      47.575   1.342   6.670  0.00  0.00    +0.000 A 
ATOM     16  C   UNL     1      47.484   2.720   6.583  0.00  0.00    +0.000 A 
ATOM     17  N   UNL     1      46.656   3.476   7.341  0.00  0.00    +0.000 NA
ENDBRANCH  11  12
BRANCH  11  19
ATOM     18  C   UNL     1      43.608   2.908  10.968  0.00  0.00    +0.000 C 
ATOM     19  O   UNL     1      44.921   3.085  10.469  0.00  0.00    +0.000 OA
ENDBRANCH  11  19
ENDBRANCH  10  11
ENDBRANCH   8  10
ENDBRANCH   7   8
ENDBRANCH   1   7
BRANCH   4  20
ATOM     20  C   UNL     1      47.344   4.250  16.489  0.00  0.00    +0.000 C 
BRANCH  20  21
ATOM     21  N   UNL     1      48.751   4.019  16.695  0.00  0.00    +0.000 N 
ATOM     22  C   UNL     1      49.418   4.574  17.754  0.00  0.00    +0.000 C 
ATOM     23  O   UNL     1      48.845   5.258  18.599  0.00  0.00    +0.000 OA
ATOM     24  H   UNL     1      49.269   3.625  15.915  0.00  0.00    +0.000 HD
BRANCH  22  25
ATOM     25  C   UNL     1      50.850   4.261  17.861  0.00  0.00    +0.000 A 
ATOM     26  C   UNL     1      51.746   5.270  18.186  0.00  0.00    +0.000 A 
ATOM     27  S   UNL     1      53.358   4.735  18.323  0.00  0.00    +0.000 S 
ATOM     28  C   UNL     1      52.922   3.144  17.905  0.00  0.00    +0.000 A 
ATOM     29  N   UNL     1      53.861   2.165  17.818  0.00  0.00    +0.000 NA
ATOM     30  C   UNL     1      53.400   1.012  17.463  0.00  0.00    +0.000 A 
ATOM     31  N   UNL     1      52.082   0.749  17.193  0.00  0.00    +0.000 N 
ATOM     32  C   UNL     1      51.094   1.700  17.298  0.00  0.00    +0.000 A 
ATOM     33  O   UNL     1      49.922   1.422  17.078  0.00  0.00    +0.000 OA
ATOM     34  C   UNL     1      51.563   3.019  17.680  0.00  0.00    +0.000 A 
ATOM     35  H   UNL     1      51.782  -0.176  16.923  0.00  0.00    +0.000 HD
ENDBRANCH  22  25
ENDBRANCH  20  21
ENDBRANCH   4  20
TORSDOF 9
ENDMDL
MODEL 5
REMARK VINA RESULT:    -7.079      4.251      9.189
REMARK INTER + INTRA:         -12.093
REMARK INTER:                  -9.393
REMARK INTRA:                  -2.700
REMARK UNBOUND:                -1.289
REMARK  Name = 
REMARK  10 active torsions:
REMARK  status: ('A' for Active; 'I' for Inactive)
REMARK    1  A    between atoms: C_1  and  O_2
REMARK    2  A    between atoms: O_2  and  C_3
REMARK    3  A    between atoms: C_3  and  C_4
REMARK    4  A    between atoms: C_3  and  C_27
REMARK    5  A    between atoms: C_4  and  N_5
REMARK    6  A    between atoms: N_5  and  C_6
REMARK    7  A    between atoms: C_6  and  C_7
REMARK    8  A    between atoms: C_10  and  C_11
REMARK    9  A    between atoms: C_11  and  N_12
REMARK   10  A    between atoms: C_13  and  C_15
REMARK                            x       y       z     vdW  Elec       q    Type
REMARK                         _______ _______ _______ _____ _____    ______ ____
ROOT
ATOM      1  C   UNL     1      48.481   5.610  20.183  0.00  0.00    +0.000 A 
ATOM      2  C   UNL     1      47.308   5.886  19.458  0.00  0.00    +0.000 A 
ATOM      3  C   UNL     1      47.038   5.256  18.245  0.00  0.00    +0.000 A 
ATOM      4  C   UNL     1      47.921   4.303  17.737  0.00  0.00    +0.000 A 
ATOM      5  C   UNL     1      49.096   4.020  18.446  0.00  0.00    +0.000 A 
ATOM      6  C   UNL     1      49.372   4.663  19.659  0.00  0.00    +0.000 A 
ENDROOT
BRANCH   1   7
ATOM      7  C   UNL     1      48.797   6.301  21.501  0.00  0.00    +0.000 C 
BRANCH   7   8
ATOM      8  N   UNL     1      48.654   7.746  21.381  0.00  0.00    +0.000 NA
ATOM      9  H   UNL     1      47.798   7.929  20.853  0.00  0.00    +0.000 HD
BRANCH   8  10
ATOM     10  C   UNL     1      49.749   8.426  20.685  0.00  0.00    +0.000 C 
BRANCH  10  11
ATOM     11  C   UNL     1      49.225   9.195  19.426  0.00  0.00    +0.000 C 
BRANCH  11  12
ATOM     12  C   UNL     1      49.545   8.402  18.153  0.00  0.00    +0.000 A 
ATOM     13  C   UNL     1      48.654   8.373  17.074  0.00  0.00    +0.000 A 
ATOM     14  C   UNL     1      48.938   7.575  15.970  0.00  0.00    +0.000 A 
ATOM     15  C   UNL     1      50.103   6.821  15.961  0.00  0.00    +0.000 A 
ATOM     16  C   UNL     1      50.941   6.905  17.059  0.00  0.00    +0.000 A 
ATOM     17  N   UNL     1      50.694   7.674  18.145  0.00  0.00    +0.000 NA
ENDBRANCH  11  12
BRANCH  11  19
ATOM     18  C   UNL     1      47.489  10.854  19.666  0.00  0.00    +0.000 C 
ATOM     19  O   UNL     1      47.814   9.491  19.464  0.00  0.00    +0.000 OA
ENDBRANCH  11  19
ENDBRANCH  10  11
ENDBRANCH   8  10
ENDBRANCH   7   8
ENDBRANCH   1   7
BRANCH   4  20
ATOM     20  C   UNL     1      47.633   3.644  16.417  0.00  0.00    +0.000 C 
BRANCH  20  21
ATOM     21  N   UNL     1      46.980   4.565  15.523  0.00  0.00    +0.000 N 
ATOM     22  C   UNL     1      46.785   4.262  14.202  0.00  0.00    +0.000 C 
ATOM     23  O   UNL     1      47.118   3.180  13.726  0.00  0.00    +0.000 OA
ATOM     24  H   UNL     1      46.876   5.522  15.847  0.00  0.00    +0.000 HD
BRANCH  22  25
ATOM     25  C   UNL     1      46.103   5.281  13.391  0.00  0.00    +0.000 A 
ATOM     26  C   UNL     1      46.744   6.483  13.126  0.00  0.00    +0.000 A 
ATOM     27  S   UNL     1      45.845   7.532  12.130  0.00  0.00    +0.000 S 
ATOM     28  C   UNL     1      44.545   6.436  12.058  0.00  0.00    +0.000 A 
ATOM     29  N   UNL     1      43.416   6.739  11.363  0.00  0.00    +0.000 NA
ATOM     30  C   UNL     1      42.496   5.834  11.415  0.00  0.00    +0.000 A 
ATOM     31  N   UNL     1      42.608   4.648  12.095  0.00  0.00    +0.000 N 
ATOM     32  C   UNL     1      43.741   4.287  12.785  0.00  0.00    +0.000 A 
ATOM     33  O   UNL     1      43.816   3.206  13.357  0.00  0.00    +0.000 OA
ATOM     34  C   UNL     1      44.800   5.278  12.770  0.00  0.00    +0.000 A 
ATOM     35  H   UNL     1      41.854   3.978  12.095  0.00  0.00    +0.000 HD
ENDBRANCH  22  25
ENDBRANCH  20  21
ENDBRANCH   4  20
TORSDOF 9
ENDMDL
MODEL 6
REMARK VINA RESULT:    -7.015      2.876      3.302
REMARK INTER + INTRA:         -11.995
REMARK INTER:                 -10.676
REMARK INTRA:                  -1.319
REMARK UNBOUND:                -1.289
REMARK  Name = 
REMARK  10 active torsions:
REMARK  status: ('A' for Active; 'I' for Inactive)
REMARK    1  A    between atoms: C_1  and  O_2
REMARK    2  A    between atoms: O_2  and  C_3
REMARK    3  A    between atoms: C_3  and  C_4
REMARK    4  A    between atoms: C_3  and  C_27
REMARK    5  A    between atoms: C_4  and  N_5
REMARK    6  A    between atoms: N_5  and  C_6
REMARK    7  A    between atoms: C_6  and  C_7
REMARK    8  A    between atoms: C_10  and  C_11
REMARK    9  A    between atoms: C_11  and  N_12
REMARK   10  A    between atoms: C_13  and  C_15
REMARK                            x       y       z     vdW  Elec       q    Type
REMARK                         _______ _______ _______ _____ _____    ______ ____
ROOT
ATOM      1  C   UNL     1      46.454   7.480  12.064  0.00  0.00    +0.000 A 
ATOM      2  C   UNL     1      47.649   7.167  11.393  0.00  0.00    +0.000 A 
ATOM      3  C   UNL     1      48.889   7.314  12.010  0.00  0.00    +0.000 A 
ATOM      4  C   UNL     1      48.968   7.750  13.333  0.00  0.00    +0.000 A 
ATOM      5  C   UNL     1      47.785   8.069  14.014  0.00  0.00    +0.000 A 
ATOM      6  C   UNL     1      46.540   7.932  13.387  0.00  0.00    +0.000 A 
ENDROOT
BRANCH   1   7
ATOM      7  C   UNL     1      45.093   7.338  11.398  0.00  0.00    +0.000 C 
BRANCH   7   8
ATOM      8  N   UNL     1      45.085   6.223  10.460  0.00  0.00    +0.000 NA
ATOM      9  H   UNL     1      44.325   6.384   9.795  0.00  0.00    +0.000 HD
BRANCH   8  10
ATOM     10  C   UNL     1      44.867   4.904  11.060  0.00  0.00    +0.000 C 
BRANCH  10  11
ATOM     11  C   UNL     1      44.096   3.960  10.077  0.00  0.00    +0.000 C 
BRANCH  11  12
ATOM     12  C   UNL     1      45.055   3.406   9.016  0.00  0.00    +0.000 A 
ATOM     13  C   UNL     1      45.353   2.041   8.950  0.00  0.00    +0.000 A 
ATOM     14  C   UNL     1      46.293   1.586   8.029  0.00  0.00    +0.000 A 
ATOM     15  C   UNL     1      46.917   2.499   7.192  0.00  0.00    +0.000 A 
ATOM     16  C   UNL     1      46.568   3.833   7.308  0.00  0.00    +0.000 A 
ATOM     17  N   UNL     1      45.656   4.305   8.190  0.00  0.00    +0.000 NA
ENDBRANCH  11  12
BRANCH  11  19
ATOM     18  C   UNL     1      43.483   2.867  12.140  0.00  0.00    +0.000 C 
ATOM     19  O   UNL     1      43.416   2.866  10.726  0.00  0.00    +0.000 OA
ENDBRANCH  11  19
ENDBRANCH  10  11
ENDBRANCH   8  10
ENDBRANCH   7   8
ENDBRANCH   1   7
BRANCH   4  20
ATOM     20  C   UNL     1      50.311   7.927  13.985  0.00  0.00    +0.000 C 
BRANCH  20  21
ATOM     21  N   UNL     1      50.264   7.507  15.362  0.00  0.00    +0.000 N 
ATOM     22  C   UNL     1      51.387   7.073  16.015  0.00  0.00    +0.000 C 
ATOM     23  O   UNL     1      52.490   7.058  15.475  0.00  0.00    +0.000 OA
ATOM     24  H   UNL     1      49.344   7.332  15.756  0.00  0.00    +0.000 HD
BRANCH  22  25
ATOM     25  C   UNL     1      51.213   6.676  17.420  0.00  0.00    +0.000 A 
ATOM     26  C   UNL     1      52.067   7.192  18.385  0.00  0.00    +0.000 A 
ATOM     27  S   UNL     1      51.701   6.677  19.967  0.00  0.00    +0.000 S 
ATOM     28  C   UNL     1      50.417   5.708  19.412  0.00  0.00    +0.000 A 
ATOM     29  N   UNL     1      49.681   4.964  20.280  0.00  0.00    +0.000 NA
ATOM     30  C   UNL     1      48.758   4.252  19.725  0.00  0.00    +0.000 A 
ATOM     31  N   UNL     1      48.501   4.222  18.378  0.00  0.00    +0.000 N 
ATOM     32  C   UNL     1      49.200   4.979  17.467  0.00  0.00    +0.000 A 
ATOM     33  O   UNL     1      48.923   4.950  16.274  0.00  0.00    +0.000 OA
ATOM     34  C   UNL     1      50.259   5.788  18.040  0.00  0.00    +0.000 A 
ATOM     35  H   UNL     1      47.762   3.646  18.004  0.00  0.00    +0.000 HD
ENDBRANCH  22  25
ENDBRANCH  20  21
ENDBRANCH   4  20
TORSDOF 9
ENDMDL
MODEL 7
REMARK VINA RESULT:    -6.807      3.661      9.147
REMARK INTER + INTRA:         -11.678
REMARK INTER:                  -9.802
REMARK INTRA:                  -1.877
REMARK UNBOUND:                -1.289
REMARK  Name = 
REMARK  10 active torsions:
REMARK  status: ('A' for Active; 'I' for Inactive)
REMARK    1  A    between atoms: C_1  and  O_2
REMARK    2  A    between atoms: O_2  and  C_3
REMARK    3  A    between atoms: C_3  and  C_4
REMARK    4  A    between atoms: C_3  and  C_27
REMARK    5  A    between atoms: C_4  and  N_5
REMARK    6  A    between atoms: N_5  and  C_6
REMARK    7  A    between atoms: C_6  and  C_7
REMARK    8  A    between atoms: C_10  and  C_11
REMARK    9  A    between atoms: C_11  and  N_12
REMARK   10  A    between atoms: C_13  and  C_15
REMARK                            x       y       z     vdW  Elec       q    Type
REMARK                         _______ _______ _______ _____ _____    ______ ____
ROOT
ATOM      1  C   UNL     1      49.027   8.513  15.918  0.00  0.00    +0.000 A 
ATOM      2  C   UNL     1      48.828   9.587  15.033  0.00  0.00    +0.000 A 
ATOM      3  C   UNL     1      48.456   9.378  13.707  0.00  0.00    +0.000 A 
ATOM      4  C   UNL     1      48.240   8.084  13.234  0.00  0.00    +0.000 A 
ATOM      5  C   UNL     1      48.438   7.002  14.104  0.00  0.00    +0.000 A 
ATOM      6  C   UNL     1      48.823   7.214  15.433  0.00  0.00    +0.000 A 
ENDROOT
BRANCH   1   7
ATOM      7  C   UNL     1      49.447   8.725  17.365  0.00  0.00    +0.000 C 
BRANCH   7   8
ATOM      8  N   UNL     1      49.897   7.477  17.966  0.00  0.00    +0.000 NA
ATOM      9  H   UNL     1      49.698   6.725  17.303  0.00  0.00    +0.000 HD
BRANCH   8  10
ATOM     10  C   UNL     1      49.251   7.124  19.233  0.00  0.00    +0.000 C 
BRANCH  10  11
ATOM     11  C   UNL     1      47.935   6.313  18.987  0.00  0.00    +0.000 C 
BRANCH  11  12
ATOM     12  C   UNL     1      48.244   5.027  18.210  0.00  0.00    +0.000 A 
ATOM     13  C   UNL     1      47.258   4.380  17.457  0.00  0.00    +0.000 A 
ATOM     14  C   UNL     1      47.553   3.170  16.835  0.00  0.00    +0.000 A 
ATOM     15  C   UNL     1      48.822   2.627  16.976  0.00  0.00    +0.000 A 
ATOM     16  C   UNL     1      49.748   3.326  17.730  0.00  0.00    +0.000 A 
ATOM     17  N   UNL     1      49.494   4.505  18.343  0.00  0.00    +0.000 NA
ENDBRANCH  11  12
BRANCH  11  19
ATOM     18  C   UNL     1      47.924   6.195  21.397  0.00  0.00    +0.000 C 
ATOM     19  O   UNL     1      47.214   5.983  20.191  0.00  0.00    +0.000 OA
ENDBRANCH  11  19
ENDBRANCH  10  11
ENDBRANCH   8  10
ENDBRANCH   7   8
ENDBRANCH   1   7
BRANCH   4  20
ATOM     20  C   UNL     1      47.860   7.864  11.796  0.00  0.00    +0.000 C 
BRANCH  20  21
ATOM     21  N   UNL     1      47.116   6.640  11.651  0.00  0.00    +0.000 N 
ATOM     22  C   UNL     1      45.749   6.620  11.744  0.00  0.00    +0.000 C 
ATOM     23  O   UNL     1      45.093   7.645  11.915  0.00  0.00    +0.000 OA
ATOM     24  H   UNL     1      47.643   5.774  11.704  0.00  0.00    +0.000 HD
BRANCH  22  25
ATOM     25  C   UNL     1      45.101   5.312  11.574  0.00  0.00    +0.000 A 
ATOM     26  C   UNL     1      44.427   4.740  12.644  0.00  0.00    +0.000 A 
ATOM     27  S   UNL     1      43.688   3.252  12.269  0.00  0.00    +0.000 S 
ATOM     28  C   UNL     1      44.283   3.296  10.676  0.00  0.00    +0.000 A 
ATOM     29  N   UNL     1      44.023   2.283   9.807  0.00  0.00    +0.000 NA
ATOM     30  C   UNL     1      44.558   2.427   8.640  0.00  0.00    +0.000 A 
ATOM     31  N   UNL     1      45.327   3.498   8.263  0.00  0.00    +0.000 N 
ATOM     32  C   UNL     1      45.591   4.559   9.098  0.00  0.00    +0.000 A 
ATOM     33  O   UNL     1      46.257   5.514   8.717  0.00  0.00    +0.000 OA
ATOM     34  C   UNL     1      45.022   4.438  10.427  0.00  0.00    +0.000 A 
ATOM     35  H   UNL     1      45.716   3.556   7.334  0.00  0.00    +0.000 HD
ENDBRANCH  22  25
ENDBRANCH  20  21
ENDBRANCH   4  20
TORSDOF 9
ENDMDL
MODEL 8
REMARK VINA RESULT:    -6.575      3.602      4.991
REMARK INTER + INTRA:         -11.324
REMARK INTER:                 -10.960
REMARK INTRA:                  -0.363
REMARK UNBOUND:                -1.289
REMARK  Name = 
REMARK  10 active torsions:
REMARK  status: ('A' for Active; 'I' for Inactive)
REMARK    1  A    between atoms: C_1  and  O_2
REMARK    2  A    between atoms: O_2  and  C_3
REMARK    3  A    between atoms: C_3  and  C_4
REMARK    4  A    between atoms: C_3  and  C_27
REMARK    5  A    between atoms: C_4  and  N_5
REMARK    6  A    between atoms: N_5  and  C_6
REMARK    7  A    between atoms: C_6  and  C_7
REMARK    8  A    between atoms: C_10  and  C_11
REMARK    9  A    between atoms: C_11  and  N_12
REMARK   10  A    between atoms: C_13  and  C_15
REMARK                            x       y       z     vdW  Elec       q    Type
REMARK                         _______ _______ _______ _____ _____    ______ ____
ROOT
ATOM      1  C   UNL     1      45.988   7.773  12.054  0.00  0.00    +0.000 A 
ATOM      2  C   UNL     1      46.984   6.838  11.723  0.00  0.00    +0.000 A 
ATOM      3  C   UNL     1      48.151   6.721  12.474  0.00  0.00    +0.000 A 
ATOM      4  C   UNL     1      48.342   7.517  13.603  0.00  0.00    +0.000 A 
ATOM      5  C   UNL     1      47.359   8.457  13.945  0.00  0.00    +0.000 A 
ATOM      6  C   UNL     1      46.192   8.581  13.181  0.00  0.00    +0.000 A 
ENDROOT
BRANCH   1   7
ATOM      7  C   UNL     1      44.715   7.922  11.235  0.00  0.00    +0.000 C 
BRANCH   7   8
ATOM      8  N   UNL     1      43.823   6.788  11.445  0.00  0.00    +0.000 NA
ATOM      9  H   UNL     1      43.374   6.913  12.355  0.00  0.00    +0.000 HD
BRANCH   8  10
ATOM     10  C   UNL     1      44.473   5.475  11.456  0.00  0.00    +0.000 C 
BRANCH  10  11
ATOM     11  C   UNL     1      43.709   4.461  10.541  0.00  0.00    +0.000 C 
BRANCH  11  12
ATOM     12  C   UNL     1      44.683   3.797   9.560  0.00  0.00    +0.000 A 
ATOM     13  C   UNL     1      45.476   4.560   8.697  0.00  0.00    +0.000 A 
ATOM     14  C   UNL     1      46.286   3.921   7.762  0.00  0.00    +0.000 A 
ATOM     15  C   UNL     1      46.290   2.535   7.704  0.00  0.00    +0.000 A 
ATOM     16  C   UNL     1      45.486   1.844   8.594  0.00  0.00    +0.000 A 
ATOM     17  N   UNL     1      44.691   2.436   9.516  0.00  0.00    +0.000 NA
ENDBRANCH  11  12
BRANCH  11  19
ATOM     18  C   UNL     1      43.496   3.146  12.553  0.00  0.00    +0.000 C 
ATOM     19  O   UNL     1      42.990   3.443  11.265  0.00  0.00    +0.000 OA
ENDBRANCH  11  19
ENDBRANCH  10  11
ENDBRANCH   8  10
ENDBRANCH   7   8
ENDBRANCH   1   7
BRANCH   4  20
ATOM     20  C   UNL     1      49.614   7.401  14.397  0.00  0.00    +0.000 C 
BRANCH  20  21
ATOM     21  N   UNL     1      49.327   7.344  15.806  0.00  0.00    +0.000 N 
ATOM     22  C   UNL     1      48.767   6.232  16.376  0.00  0.00    +0.000 C 
ATOM     23  O   UNL     1      48.521   5.220  15.725  0.00  0.00    +0.000 OA
ATOM     24  H   UNL     1      49.343   8.224  16.314  0.00  0.00    +0.000 HD
BRANCH  22  25
ATOM     25  C   UNL     1      48.525   6.290  17.825  0.00  0.00    +0.000 A 
ATOM     26  C   UNL     1      48.715   5.151  18.595  0.00  0.00    +0.000 A 
ATOM     27  S   UNL     1      48.446   5.398  20.259  0.00  0.00    +0.000 S 
ATOM     28  C   UNL     1      48.019   7.025  20.003  0.00  0.00    +0.000 A 
ATOM     29  N   UNL     1      47.650   7.820  21.042  0.00  0.00    +0.000 NA
ATOM     30  C   UNL     1      47.322   9.024  20.707  0.00  0.00    +0.000 A 
ATOM     31  N   UNL     1      47.337   9.505  19.423  0.00  0.00    +0.000 N 
ATOM     32  C   UNL     1      47.731   8.747  18.345  0.00  0.00    +0.000 A 
ATOM     33  O   UNL     1      47.760   9.220  17.215  0.00  0.00    +0.000 OA
ATOM     34  C   UNL     1      48.096   7.381  18.669  0.00  0.00    +0.000 A 
ATOM     35  H   UNL     1      47.072  10.458  19.223  0.00  0.00    +0.000 HD
ENDBRANCH  22  25
ENDBRANCH  20  21
ENDBRANCH   4  20
TORSDOF 9
ENDMDL
MODEL 9
REMARK VINA RESULT:    -6.434      4.241      9.664
REMARK INTER + INTRA:         -11.109
REMARK INTER:                  -9.091
REMARK INTRA:                  -2.017
REMARK UNBOUND:                -1.289
REMARK  Name = 
REMARK  10 active torsions:
REMARK  status: ('A' for Active; 'I' for Inactive)
REMARK    1  A    between atoms: C_1  and  O_2
REMARK    2  A    between atoms: O_2  and  C_3
REMARK    3  A    between atoms: C_3  and  C_4
REMARK    4  A    between atoms: C_3  and  C_27
REMARK    5  A    between atoms: C_4  and  N_5
REMARK    6  A    between atoms: N_5  and  C_6
REMARK    7  A    between atoms: C_6  and  C_7
REMARK    8  A    between atoms: C_10  and  C_11
REMARK    9  A    between atoms: C_11  and  N_12
REMARK   10  A    between atoms: C_13  and  C_15
REMARK                            x       y       z     vdW  Elec       q    Type
REMARK                         _______ _______ _______ _____ _____    ______ ____
ROOT
ATOM      1  C   UNL     1      50.296   5.524  19.008  0.00  0.00    +0.000 A 
ATOM      2  C   UNL     1      50.100   5.914  17.671  0.00  0.00    +0.000 A 
ATOM      3  C   UNL     1      49.168   5.274  16.856  0.00  0.00    +0.000 A 
ATOM      4  C   UNL     1      48.380   4.243  17.366  0.00  0.00    +0.000 A 
ATOM      5  C   UNL     1      48.566   3.841  18.696  0.00  0.00    +0.000 A 
ATOM      6  C   UNL     1      49.511   4.477  19.510  0.00  0.00    +0.000 A 
ENDROOT
BRANCH   1   7
ATOM      7  C   UNL     1      51.319   6.204  19.906  0.00  0.00    +0.000 C 
BRANCH   7   8
ATOM      8  N   UNL     1      50.839   7.505  20.352  0.00  0.00    +0.000 NA
ATOM      9  H   UNL     1      51.656   8.099  20.509  0.00  0.00    +0.000 HD
BRANCH   8  10
ATOM     10  C   UNL     1      50.064   7.492  21.596  0.00  0.00    +0.000 C 
BRANCH  10  11
ATOM     11  C   UNL     1      48.797   8.405  21.479  0.00  0.00    +0.000 C 
BRANCH  11  12
ATOM     12  C   UNL     1      48.644   8.915  20.041  0.00  0.00    +0.000 A 
ATOM     13  C   UNL     1      47.772   8.295  19.141  0.00  0.00    +0.000 A 
ATOM     14  C   UNL     1      47.723   8.732  17.820  0.00  0.00    +0.000 A 
ATOM     15  C   UNL     1      48.543   9.777  17.421  0.00  0.00    +0.000 A 
ATOM     16  C   UNL     1      49.376  10.348  18.367  0.00  0.00    +0.000 A 
ATOM     17  N   UNL     1      49.443   9.948  19.658  0.00  0.00    +0.000 NA
ENDBRANCH  11  12
BRANCH  11  19
ATOM     18  C   UNL     1      47.655   6.366  22.080  0.00  0.00    +0.000 C 
ATOM     19  O   UNL     1      47.573   7.766  21.893  0.00  0.00    +0.000 OA
ENDBRANCH  11  19
ENDBRANCH  10  11
ENDBRANCH   8  10
ENDBRANCH   7   8
ENDBRANCH   1   7
BRANCH   4  20
ATOM     20  C   UNL     1      47.393   3.543  16.474  0.00  0.00    +0.000 C 
BRANCH  20  21
ATOM     21  N   UNL     1      46.775   4.479  15.571  0.00  0.00    +0.000 N 
ATOM     22  C   UNL     1      46.835   4.307  14.213  0.00  0.00    +0.000 C 
ATOM     23  O   UNL     1      47.380   3.332  13.704  0.00  0.00    +0.000 OA
ATOM     24  H   UNL     1      46.495   5.375  15.960  0.00  0.00    +0.000 HD
BRANCH  22  25
ATOM     25  C   UNL     1      46.163   5.327  13.395  0.00  0.00    +0.000 A 
ATOM     26  C   UNL     1      46.796   6.540  13.160  0.00  0.00    +0.000 A 
ATOM     27  S   UNL     1      45.910   7.589  12.152  0.00  0.00    +0.000 S 
ATOM     28  C   UNL     1      44.627   6.477  12.032  0.00  0.00    +0.000 A 
ATOM     29  N   UNL     1      43.514   6.774  11.310  0.00  0.00    +0.000 NA
ATOM     30  C   UNL     1      42.605   5.857  11.326  0.00  0.00    +0.000 A 
ATOM     31  N   UNL     1      42.713   4.666  11.996  0.00  0.00    +0.000 N 
ATOM     32  C   UNL     1      43.831   4.310  12.714  0.00  0.00    +0.000 A 
ATOM     33  O   UNL     1      43.904   3.224  13.275  0.00  0.00    +0.000 OA
ATOM     34  C   UNL     1      44.877   5.315  12.738  0.00  0.00    +0.000 A 
ATOM     35  H   UNL     1      41.967   3.986  11.968  0.00  0.00    +0.000 HD
ENDBRANCH  22  25
ENDBRANCH  20  21
ENDBRANCH   4  20
TORSDOF 9
ENDMDL
