MODEL 1
REMARK VINA RESULT:    -7.183      0.000      0.000
REMARK INTER + INTRA:         -11.364
REMARK INTER:                 -10.333
REMARK INTRA:                  -1.031
REMARK UNBOUND:                -1.031
REMARK  Name = 
REMARK  10 active torsions:
REMARK  status: ('A' for Active; 'I' for Inactive)
REMARK    1  A    between atoms: C_1  and  C_2
REMARK    2  A    between atoms: C_2  and  C_3
REMARK    3  A    between atoms: C_2  and  C_4
REMARK    4  A    between atoms: C_2  and  C_17
REMARK    5  A    between atoms: C_4  and  N_5
REMARK    6  A    between atoms: N_5  and  C_6
REMARK    7  A    between atoms: C_9  and  C_10
REMARK    8  A    between atoms: C_14  and  C_15
REMARK    9  A    between atoms: C_21  and  C_22
REMARK   10  A    between atoms: C_22  and  N_23
REMARK                            x       y       z     vdW  Elec       q    Type
REMARK                         _______ _______ _______ _____ _____    ______ ____
ROOT
ATOM      1  N   UNL     1      44.942   5.349   9.502  0.00  0.00    +0.000 N 
ATOM      2  H   UNL     1      44.697   6.100   8.857  0.00  0.00    +0.000 HD
ENDROOT
BRANCH   1   3
ATOM      3  C   UNL     1      45.505   4.285   8.776  0.00  0.00    +0.000 A 
ATOM      4  N   UNL     1      46.356   4.566   7.763  0.00  0.00    +0.000 NA
ATOM      5  C   UNL     1      46.904   3.539   7.069  0.00  0.00    +0.000 A 
ATOM      6  C   UNL     1      46.675   2.207   7.361  0.00  0.00    +0.000 A 
ATOM      7  C   UNL     1      45.807   1.919   8.408  0.00  0.00    +0.000 A 
ATOM      8  C   UNL     1      45.205   2.964   9.132  0.00  0.00    +0.000 A 
BRANCH   6   9
ATOM      9  C   UNL     1      47.339   1.174   6.544  0.00  0.00    +0.000 C 
ATOM     10  N   UNL     1      48.357   1.579   5.727  0.00  0.00    +0.000 N 
ATOM     11  O   UNL     1      46.974   0.006   6.573  0.00  0.00    +0.000 OA
ATOM     12  H   UNL     1      48.540   2.549   5.515  0.00  0.00    +0.000 HD
ATOM     13  H   UNL     1      48.748   0.881   5.108  0.00  0.00    +0.000 HD
ENDBRANCH   6   9
BRANCH   8  14
ATOM     14  C   UNL     1      44.276   2.640  10.267  0.00  0.00    +0.000 C 
ATOM     15  F   UNL     1      44.841   2.855  11.496  0.00  0.00    +0.000 F 
ENDBRANCH   8  14
ENDBRANCH   1   3
BRANCH   1  16
ATOM     16  C   UNL     1      45.807   5.866  10.578  0.00  0.00    +0.000 C 
BRANCH  16  18
ATOM     17  C   UNL     1      43.486   6.081  11.549  0.00  0.00    +0.000 C 
ATOM     18  C   UNL     1      44.973   6.464  11.754  0.00  0.00    +0.000 C 
ATOM     19  C   UNL     1      45.419   5.781  13.070  0.00  0.00    +0.000 C 
BRANCH  18  20
ATOM     20  C   UNL     1      45.221   7.983  11.846  0.00  0.00    +0.000 A 
ATOM     21  C   UNL     1      46.492   8.482  12.187  0.00  0.00    +0.000 A 
ATOM     22  C   UNL     1      46.757   9.853  12.184  0.00  0.00    +0.000 A 
ATOM     23  C   UNL     1      45.756  10.760  11.845  0.00  0.00    +0.000 A 
ATOM     24  C   UNL     1      44.478  10.303  11.512  0.00  0.00    +0.000 A 
ATOM     25  C   UNL     1      44.227   8.920  11.515  0.00  0.00    +0.000 A 
BRANCH  24  26
ATOM     26  C   UNL     1      43.391  11.257  11.097  0.00  0.00    +0.000 C 
BRANCH  26  27
ATOM     27  N   UNL     1      42.288  11.227  12.048  0.00  0.00    +0.000 NA
ATOM     28  H   UNL     1      42.669  11.245  12.992  0.00  0.00    +0.000 HD
ATOM     29  H   UNL     1      41.793  10.342  11.955  0.00  0.00    +0.000 HD
ENDBRANCH  26  27
ENDBRANCH  24  26
ENDBRANCH  18  20
ENDBRANCH  16  18
ENDBRANCH   1  16
TORSDOF 8
ENDMDL
MODEL 2
REMARK VINA RESULT:    -7.097      2.125      3.756
REMARK INTER + INTRA:         -11.239
REMARK INTER:                 -10.111
REMARK INTRA:                  -1.128
REMARK UNBOUND:                -1.031
REMARK  Name = 
REMARK  10 active torsions:
REMARK  status: ('A' for Active; 'I' for Inactive)
REMARK    1  A    between atoms: C_1  and  C_2
REMARK    2  A    between atoms: C_2  and  C_3
REMARK    3  A    between atoms: C_2  and  C_4
REMARK    4  A    between atoms: C_2  and  C_17
REMARK    5  A    between atoms: C_4  and  N_5
REMARK    6  A    between atoms: N_5  and  C_6
REMARK    7  A    between atoms: C_9  and  C_10
REMARK    8  A    between atoms: C_14  and  C_15
REMARK    9  A    between atoms: C_21  and  C_22
REMARK   10  A    between atoms: C_22  and  N_23
REMARK                            x       y       z     vdW  Elec       q    Type
REMARK                         _______ _______ _______ _____ _____    ______ ____
ROOT
ATOM      1  N   UNL     1      44.813   5.392   9.740  0.00  0.00    +0.000 N 
ATOM      2  H   UNL     1      44.209   5.945   9.134  0.00  0.00    +0.000 HD
ENDROOT
BRANCH   1   3
ATOM      3  C   UNL     1      45.399   4.360   8.987  0.00  0.00    +0.000 A 
ATOM      4  N   UNL     1      46.251   4.683   7.990  0.00  0.00    +0.000 NA
ATOM      5  C   UNL     1      46.821   3.686   7.270  0.00  0.00    +0.000 A 
ATOM      6  C   UNL     1      46.613   2.343   7.521  0.00  0.00    +0.000 A 
ATOM      7  C   UNL     1      45.742   2.010   8.553  0.00  0.00    +0.000 A 
ATOM      8  C   UNL     1      45.119   3.023   9.303  0.00  0.00    +0.000 A 
BRANCH   6   9
ATOM      9  C   UNL     1      47.299   1.346   6.679  0.00  0.00    +0.000 C 
ATOM     10  N   UNL     1      48.275   1.800   5.838  0.00  0.00    +0.000 N 
ATOM     11  O   UNL     1      46.987   0.162   6.710  0.00  0.00    +0.000 OA
ATOM     12  H   UNL     1      48.409   2.779   5.627  0.00  0.00    +0.000 HD
ATOM     13  H   UNL     1      48.679   1.123   5.203  0.00  0.00    +0.000 HD
ENDBRANCH   6   9
BRANCH   8  14
ATOM     14  C   UNL     1      44.188   2.651  10.422  0.00  0.00    +0.000 C 
ATOM     15  F   UNL     1      44.744   2.829  11.660  0.00  0.00    +0.000 F 
ENDBRANCH   8  14
ENDBRANCH   1   3
BRANCH   1  16
ATOM     16  C   UNL     1      45.787   6.266  10.421  0.00  0.00    +0.000 C 
BRANCH  16  18
ATOM     17  C   UNL     1      44.837   8.217  11.711  0.00  0.00    +0.000 C 
ATOM     18  C   UNL     1      45.268   6.733  11.816  0.00  0.00    +0.000 C 
ATOM     19  C   UNL     1      43.987   5.933  12.158  0.00  0.00    +0.000 C 
BRANCH  18  20
ATOM     20  C   UNL     1      46.346   6.469  12.886  0.00  0.00    +0.000 A 
ATOM     21  C   UNL     1      47.306   7.452  13.194  0.00  0.00    +0.000 A 
ATOM     22  C   UNL     1      48.231   7.265  14.223  0.00  0.00    +0.000 A 
ATOM     23  C   UNL     1      48.223   6.088  14.968  0.00  0.00    +0.000 A 
ATOM     24  C   UNL     1      47.293   5.085  14.684  0.00  0.00    +0.000 A 
ATOM     25  C   UNL     1      46.366   5.288  13.648  0.00  0.00    +0.000 A 
BRANCH  24  26
ATOM     26  C   UNL     1      47.232   3.823  15.502  0.00  0.00    +0.000 C 
BRANCH  26  27
ATOM     27  N   UNL     1      48.452   3.652  16.279  0.00  0.00    +0.000 NA
ATOM     28  H   UNL     1      49.229   4.063  15.763  0.00  0.00    +0.000 HD
ATOM     29  H   UNL     1      48.658   2.658  16.363  0.00  0.00    +0.000 HD
ENDBRANCH  26  27
ENDBRANCH  24  26
ENDBRANCH  18  20
ENDBRANCH  16  18
ENDBRANCH   1  16
TORSDOF 8
ENDMDL
MODEL 3
REMARK VINA RESULT:    -6.556      3.989      7.916
REMARK INTER + INTRA:         -10.461
REMARK INTER:                  -9.448
REMARK INTRA:                  -1.012
REMARK UNBOUND:                -1.031
REMARK  Name = 
REMARK  10 active torsions:
REMARK  status: ('A' for Active; 'I' for Inactive)
REMARK    1  A    between atoms: C_1  and  C_2
REMARK    2  A    between atoms: C_2  and  C_3
REMARK    3  A    between atoms: C_2  and  C_4
REMARK    4  A    between atoms: C_2  and  C_17
REMARK    5  A    between atoms: C_4  and  N_5
REMARK    6  A    between atoms: N_5  and  C_6
REMARK    7  A    between atoms: C_9  and  C_10
REMARK    8  A    between atoms: C_14  and  C_15
REMARK    9  A    between atoms: C_21  and  C_22
REMARK   10  A    between atoms: C_22  and  N_23
REMARK                            x       y       z     vdW  Elec       q    Type
REMARK                         _______ _______ _______ _____ _____    ______ ____
ROOT
ATOM      1  N   UNL     1      45.141   4.734  13.105  0.00  0.00    +0.000 N 
ATOM      2  H   UNL     1      44.324   4.493  13.665  0.00  0.00    +0.000 HD
ENDROOT
BRANCH   1   3
ATOM      3  C   UNL     1      46.209   5.052  13.963  0.00  0.00    +0.000 A 
ATOM      4  N   UNL     1      46.451   4.252  15.025  0.00  0.00    +0.000 NA
ATOM      5  C   UNL     1      47.486   4.555  15.847  0.00  0.00    +0.000 A 
ATOM      6  C   UNL     1      48.342   5.620  15.641  0.00  0.00    +0.000 A 
ATOM      7  C   UNL     1      48.098   6.438  14.543  0.00  0.00    +0.000 A 
ATOM      8  C   UNL     1      47.018   6.162  13.686  0.00  0.00    +0.000 A 
BRANCH   6   9
ATOM      9  C   UNL     1      49.444   5.845  16.595  0.00  0.00    +0.000 C 
ATOM     10  N   UNL     1      49.333   6.912  17.442  0.00  0.00    +0.000 N 
ATOM     11  O   UNL     1      50.432   5.122  16.610  0.00  0.00    +0.000 OA
ATOM     12  H   UNL     1      48.650   7.645  17.316  0.00  0.00    +0.000 HD
ATOM     13  H   UNL     1      50.130   7.108  18.032  0.00  0.00    +0.000 HD
ENDBRANCH   6   9
BRANCH   8  14
ATOM     14  C   UNL     1      46.770   7.047  12.497  0.00  0.00    +0.000 C 
ATOM     15  F   UNL     1      47.142   6.468  11.314  0.00  0.00    +0.000 F 
ENDBRANCH   8  14
ENDBRANCH   1   3
BRANCH   1  16
ATOM     16  C   UNL     1      45.440   3.652  12.150  0.00  0.00    +0.000 C 
BRANCH  16  18
ATOM     17  C   UNL     1      43.363   2.472  11.329  0.00  0.00    +0.000 C 
ATOM     18  C   UNL     1      44.386   3.588  11.001  0.00  0.00    +0.000 C 
ATOM     19  C   UNL     1      43.590   4.916  10.989  0.00  0.00    +0.000 C 
BRANCH  18  20
ATOM     20  C   UNL     1      45.104   3.400   9.649  0.00  0.00    +0.000 A 
ATOM     21  C   UNL     1      45.457   4.514   8.864  0.00  0.00    +0.000 A 
ATOM     22  C   UNL     1      46.189   4.366   7.684  0.00  0.00    +0.000 A 
ATOM     23  C   UNL     1      46.581   3.100   7.255  0.00  0.00    +0.000 A 
ATOM     24  C   UNL     1      46.239   1.970   8.002  0.00  0.00    +0.000 A 
ATOM     25  C   UNL     1      45.505   2.134   9.190  0.00  0.00    +0.000 A 
BRANCH  24  26
ATOM     26  C   UNL     1      46.688   0.595   7.587  0.00  0.00    +0.000 C 
BRANCH  26  27
ATOM     27  N   UNL     1      47.312   0.631   6.271  0.00  0.00    +0.000 NA
ATOM     28  H   UNL     1      47.317   1.594   5.938  0.00  0.00    +0.000 HD
ATOM     29  H   UNL     1      46.739   0.103   5.616  0.00  0.00    +0.000 HD
ENDBRANCH  26  27
ENDBRANCH  24  26
ENDBRANCH  18  20
ENDBRANCH  16  18
ENDBRANCH   1  16
TORSDOF 8
ENDMDL
MODEL 4
REMARK VINA RESULT:    -6.517      5.904      8.206
REMARK INTER + INTRA:         -10.405
REMARK INTER:                  -9.631
REMARK INTRA:                  -0.774
REMARK UNBOUND:                -1.031
REMARK  Name = 
REMARK  10 active torsions:
REMARK  status: ('A' for Active; 'I' for Inactive)
REMARK    1  A    between atoms: C_1  and  C_2
REMARK    2  A    between atoms: C_2  and  C_3
REMARK    3  A    between atoms: C_2  and  C_4
REMARK    4  A    between atoms: C_2  and  C_17
REMARK    5  A    between atoms: C_4  and  N_5
REMARK    6  A    between atoms: N_5  and  C_6
REMARK    7  A    between atoms: C_9  and  C_10
REMARK    8  A    between atoms: C_14  and  C_15
REMARK    9  A    between atoms: C_21  and  C_22
REMARK   10  A    between atoms: C_22  and  N_23
REMARK                            x       y       z     vdW  Elec       q    Type
REMARK                         _______ _______ _______ _____ _____    ______ ____
ROOT
ATOM      1  N   UNL     1      47.012   4.951  15.200  0.00  0.00    +0.000 N 
ATOM      2  H   UNL     1      47.708   5.695  15.250  0.00  0.00    +0.000 HD
ENDROOT
BRANCH   1   3
ATOM      3  C   UNL     1      46.466   4.918  13.906  0.00  0.00    +0.000 A 
ATOM      4  N   UNL     1      45.628   3.909  13.577  0.00  0.00    +0.000 NA
ATOM      5  C   UNL     1      45.096   3.882  12.331  0.00  0.00    +0.000 A 
ATOM      6  C   UNL     1      45.328   4.855  11.377  0.00  0.00    +0.000 A 
ATOM      7  C   UNL     1      46.183   5.898  11.718  0.00  0.00    +0.000 A 
ATOM      8  C   UNL     1      46.768   5.940  12.996  0.00  0.00    +0.000 A 
BRANCH   6   9
ATOM      9  C   UNL     1      44.683   4.728  10.057  0.00  0.00    +0.000 C 
ATOM     10  N   UNL     1      45.477   4.874   8.954  0.00  0.00    +0.000 N 
ATOM     11  O   UNL     1      43.479   4.529   9.952  0.00  0.00    +0.000 OA
ATOM     12  H   UNL     1      46.414   5.248   8.996  0.00  0.00    +0.000 HD
ATOM     13  H   UNL     1      45.012   4.871   8.056  0.00  0.00    +0.000 HD
ENDBRANCH   6   9
BRANCH   8  14
ATOM     14  C   UNL     1      47.682   7.077  13.356  0.00  0.00    +0.000 C 
ATOM     15  F   UNL     1      49.004   6.782  13.156  0.00  0.00    +0.000 F 
ENDBRANCH   8  14
ENDBRANCH   1   3
BRANCH   1  16
ATOM     16  C   UNL     1      47.602   3.672  15.637  0.00  0.00    +0.000 C 
BRANCH  16  18
ATOM     17  C   UNL     1      47.267   4.896  17.820  0.00  0.00    +0.000 C 
ATOM     18  C   UNL     1      47.983   3.698  17.149  0.00  0.00    +0.000 C 
ATOM     19  C   UNL     1      47.417   2.423  17.821  0.00  0.00    +0.000 C 
BRANCH  18  20
ATOM     20  C   UNL     1      49.518   3.725  17.297  0.00  0.00    +0.000 A 
ATOM     21  C   UNL     1      50.204   4.947  17.424  0.00  0.00    +0.000 A 
ATOM     22  C   UNL     1      51.582   4.985  17.652  0.00  0.00    +0.000 A 
ATOM     23  C   UNL     1      52.309   3.802  17.752  0.00  0.00    +0.000 A 
ATOM     24  C   UNL     1      51.664   2.569  17.619  0.00  0.00    +0.000 A 
ATOM     25  C   UNL     1      50.277   2.546  17.394  0.00  0.00    +0.000 A 
BRANCH  24  26
ATOM     26  C   UNL     1      52.417   1.274  17.768  0.00  0.00    +0.000 C 
BRANCH  26  27
ATOM     27  N   UNL     1      51.515   0.193  18.139  0.00  0.00    +0.000 NA
ATOM     28  H   UNL     1      50.613   0.352  17.694  0.00  0.00    +0.000 HD
ATOM     29  H   UNL     1      51.350   0.225  19.143  0.00  0.00    +0.000 HD
ENDBRANCH  26  27
ENDBRANCH  24  26
ENDBRANCH  18  20
ENDBRANCH  16  18
ENDBRANCH   1  16
TORSDOF 8
ENDMDL
MODEL 5
REMARK VINA RESULT:    -6.491      3.547      7.161
REMARK INTER + INTRA:         -10.367
REMARK INTER:                  -9.215
REMARK INTRA:                  -1.152
REMARK UNBOUND:                -1.031
REMARK  Name = 
REMARK  10 active torsions:
REMARK  status: ('A' for Active; 'I' for Inactive)
REMARK    1  A    between atoms: C_1  and  C_2
REMARK    2  A    between atoms: C_2  and  C_3
REMARK    3  A    between atoms: C_2  and  C_4
REMARK    4  A    between atoms: C_2  and  C_17
REMARK    5  A    between atoms: C_4  and  N_5
REMARK    6  A    between atoms: N_5  and  C_6
REMARK    7  A    between atoms: C_9  and  C_10
REMARK    8  A    between atoms: C_14  and  C_15
REMARK    9  A    between atoms: C_21  and  C_22
REMARK   10  A    between atoms: C_22  and  N_23
REMARK                            x       y       z     vdW  Elec       q    Type
REMARK                         _______ _______ _______ _____ _____    ______ ____
ROOT
ATOM      1  N   UNL     1      44.907   5.056  13.069  0.00  0.00    +0.000 N 
ATOM      2  H   UNL     1      44.623   5.029  14.047  0.00  0.00    +0.000 HD
ENDROOT
BRANCH   1   3
ATOM      3  C   UNL     1      46.070   5.836  12.950  0.00  0.00    +0.000 A 
ATOM      4  N   UNL     1      47.209   5.402  13.534  0.00  0.00    +0.000 NA
ATOM      5  C   UNL     1      48.331   6.152  13.411  0.00  0.00    +0.000 A 
ATOM      6  C   UNL     1      48.394   7.326  12.685  0.00  0.00    +0.000 A 
ATOM      7  C   UNL     1      47.224   7.769  12.077  0.00  0.00    +0.000 A 
ATOM      8  C   UNL     1      46.039   7.023  12.205  0.00  0.00    +0.000 A 
BRANCH   6   9
ATOM      9  C   UNL     1      49.675   8.052  12.611  0.00  0.00    +0.000 C 
ATOM     10  N   UNL     1      50.347   8.018  11.421  0.00  0.00    +0.000 N 
ATOM     11  O   UNL     1      50.135   8.636  13.584  0.00  0.00    +0.000 OA
ATOM     12  H   UNL     1      50.114   7.378  10.675  0.00  0.00    +0.000 HD
ATOM     13  H   UNL     1      51.265   8.445  11.405  0.00  0.00    +0.000 HD
ENDBRANCH   6   9
BRANCH   8  14
ATOM     14  C   UNL     1      44.783   7.505  11.535  0.00  0.00    +0.000 C 
ATOM     15  F   UNL     1      44.805   8.847  11.263  0.00  0.00    +0.000 F 
ENDBRANCH   8  14
ENDBRANCH   1   3
BRANCH   1  16
ATOM     16  C   UNL     1      45.047   3.686  12.542  0.00  0.00    +0.000 C 
BRANCH  16  18
ATOM     17  C   UNL     1      43.314   2.072  11.665  0.00  0.00    +0.000 C 
ATOM     18  C   UNL     1      44.044   3.408  11.379  0.00  0.00    +0.000 C 
ATOM     19  C   UNL     1      42.956   4.509  11.395  0.00  0.00    +0.000 C 
BRANCH  18  20
ATOM     20  C   UNL     1      44.792   3.436  10.031  0.00  0.00    +0.000 A 
ATOM     21  C   UNL     1      45.086   4.659   9.399  0.00  0.00    +0.000 A 
ATOM     22  C   UNL     1      45.843   4.707   8.227  0.00  0.00    +0.000 A 
ATOM     23  C   UNL     1      46.321   3.532   7.653  0.00  0.00    +0.000 A 
ATOM     24  C   UNL     1      46.039   2.297   8.244  0.00  0.00    +0.000 A 
ATOM     25  C   UNL     1      45.280   2.265   9.427  0.00  0.00    +0.000 A 
BRANCH  24  26
ATOM     26  C   UNL     1      46.581   1.015   7.671  0.00  0.00    +0.000 C 
BRANCH  26  27
ATOM     27  N   UNL     1      47.870   1.241   7.030  0.00  0.00    +0.000 NA
ATOM     28  H   UNL     1      48.330   2.025   7.488  0.00  0.00    +0.000 HD
ATOM     29  H   UNL     1      47.716   1.522   6.063  0.00  0.00    +0.000 HD
ENDBRANCH  26  27
ENDBRANCH  24  26
ENDBRANCH  18  20
ENDBRANCH  16  18
ENDBRANCH   1  16
TORSDOF 8
ENDMDL
MODEL 6
REMARK VINA RESULT:    -6.451      5.819      8.111
REMARK INTER + INTRA:         -10.310
REMARK INTER:                  -9.601
REMARK INTRA:                  -0.709
REMARK UNBOUND:                -1.031
REMARK  Name = 
REMARK  10 active torsions:
REMARK  status: ('A' for Active; 'I' for Inactive)
REMARK    1  A    between atoms: C_1  and  C_2
REMARK    2  A    between atoms: C_2  and  C_3
REMARK    3  A    between atoms: C_2  and  C_4
REMARK    4  A    between atoms: C_2  and  C_17
REMARK    5  A    between atoms: C_4  and  N_5
REMARK    6  A    between atoms: N_5  and  C_6
REMARK    7  A    between atoms: C_9  and  C_10
REMARK    8  A    between atoms: C_14  and  C_15
REMARK    9  A    between atoms: C_21  and  C_22
REMARK   10  A    between atoms: C_22  and  N_23
REMARK                            x       y       z     vdW  Elec       q    Type
REMARK                         _______ _______ _______ _____ _____    ______ ____
ROOT
ATOM      1  N   UNL     1      47.291   5.483  14.709  0.00  0.00    +0.000 N 
ATOM      2  H   UNL     1      48.240   5.728  14.429  0.00  0.00    +0.000 HD
ENDROOT
BRANCH   1   3
ATOM      3  C   UNL     1      46.564   5.089  13.573  0.00  0.00    +0.000 A 
ATOM      4  N   UNL     1      45.920   3.901  13.591  0.00  0.00    +0.000 NA
ATOM      5  C   UNL     1      45.213   3.526  12.497  0.00  0.00    +0.000 A 
ATOM      6  C   UNL     1      45.075   4.310  11.367  0.00  0.00    +0.000 A 
ATOM      7  C   UNL     1      45.731   5.536  11.352  0.00  0.00    +0.000 A 
ATOM      8  C   UNL     1      46.491   5.942  12.463  0.00  0.00    +0.000 A 
BRANCH   6   9
ATOM      9  C   UNL     1      44.268   3.803  10.242  0.00  0.00    +0.000 C 
ATOM     10  N   UNL     1      44.202   4.577   9.118  0.00  0.00    +0.000 N 
ATOM     11  O   UNL     1      43.657   2.744  10.320  0.00  0.00    +0.000 OA
ATOM     12  H   UNL     1      44.508   5.540   9.094  0.00  0.00    +0.000 HD
ATOM     13  H   UNL     1      43.579   4.264   8.386  0.00  0.00    +0.000 HD
ENDBRANCH   6   9
BRANCH   8  14
ATOM     14  C   UNL     1      47.187   7.273  12.439  0.00  0.00    +0.000 C 
ATOM     15  F   UNL     1      48.083   7.388  11.410  0.00  0.00    +0.000 F 
ENDBRANCH   8  14
ENDBRANCH   1   3
BRANCH   1  16
ATOM     16  C   UNL     1      47.323   4.472  15.782  0.00  0.00    +0.000 C 
BRANCH  16  18
ATOM     17  C   UNL     1      48.800   6.324  16.658  0.00  0.00    +0.000 C 
ATOM     18  C   UNL     1      48.243   4.911  16.964  0.00  0.00    +0.000 C 
ATOM     19  C   UNL     1      47.373   5.055  18.237  0.00  0.00    +0.000 C 
BRANCH  18  20
ATOM     20  C   UNL     1      49.332   3.846  17.197  0.00  0.00    +0.000 A 
ATOM     21  C   UNL     1      49.141   2.519  16.767  0.00  0.00    +0.000 A 
ATOM     22  C   UNL     1      50.154   1.565  16.886  0.00  0.00    +0.000 A 
ATOM     23  C   UNL     1      51.382   1.912  17.443  0.00  0.00    +0.000 A 
ATOM     24  C   UNL     1      51.605   3.217  17.892  0.00  0.00    +0.000 A 
ATOM     25  C   UNL     1      50.578   4.167  17.762  0.00  0.00    +0.000 A 
BRANCH  24  26
ATOM     26  C   UNL     1      52.938   3.630  18.456  0.00  0.00    +0.000 C 
BRANCH  26  27
ATOM     27  N   UNL     1      53.255   2.859  19.650  0.00  0.00    +0.000 NA
ATOM     28  H   UNL     1      52.784   3.283  20.448  0.00  0.00    +0.000 HD
ATOM     29  H   UNL     1      54.254   2.927  19.836  0.00  0.00    +0.000 HD
ENDBRANCH  26  27
ENDBRANCH  24  26
ENDBRANCH  18  20
ENDBRANCH  16  18
ENDBRANCH   1  16
TORSDOF 8
ENDMDL
MODEL 7
REMARK VINA RESULT:    -6.415      3.594      7.196
REMARK INTER + INTRA:         -10.259
REMARK INTER:                  -9.334
REMARK INTRA:                  -0.924
REMARK UNBOUND:                -1.031
REMARK  Name = 
REMARK  10 active torsions:
REMARK  status: ('A' for Active; 'I' for Inactive)
REMARK    1  A    between atoms: C_1  and  C_2
REMARK    2  A    between atoms: C_2  and  C_3
REMARK    3  A    between atoms: C_2  and  C_4
REMARK    4  A    between atoms: C_2  and  C_17
REMARK    5  A    between atoms: C_4  and  N_5
REMARK    6  A    between atoms: N_5  and  C_6
REMARK    7  A    between atoms: C_9  and  C_10
REMARK    8  A    between atoms: C_14  and  C_15
REMARK    9  A    between atoms: C_21  and  C_22
REMARK   10  A    between atoms: C_22  and  N_23
REMARK                            x       y       z     vdW  Elec       q    Type
REMARK                         _______ _______ _______ _____ _____    ______ ____
ROOT
ATOM      1  N   UNL     1      45.140   5.041  12.896  0.00  0.00    +0.000 N 
ATOM      2  H   UNL     1      44.837   4.988  13.868  0.00  0.00    +0.000 HD
ENDROOT
BRANCH   1   3
ATOM      3  C   UNL     1      46.360   5.736  12.832  0.00  0.00    +0.000 A 
ATOM      4  N   UNL     1      46.583   6.564  11.787  0.00  0.00    +0.000 NA
ATOM      5  C   UNL     1      47.756   7.240  11.730  0.00  0.00    +0.000 A 
ATOM      6  C   UNL     1      48.733   7.165  12.705  0.00  0.00    +0.000 A 
ATOM      7  C   UNL     1      48.500   6.319  13.784  0.00  0.00    +0.000 A 
ATOM      8  C   UNL     1      47.301   5.588  13.859  0.00  0.00    +0.000 A 
BRANCH   6   9
ATOM      9  C   UNL     1      49.965   7.958  12.543  0.00  0.00    +0.000 C 
ATOM     10  N   UNL     1      50.470   8.569  13.656  0.00  0.00    +0.000 N 
ATOM     11  O   UNL     1      50.501   8.089  11.449  0.00  0.00    +0.000 OA
ATOM     12  H   UNL     1      49.948   8.663  14.516  0.00  0.00    +0.000 HD
ATOM     13  H   UNL     1      51.265   9.179  13.519  0.00  0.00    +0.000 HD
ENDBRANCH   6   9
BRANCH   8  14
ATOM     14  C   UNL     1      47.055   4.685  15.035  0.00  0.00    +0.000 C 
ATOM     15  F   UNL     1      47.375   3.379  14.780  0.00  0.00    +0.000 F 
ENDBRANCH   8  14
ENDBRANCH   1   3
BRANCH   1  16
ATOM     16  C   UNL     1      45.185   3.691  12.304  0.00  0.00    +0.000 C 
BRANCH  16  18
ATOM     17  C   UNL     1      43.233   2.340  11.444  0.00  0.00    +0.000 C 
ATOM     18  C   UNL     1      44.164   3.539  11.134  0.00  0.00    +0.000 C 
ATOM     19  C   UNL     1      43.260   4.795  11.103  0.00  0.00    +0.000 C 
BRANCH  18  20
ATOM     20  C   UNL     1      44.922   3.412   9.797  0.00  0.00    +0.000 A 
ATOM     21  C   UNL     1      45.279   4.559   9.063  0.00  0.00    +0.000 A 
ATOM     22  C   UNL     1      46.046   4.467   7.900  0.00  0.00    +0.000 A 
ATOM     23  C   UNL     1      46.471   3.224   7.437  0.00  0.00    +0.000 A 
ATOM     24  C   UNL     1      46.126   2.061   8.132  0.00  0.00    +0.000 A 
ATOM     25  C   UNL     1      45.358   2.170   9.304  0.00  0.00    +0.000 A 
BRANCH  24  26
ATOM     26  C   UNL     1      46.610   0.710   7.680  0.00  0.00    +0.000 C 
BRANCH  26  27
ATOM     27  N   UNL     1      47.306   0.811   6.404  0.00  0.00    +0.000 NA
ATOM     28  H   UNL     1      47.439  -0.127   6.029  0.00  0.00    +0.000 HD
ATOM     29  H   UNL     1      48.237   1.192   6.562  0.00  0.00    +0.000 HD
ENDBRANCH  26  27
ENDBRANCH  24  26
ENDBRANCH  18  20
ENDBRANCH  16  18
ENDBRANCH   1  16
TORSDOF 8
ENDMDL
MODEL 8
REMARK VINA RESULT:    -6.397      4.495      7.889
REMARK INTER + INTRA:         -10.232
REMARK INTER:                  -9.358
REMARK INTRA:                  -0.874
REMARK UNBOUND:                -1.031
REMARK  Name = 
REMARK  10 active torsions:
REMARK  status: ('A' for Active; 'I' for Inactive)
REMARK    1  A    between atoms: C_1  and  C_2
REMARK    2  A    between atoms: C_2  and  C_3
REMARK    3  A    between atoms: C_2  and  C_4
REMARK    4  A    between atoms: C_2  and  C_17
REMARK    5  A    between atoms: C_4  and  N_5
REMARK    6  A    between atoms: N_5  and  C_6
REMARK    7  A    between atoms: C_9  and  C_10
REMARK    8  A    between atoms: C_14  and  C_15
REMARK    9  A    between atoms: C_21  and  C_22
REMARK   10  A    between atoms: C_22  and  N_23
REMARK                            x       y       z     vdW  Elec       q    Type
REMARK                         _______ _______ _______ _____ _____    ______ ____
ROOT
ATOM      1  N   UNL     1      46.495   5.127  12.867  0.00  0.00    +0.000 N 
ATOM      2  H   UNL     1      46.796   5.989  12.414  0.00  0.00    +0.000 HD
ENDROOT
BRANCH   1   3
ATOM      3  C   UNL     1      47.047   5.068  14.158  0.00  0.00    +0.000 A 
ATOM      4  N   UNL     1      46.691   4.051  14.974  0.00  0.00    +0.000 NA
ATOM      5  C   UNL     1      47.230   3.992  16.216  0.00  0.00    +0.000 A 
ATOM      6  C   UNL     1      48.163   4.895  16.691  0.00  0.00    +0.000 A 
ATOM      7  C   UNL     1      48.535   5.937  15.849  0.00  0.00    +0.000 A 
ATOM      8  C   UNL     1      47.976   6.037  14.563  0.00  0.00    +0.000 A 
BRANCH   6   9
ATOM      9  C   UNL     1      48.691   4.722  18.057  0.00  0.00    +0.000 C 
ATOM     10  N   UNL     1      47.872   4.127  18.976  0.00  0.00    +0.000 N 
ATOM     11  O   UNL     1      49.806   5.122  18.365  0.00  0.00    +0.000 OA
ATOM     12  H   UNL     1      46.884   3.984  18.821  0.00  0.00    +0.000 HD
ATOM     13  H   UNL     1      48.209   4.091  19.929  0.00  0.00    +0.000 HD
ENDBRANCH   6   9
BRANCH   8  14
ATOM     14  C   UNL     1      48.394   7.161  13.657  0.00  0.00    +0.000 C 
ATOM     15  F   UNL     1      49.304   6.773  12.711  0.00  0.00    +0.000 F 
ENDBRANCH   8  14
ENDBRANCH   1   3
BRANCH   1  16
ATOM     16  C   UNL     1      45.024   5.023  12.837  0.00  0.00    +0.000 C 
BRANCH  16  18
ATOM     17  C   UNL     1      42.933   5.750  11.623  0.00  0.00    +0.000 C 
ATOM     18  C   UNL     1      44.443   5.446  11.453  0.00  0.00    +0.000 C 
ATOM     19  C   UNL     1      45.108   6.777  11.026  0.00  0.00    +0.000 C 
BRANCH  18  20
ATOM     20  C   UNL     1      44.746   4.354  10.407  0.00  0.00    +0.000 A 
ATOM     21  C   UNL     1      44.201   3.063  10.539  0.00  0.00    +0.000 A 
ATOM     22  C   UNL     1      44.390   2.092   9.554  0.00  0.00    +0.000 A 
ATOM     23  C   UNL     1      45.134   2.385   8.414  0.00  0.00    +0.000 A 
ATOM     24  C   UNL     1      45.701   3.652   8.253  0.00  0.00    +0.000 A 
ATOM     25  C   UNL     1      45.499   4.621   9.250  0.00  0.00    +0.000 A 
BRANCH  24  26
ATOM     26  C   UNL     1      46.471   4.010   7.010  0.00  0.00    +0.000 C 
BRANCH  26  27
ATOM     27  N   UNL     1      47.685   3.211   6.907  0.00  0.00    +0.000 NA
ATOM     28  H   UNL     1      47.880   2.794   7.816  0.00  0.00    +0.000 HD
ATOM     29  H   UNL     1      48.471   3.825   6.699  0.00  0.00    +0.000 HD
ENDBRANCH  26  27
ENDBRANCH  24  26
ENDBRANCH  18  20
ENDBRANCH  16  18
ENDBRANCH   1  16
TORSDOF 8
ENDMDL
MODEL 9
REMARK VINA RESULT:    -6.147      4.655      6.832
REMARK INTER + INTRA:          -9.873
REMARK INTER:                  -8.977
REMARK INTRA:                  -0.896
REMARK UNBOUND:                -1.031
REMARK  Name = 
REMARK  10 active torsions:
REMARK  status: ('A' for Active; 'I' for Inactive)
REMARK    1  A    between atoms: C_1  and  C_2
REMARK    2  A    between atoms: C_2  and  C_3
REMARK    3  A    between atoms: C_2  and  C_4
REMARK    4  A    between atoms: C_2  and  C_17
REMARK    5  A    between atoms: C_4  and  N_5
REMARK    6  A    between atoms: N_5  and  C_6
REMARK    7  A    between atoms: C_9  and  C_10
REMARK    8  A    between atoms: C_14  and  C_15
REMARK    9  A    between atoms: C_21  and  C_22
REMARK   10  A    between atoms: C_22  and  N_23
REMARK                            x       y       z     vdW  Elec       q    Type
REMARK                         _______ _______ _______ _____ _____    ______ ____
ROOT
ATOM      1  N   UNL     1      47.123   7.083  13.872  0.00  0.00    +0.000 N 
ATOM      2  H   UNL     1      47.056   7.980  13.393  0.00  0.00    +0.000 HD
ENDROOT
BRANCH   1   3
ATOM      3  C   UNL     1      46.385   6.124  13.157  0.00  0.00    +0.000 A 
ATOM      4  N   UNL     1      46.558   4.816  13.451  0.00  0.00    +0.000 NA
ATOM      5  C   UNL     1      45.839   3.893  12.766  0.00  0.00    +0.000 A 
ATOM      6  C   UNL     1      44.902   4.212  11.802  0.00  0.00    +0.000 A 
ATOM      7  C   UNL     1      44.718   5.558  11.505  0.00  0.00    +0.000 A 
ATOM      8  C   UNL     1      45.465   6.537  12.184  0.00  0.00    +0.000 A 
BRANCH   6   9
ATOM      9  C   UNL     1      44.170   3.122  11.131  0.00  0.00    +0.000 C 
ATOM     10  N   UNL     1      44.807   2.474  10.111  0.00  0.00    +0.000 N 
ATOM     11  O   UNL     1      43.026   2.828  11.454  0.00  0.00    +0.000 OA
ATOM     12  H   UNL     1      45.651   2.823   9.677  0.00  0.00    +0.000 HD
ATOM     13  H   UNL     1      44.267   1.787   9.600  0.00  0.00    +0.000 HD
ENDBRANCH   6   9
BRANCH   8  14
ATOM     14  C   UNL     1      45.251   7.989  11.862  0.00  0.00    +0.000 C 
ATOM     15  F   UNL     1      44.176   8.201  11.040  0.00  0.00    +0.000 F 
ENDBRANCH   8  14
ENDBRANCH   1   3
BRANCH   1  16
ATOM     16  C   UNL     1      48.537   6.720  14.079  0.00  0.00    +0.000 C 
BRANCH  16  18
ATOM     17  C   UNL     1      50.672   7.594  15.106  0.00  0.00    +0.000 C 
ATOM     18  C   UNL     1      49.145   7.447  15.319  0.00  0.00    +0.000 C 
ATOM     19  C   UNL     1      48.574   8.885  15.375  0.00  0.00    +0.000 C 
BRANCH  18  20
ATOM     20  C   UNL     1      48.764   6.686  16.605  0.00  0.00    +0.000 A 
ATOM     21  C   UNL     1      48.473   7.384  17.792  0.00  0.00    +0.000 A 
ATOM     22  C   UNL     1      48.036   6.716  18.938  0.00  0.00    +0.000 A 
ATOM     23  C   UNL     1      47.884   5.332  18.928  0.00  0.00    +0.000 A 
ATOM     24  C   UNL     1      48.175   4.603  17.771  0.00  0.00    +0.000 A 
ATOM     25  C   UNL     1      48.610   5.289  16.624  0.00  0.00    +0.000 A 
BRANCH  24  26
ATOM     26  C   UNL     1      47.976   3.112  17.719  0.00  0.00    +0.000 C 
BRANCH  26  27
ATOM     27  N   UNL     1      46.558   2.779  17.741  0.00  0.00    +0.000 NA
ATOM     28  H   UNL     1      46.042   3.516  17.262  0.00  0.00    +0.000 HD
ATOM     29  H   UNL     1      46.231   2.779  18.705  0.00  0.00    +0.000 HD
ENDBRANCH  26  27
ENDBRANCH  24  26
ENDBRANCH  18  20
ENDBRANCH  16  18
ENDBRANCH   1  16
TORSDOF 8
ENDMDL
