MODEL 1
REMARK VINA RESULT:    -8.177      0.000      0.000
REMARK INTER + INTRA:         -12.034
REMARK INTER:                 -11.045
REMARK INTRA:                  -0.989
REMARK UNBOUND:                -0.989
REMARK  Name = 
REMARK  7 active torsions:
REMARK  status: ('A' for Active; 'I' for Inactive)
REMARK    1  A    between atoms: C_1  and  O_2
REMARK    2  A    between atoms: O_2  and  C_3
REMARK    3  A    between atoms: C_7  and  C_8
REMARK    4  A    between atoms: C_8  and  C_9
REMARK    5  A    between atoms: C_12  and  C_13
REMARK    6  A    between atoms: C_13  and  N_14
REMARK    7  A    between atoms: C_15  and  C_17
REMARK                            x       y       z     vdW  Elec       q    Type
REMARK                         _______ _______ _______ _____ _____    ______ ____
ROOT
ATOM      1  C   UNL     1      44.190   4.108   9.628  0.00  0.00    +0.000 C 
ENDROOT
BRANCH   1   5
ATOM      2  C   UNL     1      46.930   2.136   7.018  0.00  0.00    +0.000 A 
ATOM      3  C   UNL     1      46.257   1.393   7.991  0.00  0.00    +0.000 A 
ATOM      4  C   UNL     1      45.359   2.026   8.845  0.00  0.00    +0.000 A 
ATOM      5  C   UNL     1      45.170   3.399   8.728  0.00  0.00    +0.000 A 
ATOM      6  N   UNL     1      45.822   4.148   7.800  0.00  0.00    +0.000 NA
ATOM      7  C   UNL     1      46.675   3.501   6.970  0.00  0.00    +0.000 A 
BRANCH   2   8
ATOM      8  C   UNL     1      47.877   1.478   6.057  0.00  0.00    +0.000 C 
BRANCH   8  13
ATOM      9  C   UNL     1      46.562  -1.150   3.616  0.00  0.00    +0.000 A 
ATOM     10  C   UNL     1      45.827  -0.360   2.733  0.00  0.00    +0.000 A 
ATOM     11  C   UNL     1      45.819   1.029   2.879  0.00  0.00    +0.000 A 
ATOM     12  C   UNL     1      46.519   1.633   3.925  0.00  0.00    +0.000 A 
ATOM     13  C   UNL     1      47.221   0.849   4.849  0.00  0.00    +0.000 A 
ATOM     14  C   UNL     1      47.267  -0.539   4.660  0.00  0.00    +0.000 A 
BRANCH   9  16
ATOM     15  C   UNL     1      46.489  -3.195   4.823  0.00  0.00    +0.000 C 
ATOM     16  O   UNL     1      46.656  -2.516   3.585  0.00  0.00    +0.000 OA
ENDBRANCH   9  16
ENDBRANCH   8  13
ENDBRANCH   2   8
ENDBRANCH   1   5
BRANCH   1  17
ATOM     17  N   UNL     1      44.752   5.298  10.226  0.00  0.00    +0.000 N 
ATOM     18  C   UNL     1      44.042   6.113  11.064  0.00  0.00    +0.000 C 
ATOM     19  O   UNL     1      42.872   5.889  11.359  0.00  0.00    +0.000 OA
ATOM     20  H   UNL     1      45.610   5.639   9.797  0.00  0.00    +0.000 HD
BRANCH  18  21
ATOM     21  C   UNL     1      44.781   7.231  11.666  0.00  0.00    +0.000 A 
ATOM     22  C   UNL     1      44.451   8.537  11.330  0.00  0.00    +0.000 A 
ATOM     23  S   UNL     1      45.378   9.711  12.152  0.00  0.00    +0.000 S 
ATOM     24  C   UNL     1      46.284   8.514  12.951  0.00  0.00    +0.000 A 
ATOM     25  N   UNL     1      47.291   8.849  13.804  0.00  0.00    +0.000 NA
ATOM     26  C   UNL     1      47.915   7.840  14.314  0.00  0.00    +0.000 A 
ATOM     27  N   UNL     1      47.618   6.527  14.058  0.00  0.00    +0.000 N 
ATOM     28  C   UNL     1      46.573   6.144  13.258  0.00  0.00    +0.000 A 
ATOM     29  O   UNL     1      46.263   4.963  13.140  0.00  0.00    +0.000 OA
ATOM     30  C   UNL     1      45.866   7.237  12.621  0.00  0.00    +0.000 A 
ATOM     31  H   UNL     1      48.123   5.783  14.512  0.00  0.00    +0.000 HD
ENDBRANCH  18  21
ENDBRANCH   1  17
TORSDOF 6
ENDMDL
MODEL 2
REMARK VINA RESULT:    -7.668      3.495      6.392
REMARK INTER + INTRA:         -11.347
REMARK INTER:                 -10.259
REMARK INTRA:                  -1.088
REMARK UNBOUND:                -0.989
REMARK  Name = 
REMARK  7 active torsions:
REMARK  status: ('A' for Active; 'I' for Inactive)
REMARK    1  A    between atoms: C_1  and  O_2
REMARK    2  A    between atoms: O_2  and  C_3
REMARK    3  A    between atoms: C_7  and  C_8
REMARK    4  A    between atoms: C_8  and  C_9
REMARK    5  A    between atoms: C_12  and  C_13
REMARK    6  A    between atoms: C_13  and  N_14
REMARK    7  A    between atoms: C_15  and  C_17
REMARK                            x       y       z     vdW  Elec       q    Type
REMARK                         _______ _______ _______ _____ _____    ______ ____
ROOT
ATOM      1  C   UNL     1      47.349   7.991  13.616  0.00  0.00    +0.000 C 
ENDROOT
BRANCH   1   5
ATOM      2  C   UNL     1      44.598   5.729  11.266  0.00  0.00    +0.000 A 
ATOM      3  C   UNL     1      44.377   7.096  11.451  0.00  0.00    +0.000 A 
ATOM      4  C   UNL     1      45.270   7.843  12.212  0.00  0.00    +0.000 A 
ATOM      5  C   UNL     1      46.356   7.203  12.800  0.00  0.00    +0.000 A 
ATOM      6  N   UNL     1      46.587   5.873  12.648  0.00  0.00    +0.000 NA
ATOM      7  C   UNL     1      45.712   5.175  11.886  0.00  0.00    +0.000 A 
BRANCH   2   8
ATOM      8  C   UNL     1      43.675   4.901  10.419  0.00  0.00    +0.000 C 
BRANCH   8  13
ATOM      9  C   UNL     1      45.850   3.419   7.652  0.00  0.00    +0.000 A 
ATOM     10  C   UNL     1      45.828   2.064   7.981  0.00  0.00    +0.000 A 
ATOM     11  C   UNL     1      45.048   1.618   9.052  0.00  0.00    +0.000 A 
ATOM     12  C   UNL     1      44.312   2.526   9.815  0.00  0.00    +0.000 A 
ATOM     13  C   UNL     1      44.363   3.895   9.526  0.00  0.00    +0.000 A 
ATOM     14  C   UNL     1      45.106   4.324   8.416  0.00  0.00    +0.000 A 
BRANCH   9  16
ATOM     15  C   UNL     1      46.995   3.115   5.592  0.00  0.00    +0.000 C 
ATOM     16  O   UNL     1      46.567   3.985   6.632  0.00  0.00    +0.000 OA
ENDBRANCH   9  16
ENDBRANCH   8  13
ENDBRANCH   2   8
ENDBRANCH   1   5
BRANCH   1  17
ATOM     17  N   UNL     1      47.723   7.312  14.836  0.00  0.00    +0.000 N 
ATOM     18  C   UNL     1      48.994   6.866  15.076  0.00  0.00    +0.000 C 
ATOM     19  O   UNL     1      49.902   7.009  14.263  0.00  0.00    +0.000 OA
ATOM     20  H   UNL     1      46.950   6.956  15.392  0.00  0.00    +0.000 HD
BRANCH  18  21
ATOM     21  C   UNL     1      49.238   6.279  16.401  0.00  0.00    +0.000 A 
ATOM     22  C   UNL     1      50.149   6.876  17.262  0.00  0.00    +0.000 A 
ATOM     23  S   UNL     1      50.278   6.093  18.772  0.00  0.00    +0.000 S 
ATOM     24  C   UNL     1      49.156   4.901  18.311  0.00  0.00    +0.000 A 
ATOM     25  N   UNL     1      48.827   3.884  19.154  0.00  0.00    +0.000 NA
ATOM     26  C   UNL     1      47.990   3.033  18.661  0.00  0.00    +0.000 A 
ATOM     27  N   UNL     1      47.441   3.113  17.408  0.00  0.00    +0.000 N 
ATOM     28  C   UNL     1      47.694   4.154  16.552  0.00  0.00    +0.000 A 
ATOM     29  O   UNL     1      47.099   4.256  15.483  0.00  0.00    +0.000 OA
ATOM     30  C   UNL     1      48.665   5.114  17.036  0.00  0.00    +0.000 A 
ATOM     31  H   UNL     1      46.768   2.434  17.092  0.00  0.00    +0.000 HD
ENDBRANCH  18  21
ENDBRANCH   1  17
TORSDOF 6
ENDMDL
MODEL 3
REMARK VINA RESULT:    -7.463      4.168      6.968
REMARK INTER + INTRA:         -11.069
REMARK INTER:                 -10.370
REMARK INTRA:                  -0.699
REMARK UNBOUND:                -0.989
REMARK  Name = 
REMARK  7 active torsions:
REMARK  status: ('A' for Active; 'I' for Inactive)
REMARK    1  A    between atoms: C_1  and  O_2
REMARK    2  A    between atoms: O_2  and  C_3
REMARK    3  A    between atoms: C_7  and  C_8
REMARK    4  A    between atoms: C_8  and  C_9
REMARK    5  A    between atoms: C_12  and  C_13
REMARK    6  A    between atoms: C_13  and  N_14
REMARK    7  A    between atoms: C_15  and  C_17
REMARK                            x       y       z     vdW  Elec       q    Type
REMARK                         _______ _______ _______ _____ _____    ______ ____
ROOT
ATOM      1  C   UNL     1      48.772   6.824  14.183  0.00  0.00    +0.000 C 
ENDROOT
BRANCH   1   5
ATOM      2  C   UNL     1      45.475   5.656  11.739  0.00  0.00    +0.000 A 
ATOM      3  C   UNL     1      46.295   6.708  11.324  0.00  0.00    +0.000 A 
ATOM      4  C   UNL     1      47.375   7.095  12.112  0.00  0.00    +0.000 A 
ATOM      5  C   UNL     1      47.600   6.438  13.317  0.00  0.00    +0.000 A 
ATOM      6  N   UNL     1      46.810   5.422  13.751  0.00  0.00    +0.000 NA
ATOM      7  C   UNL     1      45.778   5.054  12.954  0.00  0.00    +0.000 A 
BRANCH   2   8
ATOM      8  C   UNL     1      44.325   5.189  10.894  0.00  0.00    +0.000 C 
BRANCH   8  13
ATOM      9  C   UNL     1      45.832   3.515   7.810  0.00  0.00    +0.000 A 
ATOM     10  C   UNL     1      45.530   2.176   8.050  0.00  0.00    +0.000 A 
ATOM     11  C   UNL     1      44.772   1.820   9.168  0.00  0.00    +0.000 A 
ATOM     12  C   UNL     1      44.339   2.796  10.067  0.00  0.00    +0.000 A 
ATOM     13  C   UNL     1      44.677   4.140   9.866  0.00  0.00    +0.000 A 
ATOM     14  C   UNL     1      45.391   4.491   8.711  0.00  0.00    +0.000 A 
BRANCH   9  16
ATOM     15  C   UNL     1      46.934   3.059   5.755  0.00  0.00    +0.000 C 
ATOM     16  O   UNL     1      46.562   3.998   6.757  0.00  0.00    +0.000 OA
ENDBRANCH   9  16
ENDBRANCH   8  13
ENDBRANCH   2   8
ENDBRANCH   1   5
BRANCH   1  17
ATOM     17  N   UNL     1      48.409   6.959  15.575  0.00  0.00    +0.000 N 
ATOM     18  C   UNL     1      49.170   6.451  16.592  0.00  0.00    +0.000 C 
ATOM     19  O   UNL     1      50.213   5.838  16.386  0.00  0.00    +0.000 OA
ATOM     20  H   UNL     1      47.442   7.221  15.751  0.00  0.00    +0.000 HD
BRANCH  18  21
ATOM     21  C   UNL     1      48.717   6.752  17.957  0.00  0.00    +0.000 A 
ATOM     22  C   UNL     1      48.343   8.047  18.290  0.00  0.00    +0.000 A 
ATOM     23  S   UNL     1      47.802   8.211  19.900  0.00  0.00    +0.000 S 
ATOM     24  C   UNL     1      48.093   6.567  20.223  0.00  0.00    +0.000 A 
ATOM     25  N   UNL     1      47.863   6.043  21.458  0.00  0.00    +0.000 NA
ATOM     26  C   UNL     1      48.158   4.791  21.569  0.00  0.00    +0.000 A 
ATOM     27  N   UNL     1      48.651   4.011  20.556  0.00  0.00    +0.000 N 
ATOM     28  C   UNL     1      48.836   4.480  19.281  0.00  0.00    +0.000 A 
ATOM     29  O   UNL     1      49.171   3.729  18.370  0.00  0.00    +0.000 OA
ATOM     30  C   UNL     1      48.565   5.894  19.111  0.00  0.00    +0.000 A 
ATOM     31  H   UNL     1      48.833   3.030  20.697  0.00  0.00    +0.000 HD
ENDBRANCH  18  21
ENDBRANCH   1  17
TORSDOF 6
ENDMDL
MODEL 4
REMARK VINA RESULT:    -7.430      1.481      2.312
REMARK INTER + INTRA:         -11.025
REMARK INTER:                 -10.068
REMARK INTRA:                  -0.957
REMARK UNBOUND:                -0.989
REMARK  Name = 
REMARK  7 active torsions:
REMARK  status: ('A' for Active; 'I' for Inactive)
REMARK    1  A    between atoms: C_1  and  O_2
REMARK    2  A    between atoms: O_2  and  C_3
REMARK    3  A    between atoms: C_7  and  C_8
REMARK    4  A    between atoms: C_8  and  C_9
REMARK    5  A    between atoms: C_12  and  C_13
REMARK    6  A    between atoms: C_13  and  N_14
REMARK    7  A    between atoms: C_15  and  C_17
REMARK                            x       y       z     vdW  Elec       q    Type
REMARK                         _______ _______ _______ _____ _____    ______ ____
ROOT
ATOM      1  C   UNL     1      43.978   4.536   9.737  0.00  0.00    +0.000 C 
ENDROOT
BRANCH   1   5
ATOM      2  C   UNL     1      46.750   2.181   7.505  0.00  0.00    +0.000 A 
ATOM      3  C   UNL     1      45.878   1.550   8.395  0.00  0.00    +0.000 A 
ATOM      4  C   UNL     1      44.968   2.308   9.125  0.00  0.00    +0.000 A 
ATOM      5  C   UNL     1      44.965   3.691   8.971  0.00  0.00    +0.000 A 
ATOM      6  N   UNL     1      45.811   4.331   8.123  0.00  0.00    +0.000 NA
ATOM      7  C   UNL     1      46.673   3.565   7.412  0.00  0.00    +0.000 A 
BRANCH   2   8
ATOM      8  C   UNL     1      47.718   1.389   6.674  0.00  0.00    +0.000 C 
BRANCH   8  13
ATOM      9  C   UNL     1      46.594  -0.788   3.745  0.00  0.00    +0.000 A 
ATOM     10  C   UNL     1      46.044   0.166   2.889  0.00  0.00    +0.000 A 
ATOM     11  C   UNL     1      46.106   1.522   3.222  0.00  0.00    +0.000 A 
ATOM     12  C   UNL     1      46.689   1.927   4.424  0.00  0.00    +0.000 A 
ATOM     13  C   UNL     1      47.201   0.976   5.316  0.00  0.00    +0.000 A 
ATOM     14  C   UNL     1      47.182  -0.376   4.945  0.00  0.00    +0.000 A 
BRANCH   9  16
ATOM     15  C   UNL     1      46.567  -2.964   4.698  0.00  0.00    +0.000 C 
ATOM     16  O   UNL     1      46.602  -2.142   3.538  0.00  0.00    +0.000 OA
ENDBRANCH   9  16
ENDBRANCH   8  13
ENDBRANCH   2   8
ENDBRANCH   1   5
BRANCH   1  17
ATOM     17  N   UNL     1      44.565   5.763  10.225  0.00  0.00    +0.000 N 
ATOM     18  C   UNL     1      44.911   5.948  11.535  0.00  0.00    +0.000 C 
ATOM     19  O   UNL     1      44.739   5.082  12.387  0.00  0.00    +0.000 OA
ATOM     20  H   UNL     1      44.473   6.566   9.608  0.00  0.00    +0.000 HD
BRANCH  18  21
ATOM     21  C   UNL     1      45.585   7.214  11.857  0.00  0.00    +0.000 A 
ATOM     22  C   UNL     1      46.852   7.196  12.424  0.00  0.00    +0.000 A 
ATOM     23  S   UNL     1      47.504   8.750  12.693  0.00  0.00    +0.000 S 
ATOM     24  C   UNL     1      46.097   9.501  12.104  0.00  0.00    +0.000 A 
ATOM     25  N   UNL     1      45.982  10.858  12.084  0.00  0.00    +0.000 NA
ATOM     26  C   UNL     1      44.847  11.290  11.643  0.00  0.00    +0.000 A 
ATOM     27  N   UNL     1      43.822  10.491  11.209  0.00  0.00    +0.000 N 
ATOM     28  C   UNL     1      43.919   9.124  11.151  0.00  0.00    +0.000 A 
ATOM     29  O   UNL     1      43.027   8.445  10.651  0.00  0.00    +0.000 OA
ATOM     30  C   UNL     1      45.155   8.582  11.679  0.00  0.00    +0.000 A 
ATOM     31  H   UNL     1      42.971  10.890  10.846  0.00  0.00    +0.000 HD
ENDBRANCH  18  21
ENDBRANCH   1  17
TORSDOF 6
ENDMDL
MODEL 5
REMARK VINA RESULT:    -7.262      4.057      6.952
REMARK INTER + INTRA:         -10.798
REMARK INTER:                  -9.809
REMARK INTRA:                  -0.989
REMARK UNBOUND:                -0.989
REMARK  Name = 
REMARK  7 active torsions:
REMARK  status: ('A' for Active; 'I' for Inactive)
REMARK    1  A    between atoms: C_1  and  O_2
REMARK    2  A    between atoms: O_2  and  C_3
REMARK    3  A    between atoms: C_7  and  C_8
REMARK    4  A    between atoms: C_8  and  C_9
REMARK    5  A    between atoms: C_12  and  C_13
REMARK    6  A    between atoms: C_13  and  N_14
REMARK    7  A    between atoms: C_15  and  C_17
REMARK                            x       y       z     vdW  Elec       q    Type
REMARK                         _______ _______ _______ _____ _____    ______ ____
ROOT
ATOM      1  C   UNL     1      48.696   6.755  14.293  0.00  0.00    +0.000 C 
ENDROOT
BRANCH   1   5
ATOM      2  C   UNL     1      45.437   5.642  11.773  0.00  0.00    +0.000 A 
ATOM      3  C   UNL     1      46.266   6.700  11.392  0.00  0.00    +0.000 A 
ATOM      4  C   UNL     1      47.333   7.068  12.204  0.00  0.00    +0.000 A 
ATOM      5  C   UNL     1      47.537   6.388  13.400  0.00  0.00    +0.000 A 
ATOM      6  N   UNL     1      46.738   5.366  13.802  0.00  0.00    +0.000 NA
ATOM      7  C   UNL     1      45.718   5.016  12.981  0.00  0.00    +0.000 A 
BRANCH   2   8
ATOM      8  C   UNL     1      44.299   5.194  10.900  0.00  0.00    +0.000 C 
BRANCH   8  13
ATOM      9  C   UNL     1      45.815   3.519   7.821  0.00  0.00    +0.000 A 
ATOM     10  C   UNL     1      45.529   2.178   8.069  0.00  0.00    +0.000 A 
ATOM     11  C   UNL     1      44.779   1.820   9.193  0.00  0.00    +0.000 A 
ATOM     12  C   UNL     1      44.338   2.796  10.087  0.00  0.00    +0.000 A 
ATOM     13  C   UNL     1      44.659   4.143   9.877  0.00  0.00    +0.000 A 
ATOM     14  C   UNL     1      45.366   4.495   8.717  0.00  0.00    +0.000 A 
BRANCH   9  16
ATOM     15  C   UNL     1      46.913   3.064   5.763  0.00  0.00    +0.000 C 
ATOM     16  O   UNL     1      46.535   4.004   6.762  0.00  0.00    +0.000 OA
ENDBRANCH   9  16
ENDBRANCH   8  13
ENDBRANCH   2   8
ENDBRANCH   1   5
BRANCH   1  17
ATOM     17  N   UNL     1      48.353   6.695  15.695  0.00  0.00    +0.000 N 
ATOM     18  C   UNL     1      49.208   6.212  16.647  0.00  0.00    +0.000 C 
ATOM     19  O   UNL     1      50.327   5.792  16.369  0.00  0.00    +0.000 OA
ATOM     20  H   UNL     1      47.362   6.786  15.907  0.00  0.00    +0.000 HD
BRANCH  18  21
ATOM     21  C   UNL     1      48.750   6.305  18.040  0.00  0.00    +0.000 A 
ATOM     22  C   UNL     1      48.802   5.185  18.859  0.00  0.00    +0.000 A 
ATOM     23  S   UNL     1      48.274   5.478  20.455  0.00  0.00    +0.000 S 
ATOM     24  C   UNL     1      47.914   7.100  20.095  0.00  0.00    +0.000 A 
ATOM     25  N   UNL     1      47.386   7.928  21.039  0.00  0.00    +0.000 NA
ATOM     26  C   UNL     1      47.131   9.122  20.618  0.00  0.00    +0.000 A 
ATOM     27  N   UNL     1      47.367   9.569  19.345  0.00  0.00    +0.000 N 
ATOM     28  C   UNL     1      47.957   8.790  18.382  0.00  0.00    +0.000 A 
ATOM     29  O   UNL     1      48.258   9.255  17.287  0.00  0.00    +0.000 OA
ATOM     30  C   UNL     1      48.221   7.424  18.786  0.00  0.00    +0.000 A 
ATOM     31  H   UNL     1      47.176  10.523  19.086  0.00  0.00    +0.000 HD
ENDBRANCH  18  21
ENDBRANCH   1  17
TORSDOF 6
ENDMDL
MODEL 6
REMARK VINA RESULT:    -7.065      6.059      9.961
REMARK INTER + INTRA:         -10.531
REMARK INTER:                  -9.244
REMARK INTRA:                  -1.287
REMARK UNBOUND:                -0.989
REMARK  Name = 
REMARK  7 active torsions:
REMARK  status: ('A' for Active; 'I' for Inactive)
REMARK    1  A    between atoms: C_1  and  O_2
REMARK    2  A    between atoms: O_2  and  C_3
REMARK    3  A    between atoms: C_7  and  C_8
REMARK    4  A    between atoms: C_8  and  C_9
REMARK    5  A    between atoms: C_12  and  C_13
REMARK    6  A    between atoms: C_13  and  N_14
REMARK    7  A    between atoms: C_15  and  C_17
REMARK                            x       y       z     vdW  Elec       q    Type
REMARK                         _______ _______ _______ _____ _____    ______ ____
ROOT
ATOM      1  C   UNL     1      48.413   8.765  15.088  0.00  0.00    +0.000 C 
ENDROOT
BRANCH   1   5
ATOM      2  C   UNL     1      50.853   6.237  17.510  0.00  0.00    +0.000 A 
ATOM      3  C   UNL     1      51.317   6.638  16.256  0.00  0.00    +0.000 A 
ATOM      4  C   UNL     1      50.532   7.465  15.460  0.00  0.00    +0.000 A 
ATOM      5  C   UNL     1      49.279   7.855  15.922  0.00  0.00    +0.000 A 
ATOM      6  N   UNL     1      48.796   7.468  17.132  0.00  0.00    +0.000 NA
ATOM      7  C   UNL     1      49.592   6.679  17.893  0.00  0.00    +0.000 A 
BRANCH   2   8
ATOM      8  C   UNL     1      51.692   5.376  18.410  0.00  0.00    +0.000 C 
BRANCH   8  13
ATOM      9  C   UNL     1      50.583   2.013  16.978  0.00  0.00    +0.000 A 
ATOM     10  C   UNL     1      51.680   1.209  17.283  0.00  0.00    +0.000 A 
ATOM     11  C   UNL     1      52.746   1.733  18.020  0.00  0.00    +0.000 A 
ATOM     12  C   UNL     1      52.734   3.067  18.428  0.00  0.00    +0.000 A 
ATOM     13  C   UNL     1      51.661   3.900  18.086  0.00  0.00    +0.000 A 
ATOM     14  C   UNL     1      50.573   3.349  17.394  0.00  0.00    +0.000 A 
BRANCH   9  16
ATOM     15  C   UNL     1      48.344   2.481  16.336  0.00  0.00    +0.000 C 
ATOM     16  O   UNL     1      49.478   1.626  16.268  0.00  0.00    +0.000 OA
ENDBRANCH   9  16
ENDBRANCH   8  13
ENDBRANCH   2   8
ENDBRANCH   1   5
BRANCH   1  17
ATOM     17  N   UNL     1      47.341   8.054  14.430  0.00  0.00    +0.000 N 
ATOM     18  C   UNL     1      47.158   8.077  13.074  0.00  0.00    +0.000 C 
ATOM     19  O   UNL     1      47.894   8.713  12.326  0.00  0.00    +0.000 OA
ATOM     20  H   UNL     1      46.583   7.747  15.036  0.00  0.00    +0.000 HD
BRANCH  18  21
ATOM     21  C   UNL     1      46.082   7.228  12.547  0.00  0.00    +0.000 A 
ATOM     22  C   UNL     1      45.036   7.800  11.836  0.00  0.00    +0.000 A 
ATOM     23  S   UNL     1      43.898   6.667  11.260  0.00  0.00    +0.000 S 
ATOM     24  C   UNL     1      44.738   5.376  11.981  0.00  0.00    +0.000 A 
ATOM     25  N   UNL     1      44.272   4.100  11.893  0.00  0.00    +0.000 NA
ATOM     26  C   UNL     1      44.991   3.226  12.515  0.00  0.00    +0.000 A 
ATOM     27  N   UNL     1      46.140   3.509  13.206  0.00  0.00    +0.000 N 
ATOM     28  C   UNL     1      46.679   4.768  13.267  0.00  0.00    +0.000 A 
ATOM     29  O   UNL     1      47.768   4.968  13.798  0.00  0.00    +0.000 OA
ATOM     30  C   UNL     1      45.887   5.797  12.625  0.00  0.00    +0.000 A 
ATOM     31  H   UNL     1      46.675   2.777  13.645  0.00  0.00    +0.000 HD
ENDBRANCH  18  21
ENDBRANCH   1  17
TORSDOF 6
ENDMDL
MODEL 7
REMARK VINA RESULT:    -6.981      5.604     12.164
REMARK INTER + INTRA:         -10.418
REMARK INTER:                  -9.256
REMARK INTRA:                  -1.162
REMARK UNBOUND:                -0.989
REMARK  Name = 
REMARK  7 active torsions:
REMARK  status: ('A' for Active; 'I' for Inactive)
REMARK    1  A    between atoms: C_1  and  O_2
REMARK    2  A    between atoms: O_2  and  C_3
REMARK    3  A    between atoms: C_7  and  C_8
REMARK    4  A    between atoms: C_8  and  C_9
REMARK    5  A    between atoms: C_12  and  C_13
REMARK    6  A    between atoms: C_13  and  N_14
REMARK    7  A    between atoms: C_15  and  C_17
REMARK                            x       y       z     vdW  Elec       q    Type
REMARK                         _______ _______ _______ _____ _____    ______ ____
ROOT
ATOM      1  C   UNL     1      47.670   3.779  16.134  0.00  0.00    +0.000 C 
ENDROOT
BRANCH   1   5
ATOM      2  C   UNL     1      48.184   6.242  19.581  0.00  0.00    +0.000 A 
ATOM      3  C   UNL     1      49.294   5.924  18.796  0.00  0.00    +0.000 A 
ATOM      4  C   UNL     1      49.137   5.125  17.668  0.00  0.00    +0.000 A 
ATOM      5  C   UNL     1      47.873   4.634  17.360  0.00  0.00    +0.000 A 
ATOM      6  N   UNL     1      46.778   4.915  18.115  0.00  0.00    +0.000 NA
ATOM      7  C   UNL     1      46.959   5.712  19.195  0.00  0.00    +0.000 A 
BRANCH   2   8
ATOM      8  C   UNL     1      48.313   7.132  20.784  0.00  0.00    +0.000 C 
BRANCH   8  13
ATOM      9  C   UNL     1      47.297  10.486  19.265  0.00  0.00    +0.000 A 
ATOM     10  C   UNL     1      46.390  10.954  20.215  0.00  0.00    +0.000 A 
ATOM     11  C   UNL     1      46.164  10.223  21.385  0.00  0.00    +0.000 A 
ATOM     12  C   UNL     1      46.819   9.009  21.595  0.00  0.00    +0.000 A 
ATOM     13  C   UNL     1      47.696   8.503  20.628  0.00  0.00    +0.000 A 
ATOM     14  C   UNL     1      47.955   9.272  19.484  0.00  0.00    +0.000 A 
BRANCH   9  16
ATOM     15  C   UNL     1      48.285  10.313  17.112  0.00  0.00    +0.000 C 
ATOM     16  O   UNL     1      47.610  11.102  18.083  0.00  0.00    +0.000 OA
ENDBRANCH   9  16
ENDBRANCH   8  13
ENDBRANCH   2   8
ENDBRANCH   1   5
BRANCH   1  17
ATOM     17  N   UNL     1      46.794   4.401  15.168  0.00  0.00    +0.000 N 
ATOM     18  C   UNL     1      47.233   5.317  14.251  0.00  0.00    +0.000 C 
ATOM     19  O   UNL     1      48.405   5.677  14.195  0.00  0.00    +0.000 OA
ATOM     20  H   UNL     1      45.799   4.321  15.364  0.00  0.00    +0.000 HD
BRANCH  18  21
ATOM     21  C   UNL     1      46.241   5.787  13.275  0.00  0.00    +0.000 A 
ATOM     22  C   UNL     1      46.087   7.148  13.047  0.00  0.00    +0.000 A 
ATOM     23  S   UNL     1      44.926   7.517  11.853  0.00  0.00    +0.000 S 
ATOM     24  C   UNL     1      44.554   5.872  11.630  0.00  0.00    +0.000 A 
ATOM     25  N   UNL     1      43.595   5.483  10.746  0.00  0.00    +0.000 NA
ATOM     26  C   UNL     1      43.394   4.208  10.705  0.00  0.00    +0.000 A 
ATOM     27  N   UNL     1      44.072   3.285  11.456  0.00  0.00    +0.000 N 
ATOM     28  C   UNL     1      45.090   3.626  12.310  0.00  0.00    +0.000 A 
ATOM     29  O   UNL     1      45.753   2.767  12.882  0.00  0.00    +0.000 OA
ATOM     30  C   UNL     1      45.326   5.051  12.432  0.00  0.00    +0.000 A 
ATOM     31  H   UNL     1      43.891   2.299  11.355  0.00  0.00    +0.000 HD
ENDBRANCH  18  21
ENDBRANCH   1  17
TORSDOF 6
ENDMDL
MODEL 8
REMARK VINA RESULT:    -6.911      4.902      8.802
REMARK INTER + INTRA:         -10.324
REMARK INTER:                  -9.322
REMARK INTRA:                  -1.001
REMARK UNBOUND:                -0.989
REMARK  Name = 
REMARK  7 active torsions:
REMARK  status: ('A' for Active; 'I' for Inactive)
REMARK    1  A    between atoms: C_1  and  O_2
REMARK    2  A    between atoms: O_2  and  C_3
REMARK    3  A    between atoms: C_7  and  C_8
REMARK    4  A    between atoms: C_8  and  C_9
REMARK    5  A    between atoms: C_12  and  C_13
REMARK    6  A    between atoms: C_13  and  N_14
REMARK    7  A    between atoms: C_15  and  C_17
REMARK                            x       y       z     vdW  Elec       q    Type
REMARK                         _______ _______ _______ _____ _____    ______ ____
ROOT
ATOM      1  C   UNL     1      49.215   7.616  16.345  0.00  0.00    +0.000 C 
ENDROOT
BRANCH   1   5
ATOM      2  C   UNL     1      47.189   6.757  12.689  0.00  0.00    +0.000 A 
ATOM      3  C   UNL     1      47.323   8.084  13.101  0.00  0.00    +0.000 A 
ATOM      4  C   UNL     1      47.985   8.376  14.289  0.00  0.00    +0.000 A 
ATOM      5  C   UNL     1      48.479   7.329  15.061  0.00  0.00    +0.000 A 
ATOM      6  N   UNL     1      48.349   6.028  14.691  0.00  0.00    +0.000 NA
ATOM      7  C   UNL     1      47.718   5.776  13.520  0.00  0.00    +0.000 A 
BRANCH   2   8
ATOM      8  C   UNL     1      46.513   6.410  11.393  0.00  0.00    +0.000 C 
BRANCH   8  13
ATOM      9  C   UNL     1      44.007   3.597  10.766  0.00  0.00    +0.000 A 
ATOM     10  C   UNL     1      43.174   3.719  11.877  0.00  0.00    +0.000 A 
ATOM     11  C   UNL     1      43.374   4.759  12.789  0.00  0.00    +0.000 A 
ATOM     12  C   UNL     1      44.424   5.660  12.612  0.00  0.00    +0.000 A 
ATOM     13  C   UNL     1      45.299   5.521  11.528  0.00  0.00    +0.000 A 
ATOM     14  C   UNL     1      45.055   4.507  10.590  0.00  0.00    +0.000 A 
BRANCH   9  16
ATOM     15  C   UNL     1      45.144   2.195   9.221  0.00  0.00    +0.000 C 
ATOM     16  O   UNL     1      43.921   2.631   9.800  0.00  0.00    +0.000 OA
ENDBRANCH   9  16
ENDBRANCH   8  13
ENDBRANCH   2   8
ENDBRANCH   1   5
BRANCH   1  17
ATOM     17  N   UNL     1      50.194   6.601  16.658  0.00  0.00    +0.000 N 
ATOM     18  C   UNL     1      50.551   6.285  17.940  0.00  0.00    +0.000 C 
ATOM     19  O   UNL     1      50.064   6.851  18.913  0.00  0.00    +0.000 OA
ATOM     20  H   UNL     1      50.788   6.313  15.883  0.00  0.00    +0.000 HD
BRANCH  18  21
ATOM     21  C   UNL     1      51.489   5.165  18.097  0.00  0.00    +0.000 A 
ATOM     22  C   UNL     1      52.752   5.392  18.627  0.00  0.00    +0.000 A 
ATOM     23  S   UNL     1      53.695   3.979  18.781  0.00  0.00    +0.000 S 
ATOM     24  C   UNL     1      52.466   3.020  18.102  0.00  0.00    +0.000 A 
ATOM     25  N   UNL     1      52.642   1.683  17.916  0.00  0.00    +0.000 NA
ATOM     26  C   UNL     1      51.640   1.086  17.360  0.00  0.00    +0.000 A 
ATOM     27  N   UNL     1      50.475   1.701  16.985  0.00  0.00    +0.000 N 
ATOM     28  C   UNL     1      50.230   3.031  17.212  0.00  0.00    +0.000 A 
ATOM     29  O   UNL     1      49.134   3.526  16.968  0.00  0.00    +0.000 OA
ATOM     30  C   UNL     1      51.340   3.760  17.791  0.00  0.00    +0.000 A 
ATOM     31  H   UNL     1      49.716   1.174  16.583  0.00  0.00    +0.000 HD
ENDBRANCH  18  21
ENDBRANCH   1  17
TORSDOF 6
ENDMDL
MODEL 9
REMARK VINA RESULT:    -6.800      5.485     12.716
REMARK INTER + INTRA:         -10.173
REMARK INTER:                  -9.217
REMARK INTRA:                  -0.956
REMARK UNBOUND:                -0.989
REMARK  Name = 
REMARK  7 active torsions:
REMARK  status: ('A' for Active; 'I' for Inactive)
REMARK    1  A    between atoms: C_1  and  O_2
REMARK    2  A    between atoms: O_2  and  C_3
REMARK    3  A    between atoms: C_7  and  C_8
REMARK    4  A    between atoms: C_8  and  C_9
REMARK    5  A    between atoms: C_12  and  C_13
REMARK    6  A    between atoms: C_13  and  N_14
REMARK    7  A    between atoms: C_15  and  C_17
REMARK                            x       y       z     vdW  Elec       q    Type
REMARK                         _______ _______ _______ _____ _____    ______ ____
ROOT
ATOM      1  C   UNL     1      47.915   4.480  16.214  0.00  0.00    +0.000 C 
ENDROOT
BRANCH   1   5
ATOM      2  C   UNL     1      48.036   7.290  19.423  0.00  0.00    +0.000 A 
ATOM      3  C   UNL     1      48.961   7.400  18.382  0.00  0.00    +0.000 A 
ATOM      4  C   UNL     1      48.928   6.492  17.329  0.00  0.00    +0.000 A 
ATOM      5  C   UNL     1      47.985   5.469  17.350  0.00  0.00    +0.000 A 
ATOM      6  N   UNL     1      47.084   5.330  18.357  0.00  0.00    +0.000 NA
ATOM      7  C   UNL     1      47.127   6.241  19.358  0.00  0.00    +0.000 A 
BRANCH   2   8
ATOM      8  C   UNL     1      48.020   8.276  20.555  0.00  0.00    +0.000 C 
BRANCH   8  13
ATOM      9  C   UNL     1      45.599  11.203  20.957  0.00  0.00    +0.000 A 
ATOM     10  C   UNL     1      45.983  12.024  19.899  0.00  0.00    +0.000 A 
ATOM     11  C   UNL     1      46.973  11.600  19.008  0.00  0.00    +0.000 A 
ATOM     12  C   UNL     1      47.602  10.367  19.188  0.00  0.00    +0.000 A 
ATOM     13  C   UNL     1      47.261   9.552  20.275  0.00  0.00    +0.000 A 
ATOM     14  C   UNL     1      46.229   9.965  21.130  0.00  0.00    +0.000 A 
BRANCH   9  16
ATOM     15  C   UNL     1      43.290  11.379  21.488  0.00  0.00    +0.000 C 
ATOM     16  O   UNL     1      44.647  11.496  21.896  0.00  0.00    +0.000 OA
ENDBRANCH   9  16
ENDBRANCH   8  13
ENDBRANCH   2   8
ENDBRANCH   1   5
BRANCH   1  17
ATOM     17  N   UNL     1      46.972   4.878  15.193  0.00  0.00    +0.000 N 
ATOM     18  C   UNL     1      47.337   5.592  14.085  0.00  0.00    +0.000 C 
ATOM     19  O   UNL     1      48.495   5.948  13.887  0.00  0.00    +0.000 OA
ATOM     20  H   UNL     1      45.992   4.826  15.460  0.00  0.00    +0.000 HD
BRANCH  18  21
ATOM     21  C   UNL     1      46.281   5.837  13.093  0.00  0.00    +0.000 A 
ATOM     22  C   UNL     1      45.983   7.138  12.711  0.00  0.00    +0.000 A 
ATOM     23  S   UNL     1      44.765   7.240  11.520  0.00  0.00    +0.000 S 
ATOM     24  C   UNL     1      44.561   5.552  11.507  0.00  0.00    +0.000 A 
ATOM     25  N   UNL     1      43.629   4.964  10.708  0.00  0.00    +0.000 NA
ATOM     26  C   UNL     1      43.560   3.680  10.824  0.00  0.00    +0.000 A 
ATOM     27  N   UNL     1      44.346   2.928  11.657  0.00  0.00    +0.000 N 
ATOM     28  C   UNL     1      45.341   3.471  12.430  0.00  0.00    +0.000 A 
ATOM     29  O   UNL     1      46.101   2.758  13.079  0.00  0.00    +0.000 OA
ATOM     30  C   UNL     1      45.431   4.916  12.374  0.00  0.00    +0.000 A 
ATOM     31  H   UNL     1      44.267   1.924  11.681  0.00  0.00    +0.000 HD
ENDBRANCH  18  21
ENDBRANCH   1  17
TORSDOF 6
ENDMDL
