MODEL 1
REMARK VINA RESULT:    -9.221      0.000      0.000
REMARK INTER + INTRA:         -12.179
REMARK INTER:                 -12.185
REMARK INTRA:                   0.007
REMARK UNBOUND:                 0.007
REMARK  Name = 
REMARK  6 active torsions:
REMARK  status: ('A' for Active; 'I' for Inactive)
REMARK    1  A    between atoms: N_1  and  C_2
REMARK    2  A    between atoms: C_5  and  C_6
REMARK    3  A    between atoms: C_6  and  C_7
REMARK    4  A    between atoms: C_10  and  C_11
REMARK    5  A    between atoms: C_11  and  N_12
REMARK    6  A    between atoms: C_13  and  C_15
REMARK                            x       y       z     vdW  Elec       q    Type
REMARK                         _______ _______ _______ _____ _____    ______ ____
ROOT
ATOM      1  C   UNL     1      44.951   4.059  10.345  0.00  0.00    +0.000 A 
ATOM      2  C   UNL     1      45.190   3.810  11.695  0.00  0.00    +0.000 A 
ATOM      3  C   UNL     1      45.712   4.829  12.493  0.00  0.00    +0.000 A 
ATOM      4  C   UNL     1      46.000   6.072  11.933  0.00  0.00    +0.000 A 
ATOM      5  C   UNL     1      45.729   6.233  10.579  0.00  0.00    +0.000 A 
ATOM      6  N   UNL     1      45.213   5.263   9.781  0.00  0.00    +0.000 NA
ENDROOT
BRANCH   1   7
ATOM      7  C   UNL     1      44.340   2.988   9.466  0.00  0.00    +0.000 C 
BRANCH   7  11
ATOM      8  C   UNL     1      47.743   2.204   6.762  0.00  0.00    +0.000 C 
ATOM      9  C   UNL     1      46.843   3.416   6.506  0.00  0.00    +0.000 C 
ATOM     10  C   UNL     1      46.060   3.799   7.761  0.00  0.00    +0.000 C 
ATOM     11  C   UNL     1      45.200   2.619   8.242  0.00  0.00    +0.000 C 
ATOM     12  C   UNL     1      46.117   1.420   8.550  0.00  0.00    +0.000 C 
ATOM     13  C   UNL     1      46.946   1.021   7.325  0.00  0.00    +0.000 C 
BRANCH   8  14
ATOM     14  N   UNL     1      48.420   1.808   5.527  0.00  0.00    +0.000 NA
ATOM     15  H   UNL     1      49.294   2.328   5.437  0.00  0.00    +0.000 HD
ATOM     16  H   UNL     1      47.855   2.083   4.724  0.00  0.00    +0.000 HD
ENDBRANCH   8  14
ENDBRANCH   7  11
ENDBRANCH   1   7
BRANCH   4  17
ATOM     17  C   UNL     1      46.534   7.200  12.766  0.00  0.00    +0.000 C 
BRANCH  17  18
ATOM     18  N   UNL     1      46.956   6.745  14.069  0.00  0.00    +0.000 N 
ATOM     19  C   UNL     1      48.286   6.564  14.358  0.00  0.00    +0.000 C 
ATOM     20  O   UNL     1      49.164   6.806  13.532  0.00  0.00    +0.000 OA
ATOM     21  H   UNL     1      46.254   6.326  14.672  0.00  0.00    +0.000 HD
BRANCH  19  22
ATOM     22  C   UNL     1      48.619   6.127  15.721  0.00  0.00    +0.000 A 
ATOM     23  C   UNL     1      49.420   6.931  16.521  0.00  0.00    +0.000 A 
ATOM     24  S   UNL     1      49.669   6.309  18.089  0.00  0.00    +0.000 S 
ATOM     25  C   UNL     1      48.760   4.915  17.740  0.00  0.00    +0.000 A 
ATOM     26  N   UNL     1      48.598   3.935  18.669  0.00  0.00    +0.000 NA
ATOM     27  C   UNL     1      47.909   2.922  18.262  0.00  0.00    +0.000 A 
ATOM     28  N   UNL     1      47.363   2.802  17.011  0.00  0.00    +0.000 N 
ATOM     29  C   UNL     1      47.478   3.779  16.049  0.00  0.00    +0.000 A 
ATOM     30  O   UNL     1      46.945   3.660  14.951  0.00  0.00    +0.000 OA
ATOM     31  C   UNL     1      48.254   4.935  16.452  0.00  0.00    +0.000 A 
ATOM     32  H   UNL     1      46.826   1.986  16.758  0.00  0.00    +0.000 HD
ENDBRANCH  19  22
ENDBRANCH  17  18
ENDBRANCH   4  17
TORSDOF 6
ENDMDL
MODEL 2
REMARK VINA RESULT:    -8.959      1.609      2.175
REMARK INTER + INTRA:         -11.833
REMARK INTER:                 -11.483
REMARK INTRA:                  -0.351
REMARK UNBOUND:                 0.007
REMARK  Name = 
REMARK  6 active torsions:
REMARK  status: ('A' for Active; 'I' for Inactive)
REMARK    1  A    between atoms: N_1  and  C_2
REMARK    2  A    between atoms: C_5  and  C_6
REMARK    3  A    between atoms: C_6  and  C_7
REMARK    4  A    between atoms: C_10  and  C_11
REMARK    5  A    between atoms: C_11  and  N_12
REMARK    6  A    between atoms: C_13  and  C_15
REMARK                            x       y       z     vdW  Elec       q    Type
REMARK                         _______ _______ _______ _____ _____    ______ ____
ROOT
ATOM      1  C   UNL     1      44.956   4.224  10.445  0.00  0.00    +0.000 A 
ATOM      2  C   UNL     1      45.176   3.640  11.690  0.00  0.00    +0.000 A 
ATOM      3  C   UNL     1      45.840   4.371  12.676  0.00  0.00    +0.000 A 
ATOM      4  C   UNL     1      46.287   5.663  12.402  0.00  0.00    +0.000 A 
ATOM      5  C   UNL     1      46.023   6.166  11.134  0.00  0.00    +0.000 A 
ATOM      6  N   UNL     1      45.372   5.482  10.158  0.00  0.00    +0.000 NA
ENDROOT
BRANCH   1   7
ATOM      7  C   UNL     1      44.196   3.472   9.372  0.00  0.00    +0.000 C 
BRANCH   7  11
ATOM      8  C   UNL     1      47.667   2.179   6.965  0.00  0.00    +0.000 C 
ATOM      9  C   UNL     1      46.883   3.425   6.545  0.00  0.00    +0.000 C 
ATOM     10  C   UNL     1      46.066   3.984   7.709  0.00  0.00    +0.000 C 
ATOM     11  C   UNL     1      45.089   2.924   8.241  0.00  0.00    +0.000 C 
ATOM     12  C   UNL     1      45.887   1.695   8.713  0.00  0.00    +0.000 C 
ATOM     13  C   UNL     1      46.747   1.118   7.583  0.00  0.00    +0.000 C 
BRANCH   8  14
ATOM     14  N   UNL     1      48.376   1.617   5.815  0.00  0.00    +0.000 NA
ATOM     15  H   UNL     1      47.700   1.324   5.109  0.00  0.00    +0.000 HD
ATOM     16  H   UNL     1      48.863   0.765   6.097  0.00  0.00    +0.000 HD
ENDBRANCH   8  14
ENDBRANCH   7  11
ENDBRANCH   1   7
BRANCH   4  17
ATOM     17  C   UNL     1      46.978   6.488  13.447  0.00  0.00    +0.000 C 
BRANCH  17  18
ATOM     18  N   UNL     1      47.121   5.766  14.688  0.00  0.00    +0.000 N 
ATOM     19  C   UNL     1      48.287   5.826  15.411  0.00  0.00    +0.000 C 
ATOM     20  O   UNL     1      49.238   6.514  15.046  0.00  0.00    +0.000 OA
ATOM     21  H   UNL     1      46.452   5.026  14.882  0.00  0.00    +0.000 HD
BRANCH  19  22
ATOM     22  C   UNL     1      48.325   5.080  16.677  0.00  0.00    +0.000 A 
ATOM     23  C   UNL     1      48.218   3.695  16.658  0.00  0.00    +0.000 A 
ATOM     24  S   UNL     1      48.333   2.976  18.199  0.00  0.00    +0.000 S 
ATOM     25  C   UNL     1      48.477   4.492  18.956  0.00  0.00    +0.000 A 
ATOM     26  N   UNL     1      48.587   4.591  20.308  0.00  0.00    +0.000 NA
ATOM     27  C   UNL     1      48.661   5.801  20.751  0.00  0.00    +0.000 A 
ATOM     28  N   UNL     1      48.641   6.922  19.963  0.00  0.00    +0.000 N 
ATOM     29  C   UNL     1      48.558   6.870  18.590  0.00  0.00    +0.000 A 
ATOM     30  O   UNL     1      48.583   7.889  17.910  0.00  0.00    +0.000 OA
ATOM     31  C   UNL     1      48.461   5.532  18.042  0.00  0.00    +0.000 A 
ATOM     32  H   UNL     1      48.712   7.842  20.372  0.00  0.00    +0.000 HD
ENDBRANCH  19  22
ENDBRANCH  17  18
ENDBRANCH   4  17
TORSDOF 6
ENDMDL
MODEL 3
REMARK VINA RESULT:    -8.928      2.511      4.306
REMARK INTER + INTRA:         -11.792
REMARK INTER:                 -11.004
REMARK INTRA:                  -0.788
REMARK UNBOUND:                 0.007
REMARK  Name = 
REMARK  6 active torsions:
REMARK  status: ('A' for Active; 'I' for Inactive)
REMARK    1  A    between atoms: N_1  and  C_2
REMARK    2  A    between atoms: C_5  and  C_6
REMARK    3  A    between atoms: C_6  and  C_7
REMARK    4  A    between atoms: C_10  and  C_11
REMARK    5  A    between atoms: C_11  and  N_12
REMARK    6  A    between atoms: C_13  and  C_15
REMARK                            x       y       z     vdW  Elec       q    Type
REMARK                         _______ _______ _______ _____ _____    ______ ____
ROOT
ATOM      1  C   UNL     1      44.812   4.114  10.378  0.00  0.00    +0.000 A 
ATOM      2  C   UNL     1      45.385   5.380  10.481  0.00  0.00    +0.000 A 
ATOM      3  C   UNL     1      46.052   5.732  11.655  0.00  0.00    +0.000 A 
ATOM      4  C   UNL     1      46.125   4.825  12.712  0.00  0.00    +0.000 A 
ATOM      5  C   UNL     1      45.526   3.585  12.522  0.00  0.00    +0.000 A 
ATOM      6  N   UNL     1      44.879   3.213  11.389  0.00  0.00    +0.000 NA
ENDROOT
BRANCH   1   7
ATOM      7  C   UNL     1      44.124   3.688   9.099  0.00  0.00    +0.000 C 
BRANCH   7  11
ATOM      8  C   UNL     1      47.725   2.313   6.943  0.00  0.00    +0.000 C 
ATOM      9  C   UNL     1      46.976   3.551   6.442  0.00  0.00    +0.000 C 
ATOM     10  C   UNL     1      46.094   4.145   7.539  0.00  0.00    +0.000 C 
ATOM     11  C   UNL     1      45.080   3.105   8.040  0.00  0.00    +0.000 C 
ATOM     12  C   UNL     1      45.840   1.884   8.592  0.00  0.00    +0.000 C 
ATOM     13  C   UNL     1      46.762   1.274   7.532  0.00  0.00    +0.000 C 
BRANCH   8  14
ATOM     14  N   UNL     1      48.499   1.716   5.854  0.00  0.00    +0.000 NA
ATOM     15  H   UNL     1      49.210   2.377   5.540  0.00  0.00    +0.000 HD
ATOM     16  H   UNL     1      47.893   1.564   5.048  0.00  0.00    +0.000 HD
ENDBRANCH   8  14
ENDBRANCH   7  11
ENDBRANCH   1   7
BRANCH   4  17
ATOM     17  C   UNL     1      46.859   5.159  13.977  0.00  0.00    +0.000 C 
BRANCH  17  18
ATOM     18  N   UNL     1      47.285   6.537  13.998  0.00  0.00    +0.000 N 
ATOM     19  C   UNL     1      48.420   6.915  14.672  0.00  0.00    +0.000 C 
ATOM     20  O   UNL     1      49.126   6.097  15.257  0.00  0.00    +0.000 OA
ATOM     21  H   UNL     1      46.608   7.244  13.727  0.00  0.00    +0.000 HD
BRANCH  19  22
ATOM     22  C   UNL     1      48.789   8.337  14.611  0.00  0.00    +0.000 A 
ATOM     23  C   UNL     1      48.880   9.071  15.786  0.00  0.00    +0.000 A 
ATOM     24  S   UNL     1      49.367  10.687  15.550  0.00  0.00    +0.000 S 
ATOM     25  C   UNL     1      49.424  10.482  13.863  0.00  0.00    +0.000 A 
ATOM     26  N   UNL     1      49.755  11.515  13.043  0.00  0.00    +0.000 NA
ATOM     27  C   UNL     1      49.731  11.228  11.785  0.00  0.00    +0.000 A 
ATOM     28  N   UNL     1      49.412   9.998  11.272  0.00  0.00    +0.000 N 
ATOM     29  C   UNL     1      49.097   8.917  12.063  0.00  0.00    +0.000 A 
ATOM     30  O   UNL     1      48.854   7.819  11.576  0.00  0.00    +0.000 OA
ATOM     31  C   UNL     1      49.097   9.190  13.486  0.00  0.00    +0.000 A 
ATOM     32  H   UNL     1      49.421   9.836  10.276  0.00  0.00    +0.000 HD
ENDBRANCH  19  22
ENDBRANCH  17  18
ENDBRANCH   4  17
TORSDOF 6
ENDMDL
MODEL 4
REMARK VINA RESULT:    -8.848      3.524      4.518
REMARK INTER + INTRA:         -11.686
REMARK INTER:                 -10.668
REMARK INTRA:                  -1.018
REMARK UNBOUND:                 0.007
REMARK  Name = 
REMARK  6 active torsions:
REMARK  status: ('A' for Active; 'I' for Inactive)
REMARK    1  A    between atoms: N_1  and  C_2
REMARK    2  A    between atoms: C_5  and  C_6
REMARK    3  A    between atoms: C_6  and  C_7
REMARK    4  A    between atoms: C_10  and  C_11
REMARK    5  A    between atoms: C_11  and  N_12
REMARK    6  A    between atoms: C_13  and  C_15
REMARK                            x       y       z     vdW  Elec       q    Type
REMARK                         _______ _______ _______ _____ _____    ______ ____
ROOT
ATOM      1  C   UNL     1      44.494   3.347  10.490  0.00  0.00    +0.000 A 
ATOM      2  C   UNL     1      43.692   4.449  10.202  0.00  0.00    +0.000 A 
ATOM      3  C   UNL     1      43.677   5.529  11.086  0.00  0.00    +0.000 A 
ATOM      4  C   UNL     1      44.448   5.488  12.247  0.00  0.00    +0.000 A 
ATOM      5  C   UNL     1      45.218   4.350  12.453  0.00  0.00    +0.000 A 
ATOM      6  N   UNL     1      45.259   3.289  11.607  0.00  0.00    +0.000 NA
ENDROOT
BRANCH   1   7
ATOM      7  C   UNL     1      44.567   2.182   9.525  0.00  0.00    +0.000 C 
BRANCH   7  11
ATOM      8  C   UNL     1      47.221   1.888   6.006  0.00  0.00    +0.000 C 
ATOM      9  C   UNL     1      47.395   0.901   7.164  0.00  0.00    +0.000 C 
ATOM     10  C   UNL     1      46.136   0.833   8.027  0.00  0.00    +0.000 C 
ATOM     11  C   UNL     1      45.792   2.221   8.590  0.00  0.00    +0.000 C 
ATOM     12  C   UNL     1      45.565   3.197   7.420  0.00  0.00    +0.000 C 
ATOM     13  C   UNL     1      46.794   3.273   6.509  0.00  0.00    +0.000 C 
BRANCH   8  14
ATOM     14  N   UNL     1      48.464   1.995   5.243  0.00  0.00    +0.000 NA
ATOM     15  H   UNL     1      48.253   1.980   4.245  0.00  0.00    +0.000 HD
ATOM     16  H   UNL     1      49.041   1.171   5.412  0.00  0.00    +0.000 HD
ENDBRANCH   8  14
ENDBRANCH   7  11
ENDBRANCH   1   7
BRANCH   4  17
ATOM     17  C   UNL     1      44.478   6.643  13.205  0.00  0.00    +0.000 C 
BRANCH  17  18
ATOM     18  N   UNL     1      45.693   7.412  13.073  0.00  0.00    +0.000 N 
ATOM     19  C   UNL     1      45.762   8.481  12.216  0.00  0.00    +0.000 C 
ATOM     20  O   UNL     1      44.792   8.839  11.551  0.00  0.00    +0.000 OA
ATOM     21  H   UNL     1      46.551   7.000  13.428  0.00  0.00    +0.000 HD
BRANCH  19  22
ATOM     22  C   UNL     1      47.032   9.220  12.173  0.00  0.00    +0.000 A 
ATOM     23  C   UNL     1      47.017  10.599  12.017  0.00  0.00    +0.000 A 
ATOM     24  S   UNL     1      48.565  11.311  12.040  0.00  0.00    +0.000 S 
ATOM     25  C   UNL     1      49.319   9.796  12.206  0.00  0.00    +0.000 A 
ATOM     26  N   UNL     1      50.674   9.691  12.261  0.00  0.00    +0.000 NA
ATOM     27  C   UNL     1      51.113   8.481  12.360  0.00  0.00    +0.000 A 
ATOM     28  N   UNL     1      50.319   7.366  12.414  0.00  0.00    +0.000 N 
ATOM     29  C   UNL     1      48.944   7.425  12.388  0.00  0.00    +0.000 A 
ATOM     30  O   UNL     1      48.259   6.413  12.479  0.00  0.00    +0.000 OA
ATOM     31  C   UNL     1      48.400   8.763  12.266  0.00  0.00    +0.000 A 
ATOM     32  H   UNL     1      50.725   6.447  12.500  0.00  0.00    +0.000 HD
ENDBRANCH  19  22
ENDBRANCH  17  18
ENDBRANCH   4  17
TORSDOF 6
ENDMDL
MODEL 5
REMARK VINA RESULT:    -8.482      2.886      3.878
REMARK INTER + INTRA:         -11.203
REMARK INTER:                 -10.540
REMARK INTRA:                  -0.663
REMARK UNBOUND:                 0.007
REMARK  Name = 
REMARK  6 active torsions:
REMARK  status: ('A' for Active; 'I' for Inactive)
REMARK    1  A    between atoms: N_1  and  C_2
REMARK    2  A    between atoms: C_5  and  C_6
REMARK    3  A    between atoms: C_6  and  C_7
REMARK    4  A    between atoms: C_10  and  C_11
REMARK    5  A    between atoms: C_11  and  N_12
REMARK    6  A    between atoms: C_13  and  C_15
REMARK                            x       y       z     vdW  Elec       q    Type
REMARK                         _______ _______ _______ _____ _____    ______ ____
ROOT
ATOM      1  C   UNL     1      44.799   3.956  10.289  0.00  0.00    +0.000 A 
ATOM      2  C   UNL     1      44.892   3.208  11.460  0.00  0.00    +0.000 A 
ATOM      3  C   UNL     1      45.483   3.780  12.588  0.00  0.00    +0.000 A 
ATOM      4  C   UNL     1      45.985   5.079  12.526  0.00  0.00    +0.000 A 
ATOM      5  C   UNL     1      45.848   5.752  11.317  0.00  0.00    +0.000 A 
ATOM      6  N   UNL     1      45.270   5.224  10.208  0.00  0.00    +0.000 NA
ENDROOT
BRANCH   1   7
ATOM      7  C   UNL     1      44.119   3.378   9.065  0.00  0.00    +0.000 C 
BRANCH   7  11
ATOM      8  C   UNL     1      47.775   2.270   6.849  0.00  0.00    +0.000 C 
ATOM      9  C   UNL     1      46.925   3.445   6.357  0.00  0.00    +0.000 C 
ATOM     10  C   UNL     1      46.020   3.976   7.468  0.00  0.00    +0.000 C 
ATOM     11  C   UNL     1      45.097   2.864   7.991  0.00  0.00    +0.000 C 
ATOM     12  C   UNL     1      45.958   1.708   8.534  0.00  0.00    +0.000 C 
ATOM     13  C   UNL     1      46.905   1.164   7.459  0.00  0.00    +0.000 C 
BRANCH   8  14
ATOM     14  N   UNL     1      48.572   1.728   5.748  0.00  0.00    +0.000 NA
ATOM     15  H   UNL     1      48.689   0.723   5.876  0.00  0.00    +0.000 HD
ATOM     16  H   UNL     1      49.514   2.119   5.783  0.00  0.00    +0.000 HD
ENDBRANCH   8  14
ENDBRANCH   7  11
ENDBRANCH   1   7
BRANCH   4  17
ATOM     17  C   UNL     1      46.601   5.736  13.726  0.00  0.00    +0.000 C 
BRANCH  17  18
ATOM     18  N   UNL     1      47.836   6.403  13.393  0.00  0.00    +0.000 N 
ATOM     19  C   UNL     1      47.908   7.774  13.342  0.00  0.00    +0.000 C 
ATOM     20  O   UNL     1      46.937   8.480  13.602  0.00  0.00    +0.000 OA
ATOM     21  H   UNL     1      48.568   5.849  12.957  0.00  0.00    +0.000 HD
BRANCH  19  22
ATOM     22  C   UNL     1      49.217   8.361  13.022  0.00  0.00    +0.000 A 
ATOM     23  C   UNL     1      49.339   9.204  11.926  0.00  0.00    +0.000 A 
ATOM     24  S   UNL     1      50.906   9.843  11.722  0.00  0.00    +0.000 S 
ATOM     25  C   UNL     1      51.494   8.974  13.059  0.00  0.00    +0.000 A 
ATOM     26  N   UNL     1      52.802   9.054  13.425  0.00  0.00    +0.000 NA
ATOM     27  C   UNL     1      53.118   8.321  14.440  0.00  0.00    +0.000 A 
ATOM     28  N   UNL     1      52.244   7.521  15.126  0.00  0.00    +0.000 N 
ATOM     29  C   UNL     1      50.907   7.429  14.810  0.00  0.00    +0.000 A 
ATOM     30  O   UNL     1      50.141   6.735  15.468  0.00  0.00    +0.000 OA
ATOM     31  C   UNL     1      50.502   8.224  13.668  0.00  0.00    +0.000 A 
ATOM     32  H   UNL     1      52.553   6.979  15.919  0.00  0.00    +0.000 HD
ENDBRANCH  19  22
ENDBRANCH  17  18
ENDBRANCH   4  17
TORSDOF 6
ENDMDL
MODEL 6
REMARK VINA RESULT:    -8.115      1.693      2.230
REMARK INTER + INTRA:         -10.718
REMARK INTER:                 -10.123
REMARK INTRA:                  -0.595
REMARK UNBOUND:                 0.007
REMARK  Name = 
REMARK  6 active torsions:
REMARK  status: ('A' for Active; 'I' for Inactive)
REMARK    1  A    between atoms: N_1  and  C_2
REMARK    2  A    between atoms: C_5  and  C_6
REMARK    3  A    between atoms: C_6  and  C_7
REMARK    4  A    between atoms: C_10  and  C_11
REMARK    5  A    between atoms: C_11  and  N_12
REMARK    6  A    between atoms: C_13  and  C_15
REMARK                            x       y       z     vdW  Elec       q    Type
REMARK                         _______ _______ _______ _____ _____    ______ ____
ROOT
ATOM      1  C   UNL     1      44.975   5.450  11.383  0.00  0.00    +0.000 A 
ATOM      2  C   UNL     1      45.250   6.801  11.184  0.00  0.00    +0.000 A 
ATOM      3  C   UNL     1      46.292   7.396  11.897  0.00  0.00    +0.000 A 
ATOM      4  C   UNL     1      47.032   6.641  12.807  0.00  0.00    +0.000 A 
ATOM      5  C   UNL     1      46.688   5.301  12.941  0.00  0.00    +0.000 A 
ATOM      6  N   UNL     1      45.687   4.694  12.255  0.00  0.00    +0.000 NA
ENDROOT
BRANCH   1   7
ATOM      7  C   UNL     1      43.883   4.767  10.588  0.00  0.00    +0.000 C 
BRANCH   7  11
ATOM      8  C   UNL     1      46.412   2.273   7.963  0.00  0.00    +0.000 C 
ATOM      9  C   UNL     1      46.070   3.704   7.539  0.00  0.00    +0.000 C 
ATOM     10  C   UNL     1      45.627   4.544   8.735  0.00  0.00    +0.000 C 
ATOM     11  C   UNL     1      44.404   3.911   9.418  0.00  0.00    +0.000 C 
ATOM     12  C   UNL     1      44.771   2.491   9.890  0.00  0.00    +0.000 C 
ATOM     13  C   UNL     1      45.251   1.620   8.725  0.00  0.00    +0.000 C 
BRANCH   8  14
ATOM     14  N   UNL     1      46.756   1.467   6.791  0.00  0.00    +0.000 NA
ATOM     15  H   UNL     1      47.744   1.217   6.828  0.00  0.00    +0.000 HD
ATOM     16  H   UNL     1      46.648   2.029   5.946  0.00  0.00    +0.000 HD
ENDBRANCH   8  14
ENDBRANCH   7  11
ENDBRANCH   1   7
BRANCH   4  17
ATOM     17  C   UNL     1      48.177   7.240  13.569  0.00  0.00    +0.000 C 
BRANCH  17  18
ATOM     18  N   UNL     1      47.971   7.152  14.995  0.00  0.00    +0.000 N 
ATOM     19  C   UNL     1      49.009   6.845  15.840  0.00  0.00    +0.000 C 
ATOM     20  O   UNL     1      50.149   6.661  15.422  0.00  0.00    +0.000 OA
ATOM     21  H   UNL     1      47.015   7.070  15.329  0.00  0.00    +0.000 HD
BRANCH  19  22
ATOM     22  C   UNL     1      48.707   6.808  17.279  0.00  0.00    +0.000 A 
ATOM     23  C   UNL     1      48.317   7.972  17.927  0.00  0.00    +0.000 A 
ATOM     24  S   UNL     1      47.953   7.751  19.577  0.00  0.00    +0.000 S 
ATOM     25  C   UNL     1      48.356   6.101  19.501  0.00  0.00    +0.000 A 
ATOM     26  N   UNL     1      48.288   5.313  20.608  0.00  0.00    +0.000 NA
ATOM     27  C   UNL     1      48.648   4.088  20.414  0.00  0.00    +0.000 A 
ATOM     28  N   UNL     1      49.065   3.579  19.213  0.00  0.00    +0.000 N 
ATOM     29  C   UNL     1      49.124   4.331  18.062  0.00  0.00    +0.000 A 
ATOM     30  O   UNL     1      49.463   3.837  16.993  0.00  0.00    +0.000 OA
ATOM     31  C   UNL     1      48.741   5.718  18.228  0.00  0.00    +0.000 A 
ATOM     32  H   UNL     1      49.324   2.607  19.126  0.00  0.00    +0.000 HD
ENDBRANCH  19  22
ENDBRANCH  17  18
ENDBRANCH   4  17
TORSDOF 6
ENDMDL
MODEL 7
REMARK VINA RESULT:    -7.908      2.439      3.233
REMARK INTER + INTRA:         -10.444
REMARK INTER:                 -10.205
REMARK INTRA:                  -0.239
REMARK UNBOUND:                 0.007
REMARK  Name = 
REMARK  6 active torsions:
REMARK  status: ('A' for Active; 'I' for Inactive)
REMARK    1  A    between atoms: N_1  and  C_2
REMARK    2  A    between atoms: C_5  and  C_6
REMARK    3  A    between atoms: C_6  and  C_7
REMARK    4  A    between atoms: C_10  and  C_11
REMARK    5  A    between atoms: C_11  and  N_12
REMARK    6  A    between atoms: C_13  and  C_15
REMARK                            x       y       z     vdW  Elec       q    Type
REMARK                         _______ _______ _______ _____ _____    ______ ____
ROOT
ATOM      1  C   UNL     1      44.858   4.239  10.711  0.00  0.00    +0.000 A 
ATOM      2  C   UNL     1      44.801   3.174  11.608  0.00  0.00    +0.000 A 
ATOM      3  C   UNL     1      45.390   3.312  12.865  0.00  0.00    +0.000 A 
ATOM      4  C   UNL     1      46.038   4.500  13.203  0.00  0.00    +0.000 A 
ATOM      5  C   UNL     1      46.046   5.509  12.247  0.00  0.00    +0.000 A 
ATOM      6  N   UNL     1      45.473   5.406  11.021  0.00  0.00    +0.000 NA
ENDROOT
BRANCH   1   7
ATOM      7  C   UNL     1      44.185   4.135   9.358  0.00  0.00    +0.000 C 
BRANCH   7  11
ATOM      8  C   UNL     1      47.519   2.260   7.148  0.00  0.00    +0.000 C 
ATOM      9  C   UNL     1      46.887   3.546   6.608  0.00  0.00    +0.000 C 
ATOM     10  C   UNL     1      46.124   4.290   7.702  0.00  0.00    +0.000 C 
ATOM     11  C   UNL     1      45.025   3.396   8.298  0.00  0.00    +0.000 C 
ATOM     12  C   UNL     1      45.672   2.129   8.888  0.00  0.00    +0.000 C 
ATOM     13  C   UNL     1      46.475   1.366   7.830  0.00  0.00    +0.000 C 
BRANCH   8  14
ATOM     14  N   UNL     1      48.174   1.526   6.066  0.00  0.00    +0.000 NA
ATOM     15  H   UNL     1      48.899   2.111   5.648  0.00  0.00    +0.000 HD
ATOM     16  H   UNL     1      47.504   1.347   5.318  0.00  0.00    +0.000 HD
ENDBRANCH   8  14
ENDBRANCH   7  11
ENDBRANCH   1   7
BRANCH   4  17
ATOM     17  C   UNL     1      46.658   4.694  14.556  0.00  0.00    +0.000 C 
BRANCH  17  18
ATOM     18  N   UNL     1      47.698   5.693  14.527  0.00  0.00    +0.000 N 
ATOM     19  C   UNL     1      48.358   6.059  15.674  0.00  0.00    +0.000 C 
ATOM     20  O   UNL     1      48.109   5.535  16.757  0.00  0.00    +0.000 OA
ATOM     21  H   UNL     1      47.754   6.290  13.707  0.00  0.00    +0.000 HD
BRANCH  19  22
ATOM     22  C   UNL     1      49.422   7.064  15.539  0.00  0.00    +0.000 A 
ATOM     23  C   UNL     1      49.146   8.272  14.911  0.00  0.00    +0.000 A 
ATOM     24  S   UNL     1      50.468   9.348  14.881  0.00  0.00    +0.000 S 
ATOM     25  C   UNL     1      51.475   8.220  15.658  0.00  0.00    +0.000 A 
ATOM     26  N   UNL     1      52.779   8.507  15.917  0.00  0.00    +0.000 NA
ATOM     27  C   UNL     1      53.434   7.551  16.485  0.00  0.00    +0.000 A 
ATOM     28  N   UNL     1      52.903   6.335  16.823  0.00  0.00    +0.000 N 
ATOM     29  C   UNL     1      51.583   6.009  16.605  0.00  0.00    +0.000 A 
ATOM     30  O   UNL     1      51.127   4.926  16.954  0.00  0.00    +0.000 OA
ATOM     31  C   UNL     1      50.805   7.045  15.957  0.00  0.00    +0.000 A 
ATOM     32  H   UNL     1      53.468   5.631  17.274  0.00  0.00    +0.000 HD
ENDBRANCH  19  22
ENDBRANCH  17  18
ENDBRANCH   4  17
TORSDOF 6
ENDMDL
MODEL 8
REMARK VINA RESULT:    -7.749      1.724      2.319
REMARK INTER + INTRA:         -10.234
REMARK INTER:                  -9.323
REMARK INTRA:                  -0.911
REMARK UNBOUND:                 0.007
REMARK  Name = 
REMARK  6 active torsions:
REMARK  status: ('A' for Active; 'I' for Inactive)
REMARK    1  A    between atoms: N_1  and  C_2
REMARK    2  A    between atoms: C_5  and  C_6
REMARK    3  A    between atoms: C_6  and  C_7
REMARK    4  A    between atoms: C_10  and  C_11
REMARK    5  A    between atoms: C_11  and  N_12
REMARK    6  A    between atoms: C_13  and  C_15
REMARK                            x       y       z     vdW  Elec       q    Type
REMARK                         _______ _______ _______ _____ _____    ______ ____
ROOT
ATOM      1  C   UNL     1      45.102   4.882  11.053  0.00  0.00    +0.000 A 
ATOM      2  C   UNL     1      45.079   6.230  10.703  0.00  0.00    +0.000 A 
ATOM      3  C   UNL     1      45.615   7.171  11.584  0.00  0.00    +0.000 A 
ATOM      4  C   UNL     1      46.150   6.756  12.803  0.00  0.00    +0.000 A 
ATOM      5  C   UNL     1      46.132   5.392  13.069  0.00  0.00    +0.000 A 
ATOM      6  N   UNL     1      45.627   4.454  12.228  0.00  0.00    +0.000 NA
ENDROOT
BRANCH   1   7
ATOM      7  C   UNL     1      44.573   3.834  10.096  0.00  0.00    +0.000 C 
BRANCH   7  11
ATOM      8  C   UNL     1      46.717   1.960   6.720  0.00  0.00    +0.000 C 
ATOM      9  C   UNL     1      46.430   1.137   7.978  0.00  0.00    +0.000 C 
ATOM     10  C   UNL     1      45.301   1.757   8.800  0.00  0.00    +0.000 C 
ATOM     11  C   UNL     1      45.656   3.197   9.205  0.00  0.00    +0.000 C 
ATOM     12  C   UNL     1      45.892   4.034   7.934  0.00  0.00    +0.000 C 
ATOM     13  C   UNL     1      46.997   3.430   7.062  0.00  0.00    +0.000 C 
BRANCH   8  14
ATOM     14  N   UNL     1      47.853   1.392   5.993  0.00  0.00    +0.000 NA
ATOM     15  H   UNL     1      47.657   0.417   5.765  0.00  0.00    +0.000 HD
ATOM     16  H   UNL     1      48.672   1.371   6.600  0.00  0.00    +0.000 HD
ENDBRANCH   8  14
ENDBRANCH   7  11
ENDBRANCH   1   7
BRANCH   4  17
ATOM     17  C   UNL     1      46.760   7.736  13.761  0.00  0.00    +0.000 C 
BRANCH  17  18
ATOM     18  N   UNL     1      47.981   7.228  14.337  0.00  0.00    +0.000 N 
ATOM     19  C   UNL     1      48.648   7.929  15.311  0.00  0.00    +0.000 C 
ATOM     20  O   UNL     1      48.220   8.996  15.746  0.00  0.00    +0.000 OA
ATOM     21  H   UNL     1      48.463   6.485  13.839  0.00  0.00    +0.000 HD
BRANCH  19  22
ATOM     22  C   UNL     1      49.867   7.316  15.857  0.00  0.00    +0.000 A 
ATOM     23  C   UNL     1      51.091   7.947  15.677  0.00  0.00    +0.000 A 
ATOM     24  S   UNL     1      52.398   7.137  16.413  0.00  0.00    +0.000 S 
ATOM     25  C   UNL     1      51.386   5.883  16.954  0.00  0.00    +0.000 A 
ATOM     26  N   UNL     1      51.891   4.827  17.648  0.00  0.00    +0.000 NA
ATOM     27  C   UNL     1      51.017   3.934  17.973  0.00  0.00    +0.000 A 
ATOM     28  N   UNL     1      49.682   4.004  17.673  0.00  0.00    +0.000 N 
ATOM     29  C   UNL     1      49.122   5.065  16.998  0.00  0.00    +0.000 A 
ATOM     30  O   UNL     1      47.917   5.119  16.778  0.00  0.00    +0.000 OA
ATOM     31  C   UNL     1      50.064   6.091  16.598  0.00  0.00    +0.000 A 
ATOM     32  H   UNL     1      49.048   3.275  17.965  0.00  0.00    +0.000 HD
ENDBRANCH  19  22
ENDBRANCH  17  18
ENDBRANCH   4  17
TORSDOF 6
ENDMDL
