MODEL 1
REMARK VINA RESULT:    -9.216      0.000      0.000
REMARK INTER + INTRA:         -13.350
REMARK INTER:                 -12.448
REMARK INTRA:                  -0.902
REMARK UNBOUND:                -0.902
REMARK  Name = 
REMARK  6 active torsions:
REMARK  status: ('A' for Active; 'I' for Inactive)
REMARK    1  A    between atoms: C_2  and  C_4
REMARK    2  A    between atoms: C_7  and  N_8
REMARK    3  A    between atoms: N_8  and  C_9
REMARK    4  A    between atoms: C_9  and  C_10
REMARK    5  A    between atoms: C_12  and  C_13
REMARK    6  A    between atoms: C_20  and  N_21
REMARK                            x       y       z     vdW  Elec       q    Type
REMARK                         _______ _______ _______ _____ _____    ______ ____
ROOT
ATOM      1  C   UNL     1      44.599   5.208  11.872  0.00  0.00    +0.000 A 
ATOM      2  C   UNL     1      44.849   6.585  11.689  0.00  0.00    +0.000 A 
ATOM      3  C   UNL     1      45.856   7.278  12.390  0.00  0.00    +0.000 A 
ATOM      4  C   UNL     1      46.643   6.531  13.281  0.00  0.00    +0.000 A 
ATOM      5  C   UNL     1      46.422   5.156  13.460  0.00  0.00    +0.000 A 
ATOM      6  C   UNL     1      45.402   4.491  12.763  0.00  0.00    +0.000 A 
ENDROOT
BRANCH   3   7
ATOM      7  C   UNL     1      46.057   8.733  12.213  0.00  0.00    +0.000 A 
ATOM      8  C   UNL     1      47.331   9.318  12.152  0.00  0.00    +0.000 A 
ATOM      9  C   UNL     1      47.478  10.698  12.004  0.00  0.00    +0.000 A 
ATOM     10  C   UNL     1      46.338  11.475  11.908  0.00  0.00    +0.000 A 
ATOM     11  N   UNL     1      45.090  10.969  11.956  0.00  0.00    +0.000 NA
ATOM     12  C   UNL     1      44.985   9.626  12.110  0.00  0.00    +0.000 A 
ENDBRANCH   3   7
BRANCH   5  13
ATOM     13  N   UNL     1      47.268   4.411  14.402  0.00  0.00    +0.000 N 
ATOM     14  O   UNL     1      47.882   5.055  15.265  0.00  0.00    +0.000 OA
ATOM     15  O   UNL     1      47.319   3.179  14.278  0.00  0.00    +0.000 OA
ENDBRANCH   5  13
BRANCH   1  16
ATOM     16  C   UNL     1      43.476   4.551  11.093  0.00  0.00    +0.000 C 
BRANCH  16  17
ATOM     17  N   UNL     1      43.710   4.789   9.674  0.00  0.00    +0.000 N 
ATOM     18  H   UNL     1      42.848   4.774   9.137  0.00  0.00    +0.000 HD
BRANCH  17  22
ATOM     19  C   UNL     1      46.415   2.345   7.776  0.00  0.00    +0.000 A 
ATOM     20  C   UNL     1      46.417   3.711   7.547  0.00  0.00    +0.000 A 
ATOM     21  N   UNL     1      45.561   4.563   8.179  0.00  0.00    +0.000 NA
ATOM     22  C   UNL     1      44.697   4.013   9.057  0.00  0.00    +0.000 A 
ATOM     23  C   UNL     1      44.720   2.626   9.279  0.00  0.00    +0.000 A 
ATOM     24  N   UNL     1      45.566   1.759   8.661  0.00  0.00    +0.000 NA
BRANCH  19  26
ATOM     25  N   UNL     1      48.460   2.068   6.506  0.00  0.00    +0.000 N 
ATOM     26  C   UNL     1      47.344   1.462   7.016  0.00  0.00    +0.000 C 
ATOM     27  O   UNL     1      47.132   0.266   6.869  0.00  0.00    +0.000 OA
ATOM     28  H   UNL     1      49.148   1.512   6.020  0.00  0.00    +0.000 HD
ATOM     29  H   UNL     1      48.632   3.050   6.686  0.00  0.00    +0.000 HD
ENDBRANCH  19  26
ENDBRANCH  17  22
ENDBRANCH  16  17
ENDBRANCH   1  16
TORSDOF 6
ENDMDL
MODEL 2
REMARK VINA RESULT:    -9.062      1.033      1.250
REMARK INTER + INTRA:         -13.142
REMARK INTER:                 -12.337
REMARK INTRA:                  -0.805
REMARK UNBOUND:                -0.902
REMARK  Name = 
REMARK  6 active torsions:
REMARK  status: ('A' for Active; 'I' for Inactive)
REMARK    1  A    between atoms: C_2  and  C_4
REMARK    2  A    between atoms: C_7  and  N_8
REMARK    3  A    between atoms: N_8  and  C_9
REMARK    4  A    between atoms: C_9  and  C_10
REMARK    5  A    between atoms: C_12  and  C_13
REMARK    6  A    between atoms: C_20  and  N_21
REMARK                            x       y       z     vdW  Elec       q    Type
REMARK                         _______ _______ _______ _____ _____    ______ ____
ROOT
ATOM      1  C   UNL     1      44.784   5.182  11.918  0.00  0.00    +0.000 A 
ATOM      2  C   UNL     1      45.410   6.419  11.657  0.00  0.00    +0.000 A 
ATOM      3  C   UNL     1      46.524   6.879  12.387  0.00  0.00    +0.000 A 
ATOM      4  C   UNL     1      47.022   6.036  13.392  0.00  0.00    +0.000 A 
ATOM      5  C   UNL     1      46.424   4.792  13.651  0.00  0.00    +0.000 A 
ATOM      6  C   UNL     1      45.305   4.361  12.923  0.00  0.00    +0.000 A 
ENDROOT
BRANCH   3   7
ATOM      7  C   UNL     1      47.124   8.206  12.121  0.00  0.00    +0.000 A 
ATOM      8  C   UNL     1      48.481   8.370  11.802  0.00  0.00    +0.000 A 
ATOM      9  C   UNL     1      49.013   9.641  11.578  0.00  0.00    +0.000 A 
ATOM     10  C   UNL     1      48.170  10.733  11.669  0.00  0.00    +0.000 A 
ATOM     11  N   UNL     1      46.861  10.636  11.968  0.00  0.00    +0.000 NA
ATOM     12  C   UNL     1      46.379   9.388  12.188  0.00  0.00    +0.000 A 
ENDBRANCH   3   7
BRANCH   5  13
ATOM     13  N   UNL     1      46.975   3.939  14.713  0.00  0.00    +0.000 N 
ATOM     14  O   UNL     1      47.552   2.894  14.378  0.00  0.00    +0.000 OA
ATOM     15  O   UNL     1      46.829   4.314  15.885  0.00  0.00    +0.000 OA
ENDBRANCH   5  13
BRANCH   1  16
ATOM     16  C   UNL     1      43.573   4.779  11.098  0.00  0.00    +0.000 C 
BRANCH  16  17
ATOM     17  N   UNL     1      43.904   4.947   9.688  0.00  0.00    +0.000 N 
ATOM     18  H   UNL     1      43.075   5.048   9.110  0.00  0.00    +0.000 HD
BRANCH  17  22
ATOM     19  C   UNL     1      46.297   2.068   7.990  0.00  0.00    +0.000 A 
ATOM     20  C   UNL     1      46.423   3.397   7.623  0.00  0.00    +0.000 A 
ATOM     21  N   UNL     1      45.676   4.389   8.183  0.00  0.00    +0.000 NA
ATOM     22  C   UNL     1      44.791   4.018   9.132  0.00  0.00    +0.000 A 
ATOM     23  C   UNL     1      44.687   2.665   9.494  0.00  0.00    +0.000 A 
ATOM     24  N   UNL     1      45.423   1.660   8.950  0.00  0.00    +0.000 NA
BRANCH  19  26
ATOM     25  N   UNL     1      46.810  -0.271   7.626  0.00  0.00    +0.000 N 
ATOM     26  C   UNL     1      47.110   1.024   7.304  0.00  0.00    +0.000 C 
ATOM     27  O   UNL     1      47.981   1.305   6.493  0.00  0.00    +0.000 OA
ATOM     28  H   UNL     1      47.297  -1.024   7.161  0.00  0.00    +0.000 HD
ATOM     29  H   UNL     1      46.051  -0.474   8.266  0.00  0.00    +0.000 HD
ENDBRANCH  19  26
ENDBRANCH  17  22
ENDBRANCH  16  17
ENDBRANCH   1  16
TORSDOF 6
ENDMDL
MODEL 3
REMARK VINA RESULT:    -8.234      2.209      4.347
REMARK INTER + INTRA:         -12.024
REMARK INTER:                 -11.159
REMARK INTRA:                  -0.865
REMARK UNBOUND:                -0.902
REMARK  Name = 
REMARK  6 active torsions:
REMARK  status: ('A' for Active; 'I' for Inactive)
REMARK    1  A    between atoms: C_2  and  C_4
REMARK    2  A    between atoms: C_7  and  N_8
REMARK    3  A    between atoms: N_8  and  C_9
REMARK    4  A    between atoms: C_9  and  C_10
REMARK    5  A    between atoms: C_12  and  C_13
REMARK    6  A    between atoms: C_20  and  N_21
REMARK                            x       y       z     vdW  Elec       q    Type
REMARK                         _______ _______ _______ _____ _____    ______ ____
ROOT
ATOM      1  C   UNL     1      44.648   5.340  11.946  0.00  0.00    +0.000 A 
ATOM      2  C   UNL     1      45.334   4.677  12.986  0.00  0.00    +0.000 A 
ATOM      3  C   UNL     1      46.341   5.296  13.752  0.00  0.00    +0.000 A 
ATOM      4  C   UNL     1      46.632   6.637  13.460  0.00  0.00    +0.000 A 
ATOM      5  C   UNL     1      45.945   7.319  12.442  0.00  0.00    +0.000 A 
ATOM      6  C   UNL     1      44.957   6.677  11.681  0.00  0.00    +0.000 A 
ENDROOT
BRANCH   3   7
ATOM      7  C   UNL     1      47.077   4.555  14.801  0.00  0.00    +0.000 A 
ATOM      8  C   UNL     1      47.519   5.163  15.986  0.00  0.00    +0.000 A 
ATOM      9  C   UNL     1      48.228   4.433  16.942  0.00  0.00    +0.000 A 
ATOM     10  C   UNL     1      48.476   3.095  16.698  0.00  0.00    +0.000 A 
ATOM     11  N   UNL     1      48.074   2.458  15.581  0.00  0.00    +0.000 NA
ATOM     12  C   UNL     1      47.396   3.199  14.670  0.00  0.00    +0.000 A 
ENDBRANCH   3   7
BRANCH   5  13
ATOM     13  N   UNL     1      46.280   8.723  12.167  0.00  0.00    +0.000 N 
ATOM     14  O   UNL     1      47.466   9.003  11.936  0.00  0.00    +0.000 OA
ATOM     15  O   UNL     1      45.355   9.548  12.185  0.00  0.00    +0.000 OA
ENDBRANCH   5  13
BRANCH   1  16
ATOM     16  C   UNL     1      43.596   4.585  11.156  0.00  0.00    +0.000 C 
BRANCH  16  17
ATOM     17  N   UNL     1      43.824   4.840   9.739  0.00  0.00    +0.000 N 
ATOM     18  H   UNL     1      42.958   4.853   9.209  0.00  0.00    +0.000 HD
BRANCH  17  22
ATOM     19  C   UNL     1      46.458   2.367   7.779  0.00  0.00    +0.000 A 
ATOM     20  C   UNL     1      46.490   3.737   7.574  0.00  0.00    +0.000 A 
ATOM     21  N   UNL     1      45.659   4.597   8.227  0.00  0.00    +0.000 NA
ATOM     22  C   UNL     1      44.788   4.052   9.102  0.00  0.00    +0.000 A 
ATOM     23  C   UNL     1      44.780   2.662   9.298  0.00  0.00    +0.000 A 
ATOM     24  N   UNL     1      45.600   1.785   8.660  0.00  0.00    +0.000 NA
BRANCH  19  26
ATOM     25  N   UNL     1      48.474   2.069   6.469  0.00  0.00    +0.000 N 
ATOM     26  C   UNL     1      47.359   1.475   6.997  0.00  0.00    +0.000 C 
ATOM     27  O   UNL     1      47.129   0.283   6.847  0.00  0.00    +0.000 OA
ATOM     28  H   UNL     1      49.145   1.507   5.967  0.00  0.00    +0.000 HD
ATOM     29  H   UNL     1      48.662   3.048   6.651  0.00  0.00    +0.000 HD
ENDBRANCH  19  26
ENDBRANCH  17  22
ENDBRANCH  16  17
ENDBRANCH   1  16
TORSDOF 6
ENDMDL
MODEL 4
REMARK VINA RESULT:    -7.923      2.368      4.363
REMARK INTER + INTRA:         -11.604
REMARK INTER:                 -10.787
REMARK INTRA:                  -0.817
REMARK UNBOUND:                -0.902
REMARK  Name = 
REMARK  6 active torsions:
REMARK  status: ('A' for Active; 'I' for Inactive)
REMARK    1  A    between atoms: C_2  and  C_4
REMARK    2  A    between atoms: C_7  and  N_8
REMARK    3  A    between atoms: N_8  and  C_9
REMARK    4  A    between atoms: C_9  and  C_10
REMARK    5  A    between atoms: C_12  and  C_13
REMARK    6  A    between atoms: C_20  and  N_21
REMARK                            x       y       z     vdW  Elec       q    Type
REMARK                         _______ _______ _______ _____ _____    ______ ____
ROOT
ATOM      1  C   UNL     1      45.105   5.320  12.166  0.00  0.00    +0.000 A 
ATOM      2  C   UNL     1      45.741   4.753  13.291  0.00  0.00    +0.000 A 
ATOM      3  C   UNL     1      46.779   5.401  13.989  0.00  0.00    +0.000 A 
ATOM      4  C   UNL     1      47.154   6.676  13.536  0.00  0.00    +0.000 A 
ATOM      5  C   UNL     1      46.517   7.264  12.430  0.00  0.00    +0.000 A 
ATOM      6  C   UNL     1      45.498   6.592  11.741  0.00  0.00    +0.000 A 
ENDROOT
BRANCH   3   7
ATOM      7  C   UNL     1      47.460   4.755  15.133  0.00  0.00    +0.000 A 
ATOM      8  C   UNL     1      47.396   3.373  15.367  0.00  0.00    +0.000 A 
ATOM      9  C   UNL     1      48.037   2.805  16.470  0.00  0.00    +0.000 A 
ATOM     10  C   UNL     1      48.744   3.634  17.320  0.00  0.00    +0.000 A 
ATOM     11  N   UNL     1      48.843   4.966  17.144  0.00  0.00    +0.000 NA
ATOM     12  C   UNL     1      48.201   5.486  16.068  0.00  0.00    +0.000 A 
ENDBRANCH   3   7
BRANCH   5  13
ATOM     13  N   UNL     1      46.940   8.600  11.988  0.00  0.00    +0.000 N 
ATOM     14  O   UNL     1      48.149   8.790  11.789  0.00  0.00    +0.000 OA
ATOM     15  O   UNL     1      46.061   9.461  11.840  0.00  0.00    +0.000 OA
ENDBRANCH   5  13
BRANCH   1  16
ATOM     16  C   UNL     1      44.014   4.536  11.461  0.00  0.00    +0.000 C 
BRANCH  16  17
ATOM     17  N   UNL     1      44.077   4.852  10.039  0.00  0.00    +0.000 N 
ATOM     18  H   UNL     1      43.158   4.859   9.608  0.00  0.00    +0.000 HD
BRANCH  17  22
ATOM     19  C   UNL     1      46.538   2.541   7.694  0.00  0.00    +0.000 A 
ATOM     20  C   UNL     1      46.547   3.922   7.580  0.00  0.00    +0.000 A 
ATOM     21  N   UNL     1      45.774   4.728   8.360  0.00  0.00    +0.000 NA
ATOM     22  C   UNL     1      44.985   4.117   9.268  0.00  0.00    +0.000 A 
ATOM     23  C   UNL     1      44.999   2.717   9.371  0.00  0.00    +0.000 A 
ATOM     24  N   UNL     1      45.764   1.893   8.605  0.00  0.00    +0.000 NA
BRANCH  19  26
ATOM     25  N   UNL     1      48.374   2.374   6.123  0.00  0.00    +0.000 N 
ATOM     26  C   UNL     1      47.371   1.713   6.778  0.00  0.00    +0.000 C 
ATOM     27  O   UNL     1      47.182   0.513   6.629  0.00  0.00    +0.000 OA
ATOM     28  H   UNL     1      49.001   1.857   5.523  0.00  0.00    +0.000 HD
ATOM     29  H   UNL     1      48.536   3.358   6.302  0.00  0.00    +0.000 HD
ENDBRANCH  19  26
ENDBRANCH  17  22
ENDBRANCH  16  17
ENDBRANCH   1  16
TORSDOF 6
ENDMDL
MODEL 5
REMARK VINA RESULT:    -7.901      2.703      3.865
REMARK INTER + INTRA:         -11.574
REMARK INTER:                 -10.810
REMARK INTRA:                  -0.764
REMARK UNBOUND:                -0.902
REMARK  Name = 
REMARK  6 active torsions:
REMARK  status: ('A' for Active; 'I' for Inactive)
REMARK    1  A    between atoms: C_2  and  C_4
REMARK    2  A    between atoms: C_7  and  N_8
REMARK    3  A    between atoms: N_8  and  C_9
REMARK    4  A    between atoms: C_9  and  C_10
REMARK    5  A    between atoms: C_12  and  C_13
REMARK    6  A    between atoms: C_20  and  N_21
REMARK                            x       y       z     vdW  Elec       q    Type
REMARK                         _______ _______ _______ _____ _____    ______ ____
ROOT
ATOM      1  C   UNL     1      44.497   6.351  11.533  0.00  0.00    +0.000 A 
ATOM      2  C   UNL     1      45.669   6.317  12.318  0.00  0.00    +0.000 A 
ATOM      3  C   UNL     1      46.359   7.481  12.710  0.00  0.00    +0.000 A 
ATOM      4  C   UNL     1      45.816   8.711  12.308  0.00  0.00    +0.000 A 
ATOM      5  C   UNL     1      44.638   8.765  11.544  0.00  0.00    +0.000 A 
ATOM      6  C   UNL     1      43.978   7.591  11.151  0.00  0.00    +0.000 A 
ENDROOT
BRANCH   3   7
ATOM      7  C   UNL     1      47.615   7.407  13.489  0.00  0.00    +0.000 A 
ATOM      8  C   UNL     1      48.642   8.354  13.357  0.00  0.00    +0.000 A 
ATOM      9  C   UNL     1      49.821   8.237  14.097  0.00  0.00    +0.000 A 
ATOM     10  C   UNL     1      49.948   7.172  14.969  0.00  0.00    +0.000 A 
ATOM     11  N   UNL     1      48.995   6.236  15.140  0.00  0.00    +0.000 NA
ATOM     12  C   UNL     1      47.867   6.375  14.400  0.00  0.00    +0.000 A 
ENDBRANCH   3   7
BRANCH   5  13
ATOM     13  N   UNL     1      44.103  10.073  11.143  0.00  0.00    +0.000 N 
ATOM     14  O   UNL     1      44.175  11.005  11.958  0.00  0.00    +0.000 OA
ATOM     15  O   UNL     1      43.607  10.167  10.011  0.00  0.00    +0.000 OA
ENDBRANCH   5  13
BRANCH   1  16
ATOM     16  C   UNL     1      43.835   5.045  11.136  0.00  0.00    +0.000 C 
BRANCH  16  17
ATOM     17  N   UNL     1      43.866   4.946   9.682  0.00  0.00    +0.000 N 
ATOM     18  H   UNL     1      42.936   4.836   9.287  0.00  0.00    +0.000 HD
BRANCH  17  22
ATOM     19  C   UNL     1      46.273   2.073   7.995  0.00  0.00    +0.000 A 
ATOM     20  C   UNL     1      46.393   3.401   7.623  0.00  0.00    +0.000 A 
ATOM     21  N   UNL     1      45.640   4.391   8.179  0.00  0.00    +0.000 NA
ATOM     22  C   UNL     1      44.757   4.020   9.129  0.00  0.00    +0.000 A 
ATOM     23  C   UNL     1      44.659   2.668   9.496  0.00  0.00    +0.000 A 
ATOM     24  N   UNL     1      45.401   1.664   8.956  0.00  0.00    +0.000 NA
BRANCH  19  26
ATOM     25  N   UNL     1      46.821  -0.264   7.665  0.00  0.00    +0.000 N 
ATOM     26  C   UNL     1      47.091   1.031   7.314  0.00  0.00    +0.000 C 
ATOM     27  O   UNL     1      47.942   1.311   6.481  0.00  0.00    +0.000 OA
ATOM     28  H   UNL     1      47.311  -1.016   7.204  0.00  0.00    +0.000 HD
ATOM     29  H   UNL     1      46.077  -0.467   8.323  0.00  0.00    +0.000 HD
ENDBRANCH  19  26
ENDBRANCH  17  22
ENDBRANCH  16  17
ENDBRANCH   1  16
TORSDOF 6
ENDMDL
MODEL 6
REMARK VINA RESULT:    -7.319      2.644      7.359
REMARK INTER + INTRA:         -10.788
REMARK INTER:                 -10.105
REMARK INTRA:                  -0.683
REMARK UNBOUND:                -0.902
REMARK  Name = 
REMARK  6 active torsions:
REMARK  status: ('A' for Active; 'I' for Inactive)
REMARK    1  A    between atoms: C_2  and  C_4
REMARK    2  A    between atoms: C_7  and  N_8
REMARK    3  A    between atoms: N_8  and  C_9
REMARK    4  A    between atoms: C_9  and  C_10
REMARK    5  A    between atoms: C_12  and  C_13
REMARK    6  A    between atoms: C_20  and  N_21
REMARK                            x       y       z     vdW  Elec       q    Type
REMARK                         _______ _______ _______ _____ _____    ______ ____
ROOT
ATOM      1  C   UNL     1      45.065   5.509  10.628  0.00  0.00    +0.000 A 
ATOM      2  C   UNL     1      45.640   4.949   9.468  0.00  0.00    +0.000 A 
ATOM      3  C   UNL     1      45.496   3.590   9.124  0.00  0.00    +0.000 A 
ATOM      4  C   UNL     1      44.718   2.794   9.979  0.00  0.00    +0.000 A 
ATOM      5  C   UNL     1      44.120   3.340  11.127  0.00  0.00    +0.000 A 
ATOM      6  C   UNL     1      44.293   4.692  11.459  0.00  0.00    +0.000 A 
ENDROOT
BRANCH   3   7
ATOM      7  C   UNL     1      46.157   3.024   7.927  0.00  0.00    +0.000 A 
ATOM      8  C   UNL     1      46.424   3.787   6.780  0.00  0.00    +0.000 A 
ATOM      9  C   UNL     1      47.032   3.209   5.664  0.00  0.00    +0.000 A 
ATOM     10  C   UNL     1      47.372   1.871   5.718  0.00  0.00    +0.000 A 
ATOM     11  N   UNL     1      47.143   1.090   6.791  0.00  0.00    +0.000 NA
ATOM     12  C   UNL     1      46.544   1.681   7.855  0.00  0.00    +0.000 A 
ENDBRANCH   3   7
BRANCH   5  13
ATOM     13  N   UNL     1      43.315   2.472  11.997  0.00  0.00    +0.000 N 
ATOM     14  O   UNL     1      42.671   1.554  11.467  0.00  0.00    +0.000 OA
ATOM     15  O   UNL     1      43.324   2.710  13.213  0.00  0.00    +0.000 OA
ENDBRANCH   5  13
BRANCH   1  16
ATOM     16  C   UNL     1      45.296   6.977  10.933  0.00  0.00    +0.000 C 
BRANCH  16  17
ATOM     17  N   UNL     1      45.217   7.157  12.378  0.00  0.00    +0.000 N 
ATOM     18  H   UNL     1      44.566   7.894  12.635  0.00  0.00    +0.000 HD
BRANCH  17  22
ATOM     19  C   UNL     1      48.896   7.460  14.183  0.00  0.00    +0.000 A 
ATOM     20  C   UNL     1      48.053   8.557  14.112  0.00  0.00    +0.000 A 
ATOM     21  N   UNL     1      46.812   8.493  13.553  0.00  0.00    +0.000 NA
ATOM     22  C   UNL     1      46.427   7.296  13.065  0.00  0.00    +0.000 A 
ATOM     23  C   UNL     1      47.297   6.197  13.157  0.00  0.00    +0.000 A 
ATOM     24  N   UNL     1      48.538   6.237  13.711  0.00  0.00    +0.000 NA
BRANCH  19  26
ATOM     25  N   UNL     1      51.274   7.800  13.863  0.00  0.00    +0.000 N 
ATOM     26  C   UNL     1      50.261   7.607  14.763  0.00  0.00    +0.000 C 
ATOM     27  O   UNL     1      50.465   7.571  15.969  0.00  0.00    +0.000 OA
ATOM     28  H   UNL     1      52.214   7.951  14.198  0.00  0.00    +0.000 HD
ATOM     29  H   UNL     1      51.067   7.872  12.873  0.00  0.00    +0.000 HD
ENDBRANCH  19  26
ENDBRANCH  17  22
ENDBRANCH  16  17
ENDBRANCH   1  16
TORSDOF 6
ENDMDL
MODEL 7
REMARK VINA RESULT:    -7.280      2.701      4.460
REMARK INTER + INTRA:         -10.735
REMARK INTER:                  -9.981
REMARK INTRA:                  -0.753
REMARK UNBOUND:                -0.902
REMARK  Name = 
REMARK  6 active torsions:
REMARK  status: ('A' for Active; 'I' for Inactive)
REMARK    1  A    between atoms: C_2  and  C_4
REMARK    2  A    between atoms: C_7  and  N_8
REMARK    3  A    between atoms: N_8  and  C_9
REMARK    4  A    between atoms: C_9  and  C_10
REMARK    5  A    between atoms: C_12  and  C_13
REMARK    6  A    between atoms: C_20  and  N_21
REMARK                            x       y       z     vdW  Elec       q    Type
REMARK                         _______ _______ _______ _____ _____    ______ ____
ROOT
ATOM      1  C   UNL     1      46.129   6.277  11.916  0.00  0.00    +0.000 A 
ATOM      2  C   UNL     1      46.263   5.706  13.199  0.00  0.00    +0.000 A 
ATOM      3  C   UNL     1      47.423   5.856  13.984  0.00  0.00    +0.000 A 
ATOM      4  C   UNL     1      48.461   6.634  13.448  0.00  0.00    +0.000 A 
ATOM      5  C   UNL     1      48.336   7.228  12.181  0.00  0.00    +0.000 A 
ATOM      6  C   UNL     1      47.178   7.050  11.410  0.00  0.00    +0.000 A 
ENDROOT
BRANCH   3   7
ATOM      7  C   UNL     1      47.551   5.200  15.305  0.00  0.00    +0.000 A 
ATOM      8  C   UNL     1      48.447   5.648  16.287  0.00  0.00    +0.000 A 
ATOM      9  C   UNL     1      48.551   4.988  17.513  0.00  0.00    +0.000 A 
ATOM     10  C   UNL     1      47.744   3.889  17.740  0.00  0.00    +0.000 A 
ATOM     11  N   UNL     1      46.864   3.417  16.837  0.00  0.00    +0.000 NA
ATOM     12  C   UNL     1      46.795   4.076  15.654  0.00  0.00    +0.000 A 
ENDBRANCH   3   7
BRANCH   5  13
ATOM     13  N   UNL     1      49.446   8.034  11.655  0.00  0.00    +0.000 N 
ATOM     14  O   UNL     1      49.377   9.266  11.776  0.00  0.00    +0.000 OA
ATOM     15  O   UNL     1      50.388   7.434  11.118  0.00  0.00    +0.000 OA
ENDBRANCH   5  13
BRANCH   1  16
ATOM     16  C   UNL     1      44.852   6.040  11.131  0.00  0.00    +0.000 C 
BRANCH  16  17
ATOM     17  N   UNL     1      44.641   4.601  11.034  0.00  0.00    +0.000 N 
ATOM     18  H   UNL     1      44.955   4.112  11.867  0.00  0.00    +0.000 HD
BRANCH  17  22
ATOM     19  C   UNL     1      46.243   2.883   7.662  0.00  0.00    +0.000 A 
ATOM     20  C   UNL     1      45.696   2.097   8.663  0.00  0.00    +0.000 A 
ATOM     21  N   UNL     1      45.124   2.624   9.781  0.00  0.00    +0.000 NA
ATOM     22  C   UNL     1      45.108   3.970   9.877  0.00  0.00    +0.000 A 
ATOM     23  C   UNL     1      45.661   4.746   8.845  0.00  0.00    +0.000 A 
ATOM     24  N   UNL     1      46.235   4.242   7.720  0.00  0.00    +0.000 NA
BRANCH  19  26
ATOM     25  N   UNL     1      47.142   3.065   5.420  0.00  0.00    +0.000 N 
ATOM     26  C   UNL     1      46.898   2.243   6.486  0.00  0.00    +0.000 C 
ATOM     27  O   UNL     1      47.212   1.061   6.477  0.00  0.00    +0.000 OA
ATOM     28  H   UNL     1      47.624   2.700   4.611  0.00  0.00    +0.000 HD
ATOM     29  H   UNL     1      46.914   4.051   5.475  0.00  0.00    +0.000 HD
ENDBRANCH  19  26
ENDBRANCH  17  22
ENDBRANCH  16  17
ENDBRANCH   1  16
TORSDOF 6
ENDMDL
MODEL 8
REMARK VINA RESULT:    -6.856      3.190      7.405
REMARK INTER + INTRA:         -10.163
REMARK INTER:                  -9.669
REMARK INTRA:                  -0.494
REMARK UNBOUND:                -0.902
REMARK  Name = 
REMARK  6 active torsions:
REMARK  status: ('A' for Active; 'I' for Inactive)
REMARK    1  A    between atoms: C_2  and  C_4
REMARK    2  A    between atoms: C_7  and  N_8
REMARK    3  A    between atoms: N_8  and  C_9
REMARK    4  A    between atoms: C_9  and  C_10
REMARK    5  A    between atoms: C_12  and  C_13
REMARK    6  A    between atoms: C_20  and  N_21
REMARK                            x       y       z     vdW  Elec       q    Type
REMARK                         _______ _______ _______ _____ _____    ______ ____
ROOT
ATOM      1  C   UNL     1      46.573   7.842  12.540  0.00  0.00    +0.000 A 
ATOM      2  C   UNL     1      46.350   6.632  11.850  0.00  0.00    +0.000 A 
ATOM      3  C   UNL     1      45.232   6.422  11.019  0.00  0.00    +0.000 A 
ATOM      4  C   UNL     1      44.334   7.491  10.874  0.00  0.00    +0.000 A 
ATOM      5  C   UNL     1      44.552   8.711  11.537  0.00  0.00    +0.000 A 
ATOM      6  C   UNL     1      45.664   8.890  12.373  0.00  0.00    +0.000 A 
ENDROOT
BRANCH   3   7
ATOM      7  C   UNL     1      45.001   5.122  10.351  0.00  0.00    +0.000 A 
ATOM      8  C   UNL     1      45.572   4.799   9.111  0.00  0.00    +0.000 A 
ATOM      9  C   UNL     1      45.314   3.568   8.504  0.00  0.00    +0.000 A 
ATOM     10  C   UNL     1      44.489   2.672   9.158  0.00  0.00    +0.000 A 
ATOM     11  N   UNL     1      43.916   2.926  10.350  0.00  0.00    +0.000 NA
ATOM     12  C   UNL     1      44.182   4.134  10.907  0.00  0.00    +0.000 A 
ENDBRANCH   3   7
BRANCH   5  13
ATOM     13  N   UNL     1      43.588   9.805  11.359  0.00  0.00    +0.000 N 
ATOM     14  O   UNL     1      43.758  10.842  12.017  0.00  0.00    +0.000 OA
ATOM     15  O   UNL     1      42.657   9.626  10.561  0.00  0.00    +0.000 OA
ENDBRANCH   5  13
BRANCH   1  16
ATOM     16  C   UNL     1      47.792   7.969  13.434  0.00  0.00    +0.000 C 
BRANCH  16  17
ATOM     17  N   UNL     1      48.439   6.664  13.505  0.00  0.00    +0.000 N 
ATOM     18  H   UNL     1      48.309   6.126  12.654  0.00  0.00    +0.000 HD
BRANCH  17  22
ATOM     19  C   UNL     1      47.671   4.156  16.670  0.00  0.00    +0.000 A 
ATOM     20  C   UNL     1      48.635   5.146  16.772  0.00  0.00    +0.000 A 
ATOM     21  N   UNL     1      48.899   6.020  15.761  0.00  0.00    +0.000 NA
ATOM     22  C   UNL     1      48.168   5.884  14.635  0.00  0.00    +0.000 A 
ATOM     23  C   UNL     1      47.190   4.879  14.559  0.00  0.00    +0.000 A 
ATOM     24  N   UNL     1      46.909   3.997  15.555  0.00  0.00    +0.000 NA
BRANCH  19  26
ATOM     25  N   UNL     1      48.361   3.286  18.823  0.00  0.00    +0.000 N 
ATOM     26  C   UNL     1      47.464   3.200  17.793  0.00  0.00    +0.000 C 
ATOM     27  O   UNL     1      46.541   2.396  17.804  0.00  0.00    +0.000 OA
ATOM     28  H   UNL     1      48.246   2.694  19.633  0.00  0.00    +0.000 HD
ATOM     29  H   UNL     1      49.086   3.994  18.807  0.00  0.00    +0.000 HD
ENDBRANCH  19  26
ENDBRANCH  17  22
ENDBRANCH  16  17
ENDBRANCH   1  16
TORSDOF 6
ENDMDL
MODEL 9
REMARK VINA RESULT:    -6.513      3.609      7.129
REMARK INTER + INTRA:          -9.700
REMARK INTER:                  -8.959
REMARK INTRA:                  -0.741
REMARK UNBOUND:                -0.902
REMARK  Name = 
REMARK  6 active torsions:
REMARK  status: ('A' for Active; 'I' for Inactive)
REMARK    1  A    between atoms: C_2  and  C_4
REMARK    2  A    between atoms: C_7  and  N_8
REMARK    3  A    between atoms: N_8  and  C_9
REMARK    4  A    between atoms: C_9  and  C_10
REMARK    5  A    between atoms: C_12  and  C_13
REMARK    6  A    between atoms: C_20  and  N_21
REMARK                            x       y       z     vdW  Elec       q    Type
REMARK                         _______ _______ _______ _____ _____    ______ ____
ROOT
ATOM      1  C   UNL     1      46.385   4.410  13.356  0.00  0.00    +0.000 A 
ATOM      2  C   UNL     1      46.650   5.790  13.232  0.00  0.00    +0.000 A 
ATOM      3  C   UNL     1      46.033   6.601  12.260  0.00  0.00    +0.000 A 
ATOM      4  C   UNL     1      45.101   5.984  11.411  0.00  0.00    +0.000 A 
ATOM      5  C   UNL     1      44.809   4.615  11.534  0.00  0.00    +0.000 A 
ATOM      6  C   UNL     1      45.449   3.824  12.499  0.00  0.00    +0.000 A 
ENDROOT
BRANCH   3   7
ATOM      7  C   UNL     1      46.373   8.035  12.123  0.00  0.00    +0.000 A 
ATOM      8  C   UNL     1      47.697   8.497  12.089  0.00  0.00    +0.000 A 
ATOM      9  C   UNL     1      47.976   9.861  11.980  0.00  0.00    +0.000 A 
ATOM     10  C   UNL     1      46.916  10.744  11.896  0.00  0.00    +0.000 A 
ATOM     11  N   UNL     1      45.625  10.359  11.920  0.00  0.00    +0.000 NA
ATOM     12  C   UNL     1      45.391   9.028  12.036  0.00  0.00    +0.000 A 
ENDBRANCH   3   7
BRANCH   5  13
ATOM     13  N   UNL     1      43.828   4.007  10.626  0.00  0.00    +0.000 N 
ATOM     14  O   UNL     1      43.846   4.353   9.435  0.00  0.00    +0.000 OA
ATOM     15  O   UNL     1      43.036   3.183  11.105  0.00  0.00    +0.000 OA
ENDBRANCH   5  13
BRANCH   1  16
ATOM     16  C   UNL     1      47.117   3.609  14.417  0.00  0.00    +0.000 C 
BRANCH  16  17
ATOM     17  N   UNL     1      46.904   4.261  15.703  0.00  0.00    +0.000 N 
ATOM     18  H   UNL     1      46.410   5.143  15.607  0.00  0.00    +0.000 HD
BRANCH  17  22
ATOM     19  C   UNL     1      50.257   4.423  18.075  0.00  0.00    +0.000 A 
ATOM     20  C   UNL     1      49.993   5.426  17.156  0.00  0.00    +0.000 A 
ATOM     21  N   UNL     1      48.877   5.430  16.374  0.00  0.00    +0.000 NA
ATOM     22  C   UNL     1      48.020   4.400  16.534  0.00  0.00    +0.000 A 
ATOM     23  C   UNL     1      48.306   3.400  17.478  0.00  0.00    +0.000 A 
ATOM     24  N   UNL     1      49.411   3.376  18.270  0.00  0.00    +0.000 NA
BRANCH  19  26
ATOM     25  N   UNL     1      52.218   3.275  18.915  0.00  0.00    +0.000 N 
ATOM     26  C   UNL     1      51.519   4.451  18.865  0.00  0.00    +0.000 C 
ATOM     27  O   UNL     1      51.917   5.464  19.425  0.00  0.00    +0.000 OA
ATOM     28  H   UNL     1      53.104   3.243  19.398  0.00  0.00    +0.000 HD
ATOM     29  H   UNL     1      51.887   2.466  18.402  0.00  0.00    +0.000 HD
ENDBRANCH  19  26
ENDBRANCH  17  22
ENDBRANCH  16  17
ENDBRANCH   1  16
TORSDOF 6
ENDMDL
