MODEL 1
REMARK VINA RESULT:    -9.283      0.000      0.000
REMARK INTER + INTRA:         -13.140
REMARK INTER:                 -11.996
REMARK INTRA:                  -1.144
REMARK UNBOUND:                -1.144
REMARK  Name = 
REMARK  5 active torsions:
REMARK  status: ('A' for Active; 'I' for Inactive)
REMARK    1  A    between atoms: C_2  and  C_4
REMARK    2  A    between atoms: C_7  and  N_8
REMARK    3  A    between atoms: N_8  and  C_9
REMARK    4  A    between atoms: C_9  and  C_10
REMARK    5  A    between atoms: C_14  and  C_15
REMARK                            x       y       z     vdW  Elec       q    Type
REMARK                         _______ _______ _______ _____ _____    ______ ____
ROOT
ATOM      1  C   UNL     1      43.901   4.942  11.452  0.00  0.00    +0.000 C 
ATOM      2  C   UNL     1      43.123   3.994  12.354  0.00  0.00    +0.000 C 
ATOM      3  C   UNL     1      42.676   5.408  12.232  0.00  0.00    +0.000 C 
ENDROOT
BRANCH   1   4
ATOM      4  C   UNL     1      45.219   5.543  11.932  0.00  0.00    +0.000 A 
ATOM      5  C   UNL     1      45.749   6.709  11.358  0.00  0.00    +0.000 A 
ATOM      6  C   UNL     1      46.880   7.329  11.891  0.00  0.00    +0.000 A 
ATOM      7  C   UNL     1      47.500   6.795  13.022  0.00  0.00    +0.000 A 
ATOM      8  C   UNL     1      47.016   5.626  13.628  0.00  0.00    +0.000 A 
ATOM      9  C   UNL     1      45.902   5.003  13.035  0.00  0.00    +0.000 A 
BRANCH   8  10
ATOM     10  C   UNL     1      47.549   5.117  14.906  0.00  0.00    +0.000 A 
ATOM     11  C   UNL     1      47.217   3.842  15.382  0.00  0.00    +0.000 A 
ATOM     12  C   UNL     1      47.832   3.331  16.521  0.00  0.00    +0.000 A 
ATOM     13  C   UNL     1      48.770   4.113  17.168  0.00  0.00    +0.000 A 
ATOM     14  N   UNL     1      49.108   5.356  16.772  0.00  0.00    +0.000 NA
ATOM     15  C   UNL     1      48.487   5.826  15.663  0.00  0.00    +0.000 A 
ENDBRANCH   8  10
ENDBRANCH   1   4
BRANCH   1  16
ATOM     16  N   UNL     1      43.809   4.770   9.994  0.00  0.00    +0.000 N 
ATOM     17  H   UNL     1      42.941   5.020   9.534  0.00  0.00    +0.000 HD
BRANCH  16  21
ATOM     18  C   UNL     1      46.405   2.278   7.761  0.00  0.00    +0.000 A 
ATOM     19  C   UNL     1      45.514   1.708   8.674  0.00  0.00    +0.000 A 
ATOM     20  C   UNL     1      44.660   2.526   9.417  0.00  0.00    +0.000 A 
ATOM     21  C   UNL     1      44.641   3.917   9.246  0.00  0.00    +0.000 A 
ATOM     22  C   UNL     1      45.574   4.477   8.359  0.00  0.00    +0.000 A 
ATOM     23  C   UNL     1      46.449   3.667   7.624  0.00  0.00    +0.000 A 
BRANCH  18  25
ATOM     24  N   UNL     1      48.427   2.068   6.418  0.00  0.00    +0.000 N 
ATOM     25  C   UNL     1      47.323   1.445   6.938  0.00  0.00    +0.000 C 
ATOM     26  O   UNL     1      47.122   0.255   6.752  0.00  0.00    +0.000 OA
ATOM     27  H   UNL     1      49.092   1.476   5.937  0.00  0.00    +0.000 HD
ATOM     28  H   UNL     1      48.747   2.970   6.739  0.00  0.00    +0.000 HD
ENDBRANCH  18  25
ENDBRANCH  16  21
ENDBRANCH   1  16
TORSDOF 5
ENDMDL
MODEL 2
REMARK VINA RESULT:    -8.978      2.079      3.572
REMARK INTER + INTRA:         -12.747
REMARK INTER:                 -11.616
REMARK INTRA:                  -1.131
REMARK UNBOUND:                -1.144
REMARK  Name = 
REMARK  5 active torsions:
REMARK  status: ('A' for Active; 'I' for Inactive)
REMARK    1  A    between atoms: C_2  and  C_4
REMARK    2  A    between atoms: C_7  and  N_8
REMARK    3  A    between atoms: N_8  and  C_9
REMARK    4  A    between atoms: C_9  and  C_10
REMARK    5  A    between atoms: C_14  and  C_15
REMARK                            x       y       z     vdW  Elec       q    Type
REMARK                         _______ _______ _______ _____ _____    ______ ____
ROOT
ATOM      1  C   UNL     1      43.823   5.185  11.231  0.00  0.00    +0.000 C 
ATOM      2  C   UNL     1      42.647   4.409  11.808  0.00  0.00    +0.000 C 
ATOM      3  C   UNL     1      42.578   5.895  11.752  0.00  0.00    +0.000 C 
ENDROOT
BRANCH   1   4
ATOM      4  C   UNL     1      45.076   5.410  12.074  0.00  0.00    +0.000 A 
ATOM      5  C   UNL     1      45.573   4.419  12.935  0.00  0.00    +0.000 A 
ATOM      6  C   UNL     1      46.791   4.579  13.596  0.00  0.00    +0.000 A 
ATOM      7  C   UNL     1      47.545   5.738  13.400  0.00  0.00    +0.000 A 
ATOM      8  C   UNL     1      47.088   6.763  12.557  0.00  0.00    +0.000 A 
ATOM      9  C   UNL     1      45.833   6.587  11.944  0.00  0.00    +0.000 A 
BRANCH   8  10
ATOM     10  C   UNL     1      47.919   7.930  12.207  0.00  0.00    +0.000 A 
ATOM     11  C   UNL     1      49.255   7.785  11.810  0.00  0.00    +0.000 A 
ATOM     12  C   UNL     1      49.982   8.883  11.359  0.00  0.00    +0.000 A 
ATOM     13  C   UNL     1      49.354  10.114  11.316  0.00  0.00    +0.000 A 
ATOM     14  N   UNL     1      48.081  10.317  11.710  0.00  0.00    +0.000 NA
ATOM     15  C   UNL     1      47.404   9.229  12.150  0.00  0.00    +0.000 A 
ENDBRANCH   8  10
ENDBRANCH   1   4
BRANCH   1  16
ATOM     16  N   UNL     1      44.070   5.125   9.782  0.00  0.00    +0.000 N 
ATOM     17  H   UNL     1      43.424   5.602   9.164  0.00  0.00    +0.000 HD
BRANCH  16  21
ATOM     18  C   UNL     1      46.349   2.098   7.889  0.00  0.00    +0.000 A 
ATOM     19  C   UNL     1      46.515   3.431   7.506  0.00  0.00    +0.000 A 
ATOM     20  C   UNL     1      45.762   4.433   8.123  0.00  0.00    +0.000 A 
ATOM     21  C   UNL     1      44.859   4.142   9.156  0.00  0.00    +0.000 A 
ATOM     22  C   UNL     1      44.671   2.794   9.497  0.00  0.00    +0.000 A 
ATOM     23  C   UNL     1      45.406   1.781   8.870  0.00  0.00    +0.000 A 
BRANCH  18  25
ATOM     24  N   UNL     1      46.807  -0.280   7.626  0.00  0.00    +0.000 N 
ATOM     25  C   UNL     1      47.139   1.000   7.270  0.00  0.00    +0.000 C 
ATOM     26  O   UNL     1      48.027   1.221   6.460  0.00  0.00    +0.000 OA
ATOM     27  H   UNL     1      47.286  -1.023   7.133  0.00  0.00    +0.000 HD
ATOM     28  H   UNL     1      45.943  -0.510   8.096  0.00  0.00    +0.000 HD
ENDBRANCH  18  25
ENDBRANCH  16  21
ENDBRANCH   1  16
TORSDOF 5
ENDMDL
MODEL 3
REMARK VINA RESULT:    -8.606      1.543      2.429
REMARK INTER + INTRA:         -12.265
REMARK INTER:                 -11.328
REMARK INTRA:                  -0.938
REMARK UNBOUND:                -1.144
REMARK  Name = 
REMARK  5 active torsions:
REMARK  status: ('A' for Active; 'I' for Inactive)
REMARK    1  A    between atoms: C_2  and  C_4
REMARK    2  A    between atoms: C_7  and  N_8
REMARK    3  A    between atoms: N_8  and  C_9
REMARK    4  A    between atoms: C_9  and  C_10
REMARK    5  A    between atoms: C_14  and  C_15
REMARK                            x       y       z     vdW  Elec       q    Type
REMARK                         _______ _______ _______ _____ _____    ______ ____
ROOT
ATOM      1  C   UNL     1      44.018   5.164  11.519  0.00  0.00    +0.000 C 
ATOM      2  C   UNL     1      44.060   4.093  12.599  0.00  0.00    +0.000 C 
ATOM      3  C   UNL     1      42.897   5.020  12.542  0.00  0.00    +0.000 C 
ENDROOT
BRANCH   1   4
ATOM      4  C   UNL     1      44.849   6.435  11.671  0.00  0.00    +0.000 A 
ATOM      5  C   UNL     1      44.319   7.702  11.380  0.00  0.00    +0.000 A 
ATOM      6  C   UNL     1      45.037   8.867  11.652  0.00  0.00    +0.000 A 
ATOM      7  C   UNL     1      46.304   8.787  12.231  0.00  0.00    +0.000 A 
ATOM      8  C   UNL     1      46.883   7.545  12.533  0.00  0.00    +0.000 A 
ATOM      9  C   UNL     1      46.149   6.390  12.202  0.00  0.00    +0.000 A 
BRANCH   8  10
ATOM     10  C   UNL     1      48.149   7.422  13.281  0.00  0.00    +0.000 A 
ATOM     11  C   UNL     1      49.287   8.153  12.919  0.00  0.00    +0.000 A 
ATOM     12  C   UNL     1      50.429   8.122  13.715  0.00  0.00    +0.000 A 
ATOM     13  C   UNL     1      50.410   7.352  14.862  0.00  0.00    +0.000 A 
ATOM     14  N   UNL     1      49.354   6.607  15.244  0.00  0.00    +0.000 NA
ATOM     15  C   UNL     1      48.261   6.654  14.445  0.00  0.00    +0.000 A 
ENDBRANCH   8  10
ENDBRANCH   1   4
BRANCH   1  16
ATOM     16  N   UNL     1      43.782   4.758  10.125  0.00  0.00    +0.000 N 
ATOM     17  H   UNL     1      42.828   4.749   9.780  0.00  0.00    +0.000 HD
BRANCH  16  21
ATOM     18  C   UNL     1      46.410   2.378   7.806  0.00  0.00    +0.000 A 
ATOM     19  C   UNL     1      46.430   3.768   7.667  0.00  0.00    +0.000 A 
ATOM     20  C   UNL     1      45.561   4.557   8.425  0.00  0.00    +0.000 A 
ATOM     21  C   UNL     1      44.684   3.993   9.362  0.00  0.00    +0.000 A 
ATOM     22  C   UNL     1      44.644   2.593   9.457  0.00  0.00    +0.000 A 
ATOM     23  C   UNL     1      45.497   1.793   8.687  0.00  0.00    +0.000 A 
BRANCH  18  25
ATOM     24  N   UNL     1      48.465   2.078   6.534  0.00  0.00    +0.000 N 
ATOM     25  C   UNL     1      47.327   1.500   7.032  0.00  0.00    +0.000 C 
ATOM     26  O   UNL     1      47.096   0.312   6.865  0.00  0.00    +0.000 OA
ATOM     27  H   UNL     1      49.127   1.456   6.088  0.00  0.00    +0.000 HD
ATOM     28  H   UNL     1      48.803   2.977   6.846  0.00  0.00    +0.000 HD
ENDBRANCH  18  25
ENDBRANCH  16  21
ENDBRANCH   1  16
TORSDOF 5
ENDMDL
MODEL 4
REMARK VINA RESULT:    -8.084      2.744      5.263
REMARK INTER + INTRA:         -11.592
REMARK INTER:                 -10.500
REMARK INTRA:                  -1.091
REMARK UNBOUND:                -1.144
REMARK  Name = 
REMARK  5 active torsions:
REMARK  status: ('A' for Active; 'I' for Inactive)
REMARK    1  A    between atoms: C_2  and  C_4
REMARK    2  A    between atoms: C_7  and  N_8
REMARK    3  A    between atoms: N_8  and  C_9
REMARK    4  A    between atoms: C_9  and  C_10
REMARK    5  A    between atoms: C_14  and  C_15
REMARK                            x       y       z     vdW  Elec       q    Type
REMARK                         _______ _______ _______ _____ _____    ______ ____
ROOT
ATOM      1  C   UNL     1      44.077   4.602  11.703  0.00  0.00    +0.000 C 
ATOM      2  C   UNL     1      44.437   3.496  12.686  0.00  0.00    +0.000 C 
ATOM      3  C   UNL     1      43.115   4.171  12.805  0.00  0.00    +0.000 C 
ENDROOT
BRANCH   1   4
ATOM      4  C   UNL     1      44.656   6.003  11.885  0.00  0.00    +0.000 A 
ATOM      5  C   UNL     1      45.951   6.205  12.390  0.00  0.00    +0.000 A 
ATOM      6  C   UNL     1      46.523   7.477  12.424  0.00  0.00    +0.000 A 
ATOM      7  C   UNL     1      45.811   8.576  11.943  0.00  0.00    +0.000 A 
ATOM      8  C   UNL     1      44.510   8.429  11.437  0.00  0.00    +0.000 A 
ATOM      9  C   UNL     1      43.948   7.139  11.461  0.00  0.00    +0.000 A 
BRANCH   8  10
ATOM     10  C   UNL     1      43.785   9.535  10.782  0.00  0.00    +0.000 A 
ATOM     11  C   UNL     1      44.464  10.556  10.105  0.00  0.00    +0.000 A 
ATOM     12  C   UNL     1      43.759  11.516   9.384  0.00  0.00    +0.000 A 
ATOM     13  C   UNL     1      42.379  11.436   9.359  0.00  0.00    +0.000 A 
ATOM     14  N   UNL     1      41.673  10.494  10.014  0.00  0.00    +0.000 NA
ATOM     15  C   UNL     1      42.389   9.578  10.711  0.00  0.00    +0.000 A 
ENDBRANCH   8  10
ENDBRANCH   1   4
BRANCH   1  16
ATOM     16  N   UNL     1      43.787   4.243  10.307  0.00  0.00    +0.000 N 
ATOM     17  H   UNL     1      42.820   4.100  10.037  0.00  0.00    +0.000 HD
BRANCH  16  21
ATOM     18  C   UNL     1      46.536   2.468   7.617  0.00  0.00    +0.000 A 
ATOM     19  C   UNL     1      46.449   3.860   7.700  0.00  0.00    +0.000 A 
ATOM     20  C   UNL     1      45.540   4.450   8.581  0.00  0.00    +0.000 A 
ATOM     21  C   UNL     1      44.728   3.680   9.424  0.00  0.00    +0.000 A 
ATOM     22  C   UNL     1      44.794   2.284   9.296  0.00  0.00    +0.000 A 
ATOM     23  C   UNL     1      45.687   1.682   8.401  0.00  0.00    +0.000 A 
BRANCH  18  25
ATOM     24  N   UNL     1      48.622   2.501   6.360  0.00  0.00    +0.000 N 
ATOM     25  C   UNL     1      47.499   1.796   6.704  0.00  0.00    +0.000 C 
ATOM     26  O   UNL     1      47.317   0.658   6.298  0.00  0.00    +0.000 OA
ATOM     27  H   UNL     1      49.315   2.005   5.814  0.00  0.00    +0.000 HD
ATOM     28  H   UNL     1      48.919   3.330   6.853  0.00  0.00    +0.000 HD
ENDBRANCH  18  25
ENDBRANCH  16  21
ENDBRANCH   1  16
TORSDOF 5
ENDMDL
MODEL 5
REMARK VINA RESULT:    -7.928      2.408      3.132
REMARK INTER + INTRA:         -11.389
REMARK INTER:                 -10.372
REMARK INTRA:                  -1.017
REMARK UNBOUND:                -1.144
REMARK  Name = 
REMARK  5 active torsions:
REMARK  status: ('A' for Active; 'I' for Inactive)
REMARK    1  A    between atoms: C_2  and  C_4
REMARK    2  A    between atoms: C_7  and  N_8
REMARK    3  A    between atoms: N_8  and  C_9
REMARK    4  A    between atoms: C_9  and  C_10
REMARK    5  A    between atoms: C_14  and  C_15
REMARK                            x       y       z     vdW  Elec       q    Type
REMARK                         _______ _______ _______ _____ _____    ______ ____
ROOT
ATOM      1  C   UNL     1      44.654   5.193  11.580  0.00  0.00    +0.000 C 
ATOM      2  C   UNL     1      45.172   4.156  12.566  0.00  0.00    +0.000 C 
ATOM      3  C   UNL     1      43.868   4.822  12.833  0.00  0.00    +0.000 C 
ENDROOT
BRANCH   1   4
ATOM      4  C   UNL     1      45.225   6.609  11.591  0.00  0.00    +0.000 A 
ATOM      5  C   UNL     1      44.392   7.739  11.578  0.00  0.00    +0.000 A 
ATOM      6  C   UNL     1      44.915   9.024  11.728  0.00  0.00    +0.000 A 
ATOM      7  C   UNL     1      46.288   9.204  11.903  0.00  0.00    +0.000 A 
ATOM      8  C   UNL     1      47.164   8.108  11.913  0.00  0.00    +0.000 A 
ATOM      9  C   UNL     1      46.607   6.831  11.713  0.00  0.00    +0.000 A 
BRANCH   8  10
ATOM     10  C   UNL     1      48.595   8.241  12.245  0.00  0.00    +0.000 A 
ATOM     11  C   UNL     1      49.592   7.706  11.419  0.00  0.00    +0.000 A 
ATOM     12  C   UNL     1      50.936   7.956  11.681  0.00  0.00    +0.000 A 
ATOM     13  C   UNL     1      51.259   8.738  12.773  0.00  0.00    +0.000 A 
ATOM     14  N   UNL     1      50.345   9.257  13.617  0.00  0.00    +0.000 NA
ATOM     15  C   UNL     1      49.046   8.989  13.338  0.00  0.00    +0.000 A 
ENDBRANCH   8  10
ENDBRANCH   1   4
BRANCH   1  16
ATOM     16  N   UNL     1      44.174   4.744  10.264  0.00  0.00    +0.000 N 
ATOM     17  H   UNL     1      43.176   4.634  10.128  0.00  0.00    +0.000 HD
BRANCH  16  21
ATOM     18  C   UNL     1      46.658   2.769   7.459  0.00  0.00    +0.000 A 
ATOM     19  C   UNL     1      45.862   2.019   8.327  0.00  0.00    +0.000 A 
ATOM     20  C   UNL     1      45.045   2.665   9.258  0.00  0.00    +0.000 A 
ATOM     21  C   UNL     1      44.970   4.063   9.324  0.00  0.00    +0.000 A 
ATOM     22  C   UNL     1      45.810   4.802   8.476  0.00  0.00    +0.000 A 
ATOM     23  C   UNL     1      46.647   4.163   7.554  0.00  0.00    +0.000 A 
BRANCH  18  25
ATOM     24  N   UNL     1      47.822   2.856   5.321  0.00  0.00    +0.000 N 
ATOM     25  C   UNL     1      47.531   2.125   6.442  0.00  0.00    +0.000 C 
ATOM     26  O   UNL     1      47.994   1.006   6.604  0.00  0.00    +0.000 OA
ATOM     27  H   UNL     1      48.488   2.448   4.678  0.00  0.00    +0.000 HD
ATOM     28  H   UNL     1      47.660   3.851   5.260  0.00  0.00    +0.000 HD
ENDBRANCH  18  25
ENDBRANCH  16  21
ENDBRANCH   1  16
TORSDOF 5
ENDMDL
MODEL 6
REMARK VINA RESULT:    -7.060      3.003      7.510
REMARK INTER + INTRA:         -10.268
REMARK INTER:                  -9.946
REMARK INTRA:                  -0.321
REMARK UNBOUND:                -1.144
REMARK  Name = 
REMARK  5 active torsions:
REMARK  status: ('A' for Active; 'I' for Inactive)
REMARK    1  A    between atoms: C_2  and  C_4
REMARK    2  A    between atoms: C_7  and  N_8
REMARK    3  A    between atoms: N_8  and  C_9
REMARK    4  A    between atoms: C_9  and  C_10
REMARK    5  A    between atoms: C_14  and  C_15
REMARK                            x       y       z     vdW  Elec       q    Type
REMARK                         _______ _______ _______ _____ _____    ______ ____
ROOT
ATOM      1  C   UNL     1      46.306   7.323  12.262  0.00  0.00    +0.000 C 
ATOM      2  C   UNL     1      46.328   8.763  11.772  0.00  0.00    +0.000 C 
ATOM      3  C   UNL     1      45.636   8.443  13.051  0.00  0.00    +0.000 C 
ENDROOT
BRANCH   1   4
ATOM      4  C   UNL     1      45.335   6.320  11.644  0.00  0.00    +0.000 A 
ATOM      5  C   UNL     1      43.947   6.434  11.822  0.00  0.00    +0.000 A 
ATOM      6  C   UNL     1      43.059   5.598  11.143  0.00  0.00    +0.000 A 
ATOM      7  C   UNL     1      43.547   4.632  10.261  0.00  0.00    +0.000 A 
ATOM      8  C   UNL     1      44.925   4.472  10.056  0.00  0.00    +0.000 A 
ATOM      9  C   UNL     1      45.791   5.301  10.792  0.00  0.00    +0.000 A 
BRANCH   8  10
ATOM     10  C   UNL     1      45.472   3.570   9.024  0.00  0.00    +0.000 A 
ATOM     11  C   UNL     1      46.128   4.067   7.890  0.00  0.00    +0.000 A 
ATOM     12  C   UNL     1      46.750   3.199   6.997  0.00  0.00    +0.000 A 
ATOM     13  C   UNL     1      46.701   1.843   7.255  0.00  0.00    +0.000 A 
ATOM     14  N   UNL     1      46.062   1.307   8.314  0.00  0.00    +0.000 NA
ATOM     15  C   UNL     1      45.461   2.178   9.161  0.00  0.00    +0.000 A 
ENDBRANCH   8  10
ENDBRANCH   1   4
BRANCH   1  16
ATOM     16  N   UNL     1      47.552   6.726  12.768  0.00  0.00    +0.000 N 
ATOM     17  H   UNL     1      48.272   6.478  12.100  0.00  0.00    +0.000 HD
BRANCH  16  21
ATOM     18  C   UNL     1      47.928   4.712  16.475  0.00  0.00    +0.000 A 
ATOM     19  C   UNL     1      48.601   5.919  16.272  0.00  0.00    +0.000 A 
ATOM     20  C   UNL     1      48.485   6.584  15.049  0.00  0.00    +0.000 A 
ATOM     21  C   UNL     1      47.673   6.091  14.018  0.00  0.00    +0.000 A 
ATOM     22  C   UNL     1      47.040   4.855  14.221  0.00  0.00    +0.000 A 
ATOM     23  C   UNL     1      47.166   4.170  15.436  0.00  0.00    +0.000 A 
BRANCH  18  25
ATOM     24  N   UNL     1      47.178   2.899  17.919  0.00  0.00    +0.000 N 
ATOM     25  C   UNL     1      48.011   3.976  17.765  0.00  0.00    +0.000 C 
ATOM     26  O   UNL     1      48.800   4.295  18.641  0.00  0.00    +0.000 OA
ATOM     27  H   UNL     1      47.304   2.350  18.760  0.00  0.00    +0.000 HD
ATOM     28  H   UNL     1      46.693   2.468  17.145  0.00  0.00    +0.000 HD
ENDBRANCH  18  25
ENDBRANCH  16  21
ENDBRANCH   1  16
TORSDOF 5
ENDMDL
MODEL 7
REMARK VINA RESULT:    -6.647      2.913      7.556
REMARK INTER + INTRA:          -9.734
REMARK INTER:                  -9.357
REMARK INTRA:                  -0.377
REMARK UNBOUND:                -1.144
REMARK  Name = 
REMARK  5 active torsions:
REMARK  status: ('A' for Active; 'I' for Inactive)
REMARK    1  A    between atoms: C_2  and  C_4
REMARK    2  A    between atoms: C_7  and  N_8
REMARK    3  A    between atoms: N_8  and  C_9
REMARK    4  A    between atoms: C_9  and  C_10
REMARK    5  A    between atoms: C_14  and  C_15
REMARK                            x       y       z     vdW  Elec       q    Type
REMARK                         _______ _______ _______ _____ _____    ______ ____
ROOT
ATOM      1  C   UNL     1      48.685   7.860  12.691  0.00  0.00    +0.000 C 
ATOM      2  C   UNL     1      49.788   7.330  11.787  0.00  0.00    +0.000 C 
ATOM      3  C   UNL     1      49.471   8.785  11.769  0.00  0.00    +0.000 C 
ENDROOT
BRANCH   1   4
ATOM      4  C   UNL     1      47.221   7.674  12.299  0.00  0.00    +0.000 A 
ATOM      5  C   UNL     1      46.281   8.705  12.454  0.00  0.00    +0.000 A 
ATOM      6  C   UNL     1      44.980   8.577  11.967  0.00  0.00    +0.000 A 
ATOM      7  C   UNL     1      44.594   7.411  11.304  0.00  0.00    +0.000 A 
ATOM      8  C   UNL     1      45.493   6.347  11.132  0.00  0.00    +0.000 A 
ATOM      9  C   UNL     1      46.782   6.494  11.677  0.00  0.00    +0.000 A 
BRANCH   8  10
ATOM     10  C   UNL     1      45.173   5.165  10.309  0.00  0.00    +0.000 A 
ATOM     11  C   UNL     1      45.704   5.002   9.023  0.00  0.00    +0.000 A 
ATOM     12  C   UNL     1      45.496   3.821   8.317  0.00  0.00    +0.000 A 
ATOM     13  C   UNL     1      44.753   2.820   8.914  0.00  0.00    +0.000 A 
ATOM     14  N   UNL     1      44.195   2.932  10.136  0.00  0.00    +0.000 NA
ATOM     15  C   UNL     1      44.411   4.097  10.794  0.00  0.00    +0.000 A 
ENDBRANCH   8  10
ENDBRANCH   1   4
BRANCH   1  16
ATOM     16  N   UNL     1      48.921   7.913  14.142  0.00  0.00    +0.000 N 
ATOM     17  H   UNL     1      49.634   8.543  14.492  0.00  0.00    +0.000 HD
BRANCH  16  21
ATOM     18  C   UNL     1      47.844   4.758  16.756  0.00  0.00    +0.000 A 
ATOM     19  C   UNL     1      48.644   5.803  17.225  0.00  0.00    +0.000 A 
ATOM     20  C   UNL     1      49.007   6.843  16.366  0.00  0.00    +0.000 A 
ATOM     21  C   UNL     1      48.555   6.891  15.039  0.00  0.00    +0.000 A 
ATOM     22  C   UNL     1      47.791   5.811  14.571  0.00  0.00    +0.000 A 
ATOM     23  C   UNL     1      47.439   4.754  15.419  0.00  0.00    +0.000 A 
BRANCH  18  25
ATOM     24  N   UNL     1      48.110   3.479  18.813  0.00  0.00    +0.000 N 
ATOM     25  C   UNL     1      47.421   3.638  17.639  0.00  0.00    +0.000 C 
ATOM     26  O   UNL     1      46.486   2.907  17.352  0.00  0.00    +0.000 OA
ATOM     27  H   UNL     1      47.759   2.775  19.449  0.00  0.00    +0.000 HD
ATOM     28  H   UNL     1      48.718   4.192  19.190  0.00  0.00    +0.000 HD
ENDBRANCH  18  25
ENDBRANCH  16  21
ENDBRANCH   1  16
TORSDOF 5
ENDMDL
MODEL 8
REMARK VINA RESULT:    -6.599      2.784      4.560
REMARK INTER + INTRA:          -9.672
REMARK INTER:                  -8.996
REMARK INTRA:                  -0.677
REMARK UNBOUND:                -1.144
REMARK  Name = 
REMARK  5 active torsions:
REMARK  status: ('A' for Active; 'I' for Inactive)
REMARK    1  A    between atoms: C_2  and  C_4
REMARK    2  A    between atoms: C_7  and  N_8
REMARK    3  A    between atoms: N_8  and  C_9
REMARK    4  A    between atoms: C_9  and  C_10
REMARK    5  A    between atoms: C_14  and  C_15
REMARK                            x       y       z     vdW  Elec       q    Type
REMARK                         _______ _______ _______ _____ _____    ______ ____
ROOT
ATOM      1  C   UNL     1      47.791   8.155  12.669  0.00  0.00    +0.000 C 
ATOM      2  C   UNL     1      48.445   9.195  11.770  0.00  0.00    +0.000 C 
ATOM      3  C   UNL     1      48.728   7.752  11.535  0.00  0.00    +0.000 C 
ENDROOT
BRANCH   1   4
ATOM      4  C   UNL     1      48.346   7.897  14.067  0.00  0.00    +0.000 A 
ATOM      5  C   UNL     1      48.843   8.939  14.866  0.00  0.00    +0.000 A 
ATOM      6  C   UNL     1      49.220   8.718  16.191  0.00  0.00    +0.000 A 
ATOM      7  C   UNL     1      49.098   7.444  16.748  0.00  0.00    +0.000 A 
ATOM      8  C   UNL     1      48.617   6.367  15.989  0.00  0.00    +0.000 A 
ATOM      9  C   UNL     1      48.290   6.617  14.643  0.00  0.00    +0.000 A 
BRANCH   8  10
ATOM     10  C   UNL     1      48.332   5.045  16.581  0.00  0.00    +0.000 A 
ATOM     11  C   UNL     1      49.225   4.433  17.470  0.00  0.00    +0.000 A 
ATOM     12  C   UNL     1      48.878   3.250  18.117  0.00  0.00    +0.000 A 
ATOM     13  C   UNL     1      47.638   2.698  17.857  0.00  0.00    +0.000 A 
ATOM     14  N   UNL     1      46.751   3.228  16.992  0.00  0.00    +0.000 NA
ATOM     15  C   UNL     1      47.122   4.376  16.374  0.00  0.00    +0.000 A 
ENDBRANCH   8  10
ENDBRANCH   1   4
BRANCH   1  16
ATOM     16  N   UNL     1      46.346   7.910  12.536  0.00  0.00    +0.000 N 
ATOM     17  H   UNL     1      45.707   8.518  13.035  0.00  0.00    +0.000 HD
BRANCH  16  21
ATOM     18  C   UNL     1      44.570   4.241  11.384  0.00  0.00    +0.000 A 
ATOM     19  C   UNL     1      45.186   5.045  10.421  0.00  0.00    +0.000 A 
ATOM     20  C   UNL     1      45.768   6.258  10.795  0.00  0.00    +0.000 A 
ATOM     21  C   UNL     1      45.788   6.683  12.131  0.00  0.00    +0.000 A 
ATOM     22  C   UNL     1      45.126   5.887  13.078  0.00  0.00    +0.000 A 
ATOM     23  C   UNL     1      44.522   4.678  12.710  0.00  0.00    +0.000 A 
BRANCH  18  25
ATOM     24  N   UNL     1      44.517   2.237  10.000  0.00  0.00    +0.000 N 
ATOM     25  C   UNL     1      43.951   2.934  11.034  0.00  0.00    +0.000 C 
ATOM     26  O   UNL     1      43.000   2.485  11.654  0.00  0.00    +0.000 OA
ATOM     27  H   UNL     1      44.149   1.311   9.827  0.00  0.00    +0.000 HD
ATOM     28  H   UNL     1      45.430   2.457   9.627  0.00  0.00    +0.000 HD
ENDBRANCH  18  25
ENDBRANCH  16  21
ENDBRANCH   1  16
TORSDOF 5
ENDMDL
MODEL 9
REMARK VINA RESULT:    -6.535      3.292      7.348
REMARK INTER + INTRA:          -9.589
REMARK INTER:                  -8.597
REMARK INTRA:                  -0.992
REMARK UNBOUND:                -1.144
REMARK  Name = 
REMARK  5 active torsions:
REMARK  status: ('A' for Active; 'I' for Inactive)
REMARK    1  A    between atoms: C_2  and  C_4
REMARK    2  A    between atoms: C_7  and  N_8
REMARK    3  A    between atoms: N_8  and  C_9
REMARK    4  A    between atoms: C_9  and  C_10
REMARK    5  A    between atoms: C_14  and  C_15
REMARK                            x       y       z     vdW  Elec       q    Type
REMARK                         _______ _______ _______ _____ _____    ______ ____
ROOT
ATOM      1  C   UNL     1      44.525   6.244  11.756  0.00  0.00    +0.000 C 
ATOM      2  C   UNL     1      44.522   7.360  10.720  0.00  0.00    +0.000 C 
ATOM      3  C   UNL     1      43.268   7.056  11.463  0.00  0.00    +0.000 C 
ENDROOT
BRANCH   1   4
ATOM      4  C   UNL     1      44.452   4.787  11.308  0.00  0.00    +0.000 A 
ATOM      5  C   UNL     1      43.553   3.881  11.892  0.00  0.00    +0.000 A 
ATOM      6  C   UNL     1      43.395   2.591  11.385  0.00  0.00    +0.000 A 
ATOM      7  C   UNL     1      44.132   2.182  10.273  0.00  0.00    +0.000 A 
ATOM      8  C   UNL     1      45.051   3.046   9.659  0.00  0.00    +0.000 A 
ATOM      9  C   UNL     1      45.218   4.323  10.225  0.00  0.00    +0.000 A 
BRANCH   8  10
ATOM     10  C   UNL     1      45.735   2.707   8.396  0.00  0.00    +0.000 A 
ATOM     11  C   UNL     1      45.947   3.666   7.397  0.00  0.00    +0.000 A 
ATOM     12  C   UNL     1      46.708   3.359   6.273  0.00  0.00    +0.000 A 
ATOM     13  C   UNL     1      47.242   2.088   6.167  0.00  0.00    +0.000 A 
ATOM     14  N   UNL     1      47.048   1.118   7.083  0.00  0.00    +0.000 NA
ATOM     15  C   UNL     1      46.298   1.448   8.162  0.00  0.00    +0.000 A 
ENDBRANCH   8  10
ENDBRANCH   1   4
BRANCH   1  16
ATOM     16  N   UNL     1      45.244   6.454  13.022  0.00  0.00    +0.000 N 
ATOM     17  H   UNL     1      44.705   6.495  13.880  0.00  0.00    +0.000 HD
BRANCH  16  21
ATOM     18  C   UNL     1      49.151   8.080  13.198  0.00  0.00    +0.000 A 
ATOM     19  C   UNL     1      48.056   8.868  13.561  0.00  0.00    +0.000 A 
ATOM     20  C   UNL     1      46.765   8.338  13.499  0.00  0.00    +0.000 A 
ATOM     21  C   UNL     1      46.533   7.010  13.115  0.00  0.00    +0.000 A 
ATOM     22  C   UNL     1      47.639   6.246  12.711  0.00  0.00    +0.000 A 
ATOM     23  C   UNL     1      48.935   6.775  12.749  0.00  0.00    +0.000 A 
BRANCH  18  25
ATOM     24  N   UNL     1      51.421   7.918  14.066  0.00  0.00    +0.000 N 
ATOM     25  C   UNL     1      50.544   8.597  13.262  0.00  0.00    +0.000 C 
ATOM     26  O   UNL     1      50.904   9.566  12.610  0.00  0.00    +0.000 OA
ATOM     27  H   UNL     1      52.386   8.219  14.034  0.00  0.00    +0.000 HD
ATOM     28  H   UNL     1      51.230   6.993  14.425  0.00  0.00    +0.000 HD
ENDBRANCH  18  25
ENDBRANCH  16  21
ENDBRANCH   1  16
TORSDOF 5
ENDMDL
