MODEL 1
REMARK VINA RESULT:    -9.072      0.000      0.000
REMARK INTER + INTRA:         -10.846
REMARK INTER:                 -11.194
REMARK INTRA:                   0.348
REMARK UNBOUND:                 0.348
REMARK  Name = 
REMARK  4 active torsions:
REMARK  status: ('A' for Active; 'I' for Inactive)
REMARK    1  A    between atoms: C_2  and  C_4
REMARK    2  A    between atoms: C_8  and  C_9
REMARK    3  A    between atoms: C_9  and  N_10
REMARK    4  A    between atoms: C_14  and  C_15
REMARK                            x       y       z     vdW  Elec       q    Type
REMARK                         _______ _______ _______ _____ _____    ______ ____
ROOT
ATOM      1  C   UNL     1      43.851   4.826  11.619  0.00  0.00    +0.000 C 
ATOM      2  C   UNL     1      43.036   5.966  11.020  0.00  0.00    +0.000 C 
ATOM      3  C   UNL     1      42.549   5.282  12.255  0.00  0.00    +0.000 C 
ENDROOT
BRANCH   1   4
ATOM      4  N   UNL     1      43.866   3.548  10.906  0.00  0.00    +0.000 N 
ATOM      5  C   UNL     1      44.679   3.308   9.806  0.00  0.00    +0.000 A 
ATOM      6  N   UNL     1      44.851   2.018   9.487  0.00  0.00    +0.000 NA
ATOM      7  C   UNL     1      45.629   1.740   8.421  0.00  0.00    +0.000 A 
ATOM      8  C   UNL     1      46.239   2.698   7.651  0.00  0.00    +0.000 A 
ATOM      9  C   UNL     1      46.011   3.992   8.063  0.00  0.00    +0.000 A 
ATOM     10  N   UNL     1      45.250   4.317   9.128  0.00  0.00    +0.000 NA
ATOM     11  H   UNL     1      43.626   2.681  11.363  0.00  0.00    +0.000 HD
BRANCH   8  12
ATOM     12  C   UNL     1      47.074   2.373   6.472  0.00  0.00    +0.000 C 
ATOM     13  F   UNL     1      46.692   3.032   5.343  0.00  0.00    +0.000 F 
ATOM     14  F   UNL     1      48.385   2.686   6.659  0.00  0.00    +0.000 F 
ATOM     15  F   UNL     1      47.046   1.050   6.157  0.00  0.00    +0.000 F 
ENDBRANCH   8  12
ENDBRANCH   1   4
BRANCH   1  20
ATOM     16  C   UNL     1      46.832   4.937  13.859  0.00  0.00    +0.000 A 
ATOM     17  C   UNL     1      47.569   6.029  13.431  0.00  0.00    +0.000 A 
ATOM     18  C   UNL     1      47.108   6.727  12.324  0.00  0.00    +0.000 A 
ATOM     19  C   UNL     1      45.923   6.323  11.711  0.00  0.00    +0.000 A 
ATOM     20  C   UNL     1      45.213   5.222  12.202  0.00  0.00    +0.000 A 
ATOM     21  N   UNL     1      45.683   4.508  13.264  0.00  0.00    +0.000 NA
BRANCH  16  23
ATOM     22  N   UNL     1      47.248   4.849  16.246  0.00  0.00    +0.000 N 
ATOM     23  C   UNL     1      47.285   4.164  15.060  0.00  0.00    +0.000 C 
ATOM     24  O   UNL     1      47.664   3.002  14.999  0.00  0.00    +0.000 OA
ATOM     25  H   UNL     1      47.560   4.399  17.093  0.00  0.00    +0.000 HD
ATOM     26  H   UNL     1      46.945   5.817  16.250  0.00  0.00    +0.000 HD
ENDBRANCH  16  23
ENDBRANCH   1  20
TORSDOF 4
ENDMDL
MODEL 2
REMARK VINA RESULT:    -8.402      4.206      6.690
REMARK INTER + INTRA:         -10.019
REMARK INTER:                  -9.706
REMARK INTRA:                  -0.313
REMARK UNBOUND:                 0.348
REMARK  Name = 
REMARK  4 active torsions:
REMARK  status: ('A' for Active; 'I' for Inactive)
REMARK    1  A    between atoms: C_2  and  C_4
REMARK    2  A    between atoms: C_8  and  C_9
REMARK    3  A    between atoms: C_9  and  N_10
REMARK    4  A    between atoms: C_14  and  C_15
REMARK                            x       y       z     vdW  Elec       q    Type
REMARK                         _______ _______ _______ _____ _____    ______ ____
ROOT
ATOM      1  C   UNL     1      44.452   3.212  11.414  0.00  0.00    +0.000 C 
ATOM      2  C   UNL     1      43.115   2.486  11.508  0.00  0.00    +0.000 C 
ATOM      3  C   UNL     1      43.183   3.947  11.809  0.00  0.00    +0.000 C 
ENDROOT
BRANCH   1   4
ATOM      4  N   UNL     1      45.450   2.943  12.451  0.00  0.00    +0.000 N 
ATOM      5  C   UNL     1      46.188   3.947  13.065  0.00  0.00    +0.000 A 
ATOM      6  N   UNL     1      46.783   3.602  14.216  0.00  0.00    +0.000 NA
ATOM      7  C   UNL     1      47.515   4.546  14.843  0.00  0.00    +0.000 A 
ATOM      8  C   UNL     1      47.687   5.820  14.365  0.00  0.00    +0.000 A 
ATOM      9  C   UNL     1      47.029   6.081  13.185  0.00  0.00    +0.000 A 
ATOM     10  N   UNL     1      46.277   5.174  12.528  0.00  0.00    +0.000 NA
ATOM     11  H   UNL     1      45.390   2.133  13.050  0.00  0.00    +0.000 HD
BRANCH   8  12
ATOM     12  C   UNL     1      48.511   6.837  15.059  0.00  0.00    +0.000 C 
ATOM     13  F   UNL     1      49.783   6.915  14.582  0.00  0.00    +0.000 F 
ATOM     14  F   UNL     1      47.994   8.091  14.950  0.00  0.00    +0.000 F 
ATOM     15  F   UNL     1      48.628   6.595  16.393  0.00  0.00    +0.000 F 
ENDBRANCH   8  12
ENDBRANCH   1   4
BRANCH   1  20
ATOM     16  C   UNL     1      46.216   2.337   8.246  0.00  0.00    +0.000 A 
ATOM     17  C   UNL     1      46.317   3.528   7.545  0.00  0.00    +0.000 A 
ATOM     18  C   UNL     1      45.732   4.656   8.099  0.00  0.00    +0.000 A 
ATOM     19  C   UNL     1      45.097   4.555   9.336  0.00  0.00    +0.000 A 
ATOM     20  C   UNL     1      45.044   3.328  10.004  0.00  0.00    +0.000 A 
ATOM     21  N   UNL     1      45.581   2.207   9.445  0.00  0.00    +0.000 NA
BRANCH  16  23
ATOM     22  N   UNL     1      47.920   1.303   6.867  0.00  0.00    +0.000 N 
ATOM     23  C   UNL     1      46.847   1.097   7.692  0.00  0.00    +0.000 C 
ATOM     24  O   UNL     1      46.441  -0.029   7.952  0.00  0.00    +0.000 OA
ATOM     25  H   UNL     1      48.382   0.514   6.439  0.00  0.00    +0.000 HD
ATOM     26  H   UNL     1      48.213   2.253   6.662  0.00  0.00    +0.000 HD
ENDBRANCH  16  23
ENDBRANCH   1  20
TORSDOF 4
ENDMDL
MODEL 3
REMARK VINA RESULT:    -8.243      1.732      2.221
REMARK INTER + INTRA:          -9.822
REMARK INTER:                 -10.303
REMARK INTRA:                   0.480
REMARK UNBOUND:                 0.348
REMARK  Name = 
REMARK  4 active torsions:
REMARK  status: ('A' for Active; 'I' for Inactive)
REMARK    1  A    between atoms: C_2  and  C_4
REMARK    2  A    between atoms: C_8  and  C_9
REMARK    3  A    between atoms: C_9  and  N_10
REMARK    4  A    between atoms: C_14  and  C_15
REMARK                            x       y       z     vdW  Elec       q    Type
REMARK                         _______ _______ _______ _____ _____    ______ ____
ROOT
ATOM      1  C   UNL     1      43.708   4.902  11.669  0.00  0.00    +0.000 C 
ATOM      2  C   UNL     1      43.112   6.121  10.974  0.00  0.00    +0.000 C 
ATOM      3  C   UNL     1      42.373   5.481  12.103  0.00  0.00    +0.000 C 
ENDROOT
BRANCH   1   4
ATOM      4  N   UNL     1      43.710   3.632  10.939  0.00  0.00    +0.000 N 
ATOM      5  C   UNL     1      44.556   3.382   9.867  0.00  0.00    +0.000 A 
ATOM      6  N   UNL     1      44.701   2.090   9.538  0.00  0.00    +0.000 NA
ATOM      7  C   UNL     1      45.510   1.802   8.497  0.00  0.00    +0.000 A 
ATOM      8  C   UNL     1      46.176   2.750   7.763  0.00  0.00    +0.000 A 
ATOM      9  C   UNL     1      45.973   4.045   8.184  0.00  0.00    +0.000 A 
ATOM     10  N   UNL     1      45.183   4.380   9.224  0.00  0.00    +0.000 NA
ATOM     11  H   UNL     1      43.428   2.768  11.376  0.00  0.00    +0.000 HD
BRANCH   8  12
ATOM     12  C   UNL     1      47.045   2.414   6.611  0.00  0.00    +0.000 C 
ATOM     13  F   UNL     1      48.324   2.858   6.755  0.00  0.00    +0.000 F 
ATOM     14  F   UNL     1      47.137   1.073   6.401  0.00  0.00    +0.000 F 
ATOM     15  F   UNL     1      46.596   2.945   5.443  0.00  0.00    +0.000 F 
ENDBRANCH   8  12
ENDBRANCH   1   4
BRANCH   1  20
ATOM     16  C   UNL     1      46.678   6.638  13.110  0.00  0.00    +0.000 A 
ATOM     17  C   UNL     1      47.426   5.641  13.713  0.00  0.00    +0.000 A 
ATOM     18  C   UNL     1      46.913   4.352  13.704  0.00  0.00    +0.000 A 
ATOM     19  C   UNL     1      45.693   4.111  13.073  0.00  0.00    +0.000 A 
ATOM     20  C   UNL     1      44.993   5.158  12.465  0.00  0.00    +0.000 A 
ATOM     21  N   UNL     1      45.473   6.433  12.507  0.00  0.00    +0.000 NA
BRANCH  16  23
ATOM     22  N   UNL     1      46.752   8.857  14.085  0.00  0.00    +0.000 N 
ATOM     23  C   UNL     1      47.203   8.042  13.082  0.00  0.00    +0.000 C 
ATOM     24  O   UNL     1      47.981   8.443  12.226  0.00  0.00    +0.000 OA
ATOM     25  H   UNL     1      47.045   9.822  14.116  0.00  0.00    +0.000 HD
ATOM     26  H   UNL     1      46.092   8.490  14.764  0.00  0.00    +0.000 HD
ENDBRANCH  16  23
ENDBRANCH   1  20
TORSDOF 4
ENDMDL
MODEL 4
REMARK VINA RESULT:    -7.410      1.287      1.665
REMARK INTER + INTRA:          -8.795
REMARK INTER:                  -8.500
REMARK INTRA:                  -0.295
REMARK UNBOUND:                 0.348
REMARK  Name = 
REMARK  4 active torsions:
REMARK  status: ('A' for Active; 'I' for Inactive)
REMARK    1  A    between atoms: C_2  and  C_4
REMARK    2  A    between atoms: C_8  and  C_9
REMARK    3  A    between atoms: C_9  and  N_10
REMARK    4  A    between atoms: C_14  and  C_15
REMARK                            x       y       z     vdW  Elec       q    Type
REMARK                         _______ _______ _______ _____ _____    ______ ____
ROOT
ATOM      1  C   UNL     1      43.750   5.184  11.263  0.00  0.00    +0.000 C 
ATOM      2  C   UNL     1      42.359   5.579  11.745  0.00  0.00    +0.000 C 
ATOM      3  C   UNL     1      42.804   4.158  11.863  0.00  0.00    +0.000 C 
ENDROOT
BRANCH   1   4
ATOM      4  N   UNL     1      43.988   5.148   9.819  0.00  0.00    +0.000 N 
ATOM      5  C   UNL     1      44.720   4.143   9.202  0.00  0.00    +0.000 A 
ATOM      6  N   UNL     1      44.555   4.042   7.875  0.00  0.00    +0.000 NA
ATOM      7  C   UNL     1      45.253   3.082   7.234  0.00  0.00    +0.000 A 
ATOM      8  C   UNL     1      46.117   2.220   7.859  0.00  0.00    +0.000 A 
ATOM      9  C   UNL     1      46.211   2.395   9.222  0.00  0.00    +0.000 A 
ATOM     10  N   UNL     1      45.526   3.332   9.907  0.00  0.00    +0.000 NA
ATOM     11  H   UNL     1      43.349   5.573   9.165  0.00  0.00    +0.000 HD
BRANCH   8  12
ATOM     12  C   UNL     1      46.889   1.185   7.134  0.00  0.00    +0.000 C 
ATOM     13  F   UNL     1      48.225   1.230   7.392  0.00  0.00    +0.000 F 
ATOM     14  F   UNL     1      46.491  -0.078   7.448  0.00  0.00    +0.000 F 
ATOM     15  F   UNL     1      46.768   1.291   5.783  0.00  0.00    +0.000 F 
ENDBRANCH   8  12
ENDBRANCH   1   4
BRANCH   1  20
ATOM     16  C   UNL     1      46.566   5.468  13.693  0.00  0.00    +0.000 A 
ATOM     17  C   UNL     1      46.904   6.811  13.703  0.00  0.00    +0.000 A 
ATOM     18  C   UNL     1      46.227   7.655  12.836  0.00  0.00    +0.000 A 
ATOM     19  C   UNL     1      45.227   7.130  12.018  0.00  0.00    +0.000 A 
ATOM     20  C   UNL     1      44.918   5.767  12.067  0.00  0.00    +0.000 A 
ATOM     21  N   UNL     1      45.609   4.926  12.888  0.00  0.00    +0.000 NA
BRANCH  16  23
ATOM     22  N   UNL     1      47.172   3.198  14.292  0.00  0.00    +0.000 N 
ATOM     23  C   UNL     1      47.261   4.523  14.626  0.00  0.00    +0.000 C 
ATOM     24  O   UNL     1      47.868   4.898  15.621  0.00  0.00    +0.000 OA
ATOM     25  H   UNL     1      47.596   2.503  14.887  0.00  0.00    +0.000 HD
ATOM     26  H   UNL     1      46.643   2.928  13.469  0.00  0.00    +0.000 HD
ENDBRANCH  16  23
ENDBRANCH   1  20
TORSDOF 4
ENDMDL
MODEL 5
REMARK VINA RESULT:    -6.947      4.507      6.953
REMARK INTER + INTRA:          -8.224
REMARK INTER:                  -7.938
REMARK INTRA:                  -0.286
REMARK UNBOUND:                 0.348
REMARK  Name = 
REMARK  4 active torsions:
REMARK  status: ('A' for Active; 'I' for Inactive)
REMARK    1  A    between atoms: C_2  and  C_4
REMARK    2  A    between atoms: C_8  and  C_9
REMARK    3  A    between atoms: C_9  and  N_10
REMARK    4  A    between atoms: C_14  and  C_15
REMARK                            x       y       z     vdW  Elec       q    Type
REMARK                         _______ _______ _______ _____ _____    ______ ____
ROOT
ATOM      1  C   UNL     1      44.502   4.712  12.472  0.00  0.00    +0.000 C 
ATOM      2  C   UNL     1      42.996   4.684  12.702  0.00  0.00    +0.000 C 
ATOM      3  C   UNL     1      43.751   5.952  12.927  0.00  0.00    +0.000 C 
ENDROOT
BRANCH   1   4
ATOM      4  N   UNL     1      45.355   4.022  13.442  0.00  0.00    +0.000 N 
ATOM      5  C   UNL     1      46.388   4.655  14.121  0.00  0.00    +0.000 A 
ATOM      6  N   UNL     1      46.836   4.017  15.212  0.00  0.00    +0.000 NA
ATOM      7  C   UNL     1      47.843   4.594  15.899  0.00  0.00    +0.000 A 
ATOM      8  C   UNL     1      48.430   5.781  15.539  0.00  0.00    +0.000 A 
ATOM      9  C   UNL     1      47.895   6.365  14.413  0.00  0.00    +0.000 A 
ATOM     10  N   UNL     1      46.882   5.831  13.701  0.00  0.00    +0.000 NA
ATOM     11  H   UNL     1      45.029   3.222  13.962  0.00  0.00    +0.000 HD
BRANCH   8  12
ATOM     12  C   UNL     1      49.549   6.388  16.296  0.00  0.00    +0.000 C 
ATOM     13  F   UNL     1      50.444   5.473  16.760  0.00  0.00    +0.000 F 
ATOM     14  F   UNL     1      50.268   7.268  15.548  0.00  0.00    +0.000 F 
ATOM     15  F   UNL     1      49.127   7.082  17.388  0.00  0.00    +0.000 F 
ENDBRANCH   8  12
ENDBRANCH   1   4
BRANCH   1  20
ATOM     16  C   UNL     1      45.396   3.100   9.229  0.00  0.00    +0.000 A 
ATOM     17  C   UNL     1      45.952   4.110   8.461  0.00  0.00    +0.000 A 
ATOM     18  C   UNL     1      45.983   5.388   8.998  0.00  0.00    +0.000 A 
ATOM     19  C   UNL     1      45.484   5.598  10.284  0.00  0.00    +0.000 A 
ATOM     20  C   UNL     1      44.953   4.533  11.017  0.00  0.00    +0.000 A 
ATOM     21  N   UNL     1      44.882   3.283  10.478  0.00  0.00    +0.000 NA
BRANCH  16  23
ATOM     22  N   UNL     1      46.472   1.304   8.007  0.00  0.00    +0.000 N 
ATOM     23  C   UNL     1      45.357   1.700   8.695  0.00  0.00    +0.000 C 
ATOM     24  O   UNL     1      44.400   0.954   8.856  0.00  0.00    +0.000 OA
ATOM     25  H   UNL     1      46.507   0.382   7.599  0.00  0.00    +0.000 HD
ATOM     26  H   UNL     1      47.236   1.960   7.879  0.00  0.00    +0.000 HD
ENDBRANCH  16  23
ENDBRANCH   1  20
TORSDOF 4
ENDMDL
MODEL 6
REMARK VINA RESULT:    -6.910      3.907      6.103
REMARK INTER + INTRA:          -8.178
REMARK INTER:                  -8.377
REMARK INTRA:                   0.199
REMARK UNBOUND:                 0.348
REMARK  Name = 
REMARK  4 active torsions:
REMARK  status: ('A' for Active; 'I' for Inactive)
REMARK    1  A    between atoms: C_2  and  C_4
REMARK    2  A    between atoms: C_8  and  C_9
REMARK    3  A    between atoms: C_9  and  N_10
REMARK    4  A    between atoms: C_14  and  C_15
REMARK                            x       y       z     vdW  Elec       q    Type
REMARK                         _______ _______ _______ _____ _____    ______ ____
ROOT
ATOM      1  C   UNL     1      48.059   4.676  16.691  0.00  0.00    +0.000 C 
ATOM      2  C   UNL     1      47.166   4.769  17.922  0.00  0.00    +0.000 C 
ATOM      3  C   UNL     1      47.108   3.551  17.061  0.00  0.00    +0.000 C 
ENDROOT
BRANCH   1   4
ATOM      4  N   UNL     1      47.726   5.516  15.539  0.00  0.00    +0.000 N 
ATOM      5  C   UNL     1      47.028   5.041  14.437  0.00  0.00    +0.000 A 
ATOM      6  N   UNL     1      46.492   5.981  13.646  0.00  0.00    +0.000 NA
ATOM      7  C   UNL     1      45.810   5.564  12.559  0.00  0.00    +0.000 A 
ATOM      8  C   UNL     1      45.645   4.244  12.223  0.00  0.00    +0.000 A 
ATOM      9  C   UNL     1      46.222   3.354  13.101  0.00  0.00    +0.000 A 
ATOM     10  N   UNL     1      46.903   3.724  14.204  0.00  0.00    +0.000 NA
ATOM     11  H   UNL     1      47.613   6.515  15.625  0.00  0.00    +0.000 HD
BRANCH   8  12
ATOM     12  C   UNL     1      44.909   3.806  11.015  0.00  0.00    +0.000 C 
ATOM     13  F   UNL     1      43.563   3.722  11.206  0.00  0.00    +0.000 F 
ATOM     14  F   UNL     1      45.083   4.651   9.962  0.00  0.00    +0.000 F 
ATOM     15  F   UNL     1      45.300   2.579  10.578  0.00  0.00    +0.000 F 
ENDBRANCH   8  12
ENDBRANCH   1   4
BRANCH   1  20
ATOM     16  C   UNL     1      51.417   3.261  17.489  0.00  0.00    +0.000 A 
ATOM     17  C   UNL     1      52.237   4.359  17.688  0.00  0.00    +0.000 A 
ATOM     18  C   UNL     1      51.690   5.618  17.495  0.00  0.00    +0.000 A 
ATOM     19  C   UNL     1      50.346   5.728  17.138  0.00  0.00    +0.000 A 
ATOM     20  C   UNL     1      49.564   4.581  16.971  0.00  0.00    +0.000 A 
ATOM     21  N   UNL     1      50.108   3.340  17.119  0.00  0.00    +0.000 NA
BRANCH  16  23
ATOM     22  N   UNL     1      52.980   1.788  18.615  0.00  0.00    +0.000 N 
ATOM     23  C   UNL     1      51.963   1.882  17.703  0.00  0.00    +0.000 C 
ATOM     24  O   UNL     1      51.537   0.899  17.110  0.00  0.00    +0.000 OA
ATOM     25  H   UNL     1      53.412   0.894  18.793  0.00  0.00    +0.000 HD
ATOM     26  H   UNL     1      53.316   2.630  19.071  0.00  0.00    +0.000 HD
ENDBRANCH  16  23
ENDBRANCH   1  20
TORSDOF 4
ENDMDL
MODEL 7
REMARK VINA RESULT:    -6.820      4.586      7.406
REMARK INTER + INTRA:          -8.067
REMARK INTER:                  -8.224
REMARK INTRA:                   0.157
REMARK UNBOUND:                 0.348
REMARK  Name = 
REMARK  4 active torsions:
REMARK  status: ('A' for Active; 'I' for Inactive)
REMARK    1  A    between atoms: C_2  and  C_4
REMARK    2  A    between atoms: C_8  and  C_9
REMARK    3  A    between atoms: C_9  and  N_10
REMARK    4  A    between atoms: C_14  and  C_15
REMARK                            x       y       z     vdW  Elec       q    Type
REMARK                         _______ _______ _______ _____ _____    ______ ____
ROOT
ATOM      1  C   UNL     1      47.669   7.313  12.656  0.00  0.00    +0.000 C 
ATOM      2  C   UNL     1      48.122   8.553  11.894  0.00  0.00    +0.000 C 
ATOM      3  C   UNL     1      48.935   7.303  11.818  0.00  0.00    +0.000 C 
ENDROOT
BRANCH   1   4
ATOM      4  N   UNL     1      47.802   7.321  14.114  0.00  0.00    +0.000 N 
ATOM      5  C   UNL     1      47.860   6.158  14.871  0.00  0.00    +0.000 A 
ATOM      6  N   UNL     1      48.333   6.305  16.117  0.00  0.00    +0.000 NA
ATOM      7  C   UNL     1      48.401   5.201  16.890  0.00  0.00    +0.000 A 
ATOM      8  C   UNL     1      48.008   3.954  16.475  0.00  0.00    +0.000 A 
ATOM      9  C   UNL     1      47.547   3.903  15.179  0.00  0.00    +0.000 A 
ATOM     10  N   UNL     1      47.471   4.976  14.366  0.00  0.00    +0.000 NA
ATOM     11  H   UNL     1      48.245   8.083  14.604  0.00  0.00    +0.000 HD
BRANCH   8  12
ATOM     12  C   UNL     1      48.073   2.758  17.345  0.00  0.00    +0.000 C 
ATOM     13  F   UNL     1      48.720   1.708  16.769  0.00  0.00    +0.000 F 
ATOM     14  F   UNL     1      48.722   2.999  18.516  0.00  0.00    +0.000 F 
ATOM     15  F   UNL     1      46.842   2.292  17.689  0.00  0.00    +0.000 F 
ENDBRANCH   8  12
ENDBRANCH   1   4
BRANCH   1  20
ATOM     16  C   UNL     1      45.218   5.554  10.462  0.00  0.00    +0.000 A 
ATOM     17  C   UNL     1      44.000   5.670  11.110  0.00  0.00    +0.000 A 
ATOM     18  C   UNL     1      43.983   6.296  12.348  0.00  0.00    +0.000 A 
ATOM     19  C   UNL     1      45.173   6.801  12.871  0.00  0.00    +0.000 A 
ATOM     20  C   UNL     1      46.369   6.669  12.159  0.00  0.00    +0.000 A 
ATOM     21  N   UNL     1      46.398   6.019  10.961  0.00  0.00    +0.000 NA
BRANCH  16  23
ATOM     22  N   UNL     1      44.156   4.213   8.745  0.00  0.00    +0.000 N 
ATOM     23  C   UNL     1      45.280   4.900   9.115  0.00  0.00    +0.000 C 
ATOM     24  O   UNL     1      46.263   4.968   8.388  0.00  0.00    +0.000 OA
ATOM     25  H   UNL     1      44.134   3.727   7.860  0.00  0.00    +0.000 HD
ATOM     26  H   UNL     1      43.370   4.165   9.385  0.00  0.00    +0.000 HD
ENDBRANCH  16  23
ENDBRANCH   1  20
TORSDOF 4
ENDMDL
MODEL 8
REMARK VINA RESULT:    -6.817      4.025      5.419
REMARK INTER + INTRA:          -8.064
REMARK INTER:                  -7.884
REMARK INTRA:                  -0.180
REMARK UNBOUND:                 0.348
REMARK  Name = 
REMARK  4 active torsions:
REMARK  status: ('A' for Active; 'I' for Inactive)
REMARK    1  A    between atoms: C_2  and  C_4
REMARK    2  A    between atoms: C_8  and  C_9
REMARK    3  A    between atoms: C_9  and  N_10
REMARK    4  A    between atoms: C_14  and  C_15
REMARK                            x       y       z     vdW  Elec       q    Type
REMARK                         _______ _______ _______ _____ _____    ______ ____
ROOT
ATOM      1  C   UNL     1      46.281   8.031  12.693  0.00  0.00    +0.000 C 
ATOM      2  C   UNL     1      47.171   8.299  13.902  0.00  0.00    +0.000 C 
ATOM      3  C   UNL     1      47.770   7.733  12.656  0.00  0.00    +0.000 C 
ENDROOT
BRANCH   1   4
ATOM      4  N   UNL     1      45.349   6.904  12.768  0.00  0.00    +0.000 N 
ATOM      5  C   UNL     1      45.270   5.926  11.786  0.00  0.00    +0.000 A 
ATOM      6  N   UNL     1      44.650   4.794  12.149  0.00  0.00    +0.000 NA
ATOM      7  C   UNL     1      44.546   3.818  11.223  0.00  0.00    +0.000 A 
ATOM      8  C   UNL     1      45.028   3.927   9.943  0.00  0.00    +0.000 A 
ATOM      9  C   UNL     1      45.657   5.120   9.669  0.00  0.00    +0.000 A 
ATOM     10  N   UNL     1      45.795   6.119  10.564  0.00  0.00    +0.000 NA
ATOM     11  H   UNL     1      45.018   6.546  13.651  0.00  0.00    +0.000 HD
BRANCH   8  12
ATOM     12  C   UNL     1      44.887   2.851   8.935  0.00  0.00    +0.000 C 
ATOM     13  F   UNL     1      44.185   1.777   9.389  0.00  0.00    +0.000 F 
ATOM     14  F   UNL     1      44.242   3.270   7.812  0.00  0.00    +0.000 F 
ATOM     15  F   UNL     1      46.086   2.363   8.517  0.00  0.00    +0.000 F 
ENDBRANCH   8  12
ENDBRANCH   1   4
BRANCH   1  20
ATOM     16  C   UNL     1      43.871  10.315  10.994  0.00  0.00    +0.000 A 
ATOM     17  C   UNL     1      44.621  11.410  10.601  0.00  0.00    +0.000 A 
ATOM     18  C   UNL     1      45.961  11.437  10.958  0.00  0.00    +0.000 A 
ATOM     19  C   UNL     1      46.499  10.362  11.665  0.00  0.00    +0.000 A 
ATOM     20  C   UNL     1      45.693   9.275  12.016  0.00  0.00    +0.000 A 
ATOM     21  N   UNL     1      44.366   9.262  11.704  0.00  0.00    +0.000 NA
BRANCH  16  23
ATOM     22  N   UNL     1      41.761   9.121  11.055  0.00  0.00    +0.000 N 
ATOM     23  C   UNL     1      42.423  10.236  10.616  0.00  0.00    +0.000 C 
ATOM     24  O   UNL     1      41.859  11.103   9.960  0.00  0.00    +0.000 OA
ATOM     25  H   UNL     1      40.789   8.990  10.819  0.00  0.00    +0.000 HD
ATOM     26  H   UNL     1      42.270   8.417  11.580  0.00  0.00    +0.000 HD
ENDBRANCH  16  23
ENDBRANCH   1  20
TORSDOF 4
ENDMDL
MODEL 9
REMARK VINA RESULT:    -6.746      4.346      6.989
REMARK INTER + INTRA:          -7.975
REMARK INTER:                  -8.190
REMARK INTRA:                   0.215
REMARK UNBOUND:                 0.348
REMARK  Name = 
REMARK  4 active torsions:
REMARK  status: ('A' for Active; 'I' for Inactive)
REMARK    1  A    between atoms: C_2  and  C_4
REMARK    2  A    between atoms: C_8  and  C_9
REMARK    3  A    between atoms: C_9  and  N_10
REMARK    4  A    between atoms: C_14  and  C_15
REMARK                            x       y       z     vdW  Elec       q    Type
REMARK                         _______ _______ _______ _____ _____    ______ ____
ROOT
ATOM      1  C   UNL     1      49.457   6.535  17.090  0.00  0.00    +0.000 C 
ATOM      2  C   UNL     1      49.493   7.732  18.033  0.00  0.00    +0.000 C 
ATOM      3  C   UNL     1      48.319   6.810  18.056  0.00  0.00    +0.000 C 
ENDROOT
BRANCH   1   4
ATOM      4  N   UNL     1      49.238   6.793  15.666  0.00  0.00    +0.000 N 
ATOM      5  C   UNL     1      48.268   6.134  14.921  0.00  0.00    +0.000 A 
ATOM      6  N   UNL     1      47.944   6.713  13.756  0.00  0.00    +0.000 NA
ATOM      7  C   UNL     1      47.010   6.103  12.998  0.00  0.00    +0.000 A 
ATOM      8  C   UNL     1      46.389   4.931  13.350  0.00  0.00    +0.000 A 
ATOM      9  C   UNL     1      46.780   4.420  14.567  0.00  0.00    +0.000 A 
ATOM     10  N   UNL     1      47.701   5.000  15.363  0.00  0.00    +0.000 NA
ATOM     11  H   UNL     1      49.461   7.683  15.246  0.00  0.00    +0.000 HD
BRANCH   8  12
ATOM     12  C   UNL     1      45.379   4.267  12.494  0.00  0.00    +0.000 C 
ATOM     13  F   UNL     1      45.279   4.818  11.253  0.00  0.00    +0.000 F 
ATOM     14  F   UNL     1      45.650   2.948  12.295  0.00  0.00    +0.000 F 
ATOM     15  F   UNL     1      44.128   4.316  13.025  0.00  0.00    +0.000 F 
ENDBRANCH   8  12
ENDBRANCH   1   4
BRANCH   1  20
ATOM     16  C   UNL     1      51.063   3.180  17.374  0.00  0.00    +0.000 A 
ATOM     17  C   UNL     1      52.260   3.403  18.033  0.00  0.00    +0.000 A 
ATOM     18  C   UNL     1      52.591   4.713  18.347  0.00  0.00    +0.000 A 
ATOM     19  C   UNL     1      51.704   5.737  18.015  0.00  0.00    +0.000 A 
ATOM     20  C   UNL     1      50.500   5.445  17.366  0.00  0.00    +0.000 A 
ATOM     21  N   UNL     1      50.190   4.164  17.018  0.00  0.00    +0.000 NA
BRANCH  16  23
ATOM     22  N   UNL     1      51.301   0.794  17.732  0.00  0.00    +0.000 N 
ATOM     23  C   UNL     1      50.659   1.778  17.030  0.00  0.00    +0.000 C 
ATOM     24  O   UNL     1      49.814   1.519  16.182  0.00  0.00    +0.000 OA
ATOM     25  H   UNL     1      51.096  -0.175  17.537  0.00  0.00    +0.000 HD
ATOM     26  H   UNL     1      52.008   1.050  18.413  0.00  0.00    +0.000 HD
ENDBRANCH  16  23
ENDBRANCH   1  20
TORSDOF 4
ENDMDL
