MODEL 1
REMARK VINA RESULT:    -9.100      0.000      0.000
REMARK INTER + INTRA:         -12.653
REMARK INTER:                 -11.760
REMARK INTRA:                  -0.892
REMARK UNBOUND:                -0.892
REMARK  Name = 
REMARK  5 active torsions:
REMARK  status: ('A' for Active; 'I' for Inactive)
REMARK    1  A    between atoms: C_2  and  C_4
REMARK    2  A    between atoms: N_8  and  C_9
REMARK    3  A    between atoms: C_9  and  C_10
REMARK    4  A    between atoms: C_10  and  C_11
REMARK    5  A    between atoms: C_15  and  C_16
REMARK                            x       y       z     vdW  Elec       q    Type
REMARK                         _______ _______ _______ _____ _____    ______ ____
ROOT
ATOM      1  C   UNL     1      43.278   4.529  11.138  0.00  0.00    +0.000 C 
ENDROOT
BRANCH   1   6
ATOM      2  C   UNL     1      46.468   2.486   7.761  0.00  0.00    +0.000 A 
ATOM      3  C   UNL     1      45.630   1.860   8.676  0.00  0.00    +0.000 A 
ATOM      4  C   UNL     1      44.707   2.626   9.385  0.00  0.00    +0.000 A 
ATOM      5  C   UNL     1      44.652   4.004   9.183  0.00  0.00    +0.000 A 
ATOM      6  N   UNL     1      43.698   4.817   9.775  0.00  0.00    +0.000 N 
ATOM      7  N   UNL     1      45.488   4.625   8.330  0.00  0.00    +0.000 NA
ATOM      8  C   UNL     1      46.380   3.863   7.642  0.00  0.00    +0.000 A 
ATOM      9  H   UNL     1      43.972   5.779   9.580  0.00  0.00    +0.000 HD
BRANCH   2  11
ATOM     10  N   UNL     1      48.498   2.421   6.433  0.00  0.00    +0.000 N 
ATOM     11  C   UNL     1      47.417   1.738   6.913  0.00  0.00    +0.000 C 
ATOM     12  O   UNL     1      47.262   0.546   6.679  0.00  0.00    +0.000 OA
ATOM     13  H   UNL     1      49.203   1.874   5.952  0.00  0.00    +0.000 HD
ATOM     14  H   UNL     1      48.785   3.314   6.811  0.00  0.00    +0.000 HD
ENDBRANCH   2  11
ENDBRANCH   1   6
BRANCH   1  15
ATOM     15  C   UNL     1      43.542   5.735  12.044  0.00  0.00    +0.000 C 
BRANCH  15  16
ATOM     16  C   UNL     1      44.974   5.773  12.505  0.00  0.00    +0.000 A 
ATOM     17  C   UNL     1      45.491   4.777  13.323  0.00  0.00    +0.000 A 
ATOM     18  N   UNL     1      46.766   4.751  13.755  0.00  0.00    +0.000 NA
ATOM     19  C   UNL     1      47.569   5.769  13.354  0.00  0.00    +0.000 A 
ATOM     20  C   UNL     1      47.186   6.817  12.514  0.00  0.00    +0.000 A 
ATOM     21  C   UNL     1      45.846   6.789  12.090  0.00  0.00    +0.000 A 
BRANCH  20  22
ATOM     22  C   UNL     1      48.125   7.884  12.094  0.00  0.00    +0.000 A 
ATOM     23  C   UNL     1      47.705   9.224  11.961  0.00  0.00    +0.000 A 
ATOM     24  C   UNL     1      48.592  10.231  11.565  0.00  0.00    +0.000 A 
ATOM     25  C   UNL     1      49.918   9.915  11.309  0.00  0.00    +0.000 A 
ATOM     26  F   UNL     1      50.770  10.880  10.939  0.00  0.00    +0.000 F 
ATOM     27  C   UNL     1      50.370   8.611  11.434  0.00  0.00    +0.000 A 
ATOM     28  C   UNL     1      49.478   7.604  11.816  0.00  0.00    +0.000 A 
ENDBRANCH  20  22
ENDBRANCH  15  16
ENDBRANCH   1  15
TORSDOF 5
ENDMDL
MODEL 2
REMARK VINA RESULT:    -8.979      0.957      1.171
REMARK INTER + INTRA:         -12.496
REMARK INTER:                 -11.683
REMARK INTRA:                  -0.813
REMARK UNBOUND:                -0.892
REMARK  Name = 
REMARK  5 active torsions:
REMARK  status: ('A' for Active; 'I' for Inactive)
REMARK    1  A    between atoms: C_2  and  C_4
REMARK    2  A    between atoms: N_8  and  C_9
REMARK    3  A    between atoms: C_9  and  C_10
REMARK    4  A    between atoms: C_10  and  C_11
REMARK    5  A    between atoms: C_15  and  C_16
REMARK                            x       y       z     vdW  Elec       q    Type
REMARK                         _______ _______ _______ _____ _____    ______ ____
ROOT
ATOM      1  C   UNL     1      43.315   4.702  11.035  0.00  0.00    +0.000 C 
ENDROOT
BRANCH   1   6
ATOM      2  C   UNL     1      46.394   2.332   7.772  0.00  0.00    +0.000 A 
ATOM      3  C   UNL     1      45.534   1.796   8.723  0.00  0.00    +0.000 A 
ATOM      4  C   UNL     1      44.649   2.642   9.389  0.00  0.00    +0.000 A 
ATOM      5  C   UNL     1      44.654   4.006   9.110  0.00  0.00    +0.000 A 
ATOM      6  N   UNL     1      43.740   4.893   9.657  0.00  0.00    +0.000 N 
ATOM      7  N   UNL     1      45.512   4.541   8.221  0.00  0.00    +0.000 NA
ATOM      8  C   UNL     1      46.366   3.702   7.575  0.00  0.00    +0.000 A 
ATOM      9  H   UNL     1      44.054   5.829   9.407  0.00  0.00    +0.000 HD
BRANCH   2  11
ATOM     10  N   UNL     1      48.381   2.114   6.396  0.00  0.00    +0.000 N 
ATOM     11  C   UNL     1      47.305   1.496   6.965  0.00  0.00    +0.000 C 
ATOM     12  O   UNL     1      47.125   0.290   6.841  0.00  0.00    +0.000 OA
ATOM     13  H   UNL     1      49.062   1.515   5.944  0.00  0.00    +0.000 HD
ATOM     14  H   UNL     1      48.693   3.032   6.685  0.00  0.00    +0.000 HD
ENDBRANCH   2  11
ENDBRANCH   1   6
BRANCH   1  15
ATOM     15  C   UNL     1      43.706   5.912  11.888  0.00  0.00    +0.000 C 
BRANCH  15  16
ATOM     16  C   UNL     1      44.983   5.663  12.643  0.00  0.00    +0.000 A 
ATOM     17  C   UNL     1      45.097   4.601  13.529  0.00  0.00    +0.000 A 
ATOM     18  N   UNL     1      46.218   4.321  14.221  0.00  0.00    +0.000 NA
ATOM     19  C   UNL     1      47.280   5.141  14.022  0.00  0.00    +0.000 A 
ATOM     20  C   UNL     1      47.310   6.227  13.143  0.00  0.00    +0.000 A 
ATOM     21  C   UNL     1      46.114   6.467  12.445  0.00  0.00    +0.000 A 
BRANCH  20  22
ATOM     22  C   UNL     1      48.517   7.065  12.956  0.00  0.00    +0.000 A 
ATOM     23  C   UNL     1      48.806   7.675  11.717  0.00  0.00    +0.000 A 
ATOM     24  C   UNL     1      49.945   8.468  11.541  0.00  0.00    +0.000 A 
ATOM     25  C   UNL     1      50.808   8.674  12.607  0.00  0.00    +0.000 A 
ATOM     26  F   UNL     1      51.894   9.440  12.442  0.00  0.00    +0.000 F 
ATOM     27  C   UNL     1      50.557   8.096  13.841  0.00  0.00    +0.000 A 
ATOM     28  C   UNL     1      49.424   7.293  14.011  0.00  0.00    +0.000 A 
ENDBRANCH  20  22
ENDBRANCH  15  16
ENDBRANCH   1  15
TORSDOF 5
ENDMDL
MODEL 3
REMARK VINA RESULT:    -8.911      2.898      4.143
REMARK INTER + INTRA:         -12.407
REMARK INTER:                 -11.703
REMARK INTRA:                  -0.705
REMARK UNBOUND:                -0.892
REMARK  Name = 
REMARK  5 active torsions:
REMARK  status: ('A' for Active; 'I' for Inactive)
REMARK    1  A    between atoms: C_2  and  C_4
REMARK    2  A    between atoms: N_8  and  C_9
REMARK    3  A    between atoms: C_9  and  C_10
REMARK    4  A    between atoms: C_10  and  C_11
REMARK    5  A    between atoms: C_15  and  C_16
REMARK                            x       y       z     vdW  Elec       q    Type
REMARK                         _______ _______ _______ _____ _____    ______ ____
ROOT
ATOM      1  C   UNL     1      43.346   4.448  11.219  0.00  0.00    +0.000 C 
ENDROOT
BRANCH   1   6
ATOM      2  C   UNL     1      46.446   2.457   7.730  0.00  0.00    +0.000 A 
ATOM      3  C   UNL     1      45.657   1.817   8.677  0.00  0.00    +0.000 A 
ATOM      4  C   UNL     1      44.746   2.568   9.418  0.00  0.00    +0.000 A 
ATOM      5  C   UNL     1      44.655   3.943   9.215  0.00  0.00    +0.000 A 
ATOM      6  N   UNL     1      43.709   4.739   9.840  0.00  0.00    +0.000 N 
ATOM      7  N   UNL     1      45.447   4.579   8.329  0.00  0.00    +0.000 NA
ATOM      8  C   UNL     1      46.326   3.832   7.610  0.00  0.00    +0.000 A 
ATOM      9  H   UNL     1      43.956   5.706   9.632  0.00  0.00    +0.000 HD
BRANCH   2  11
ATOM     10  N   UNL     1      48.451   2.416   6.362  0.00  0.00    +0.000 N 
ATOM     11  C   UNL     1      47.378   1.725   6.848  0.00  0.00    +0.000 C 
ATOM     12  O   UNL     1      47.216   0.538   6.592  0.00  0.00    +0.000 OA
ATOM     13  H   UNL     1      49.145   1.878   5.857  0.00  0.00    +0.000 HD
ATOM     14  H   UNL     1      48.747   3.301   6.753  0.00  0.00    +0.000 HD
ENDBRANCH   2  11
ENDBRANCH   1   6
BRANCH   1  15
ATOM     15  C   UNL     1      43.612   5.665  12.110  0.00  0.00    +0.000 C 
BRANCH  15  16
ATOM     16  C   UNL     1      45.075   5.800  12.434  0.00  0.00    +0.000 A 
ATOM     17  C   UNL     1      45.929   6.517  11.607  0.00  0.00    +0.000 A 
ATOM     18  N   UNL     1      47.243   6.684  11.853  0.00  0.00    +0.000 NA
ATOM     19  C   UNL     1      47.733   6.107  12.978  0.00  0.00    +0.000 A 
ATOM     20  C   UNL     1      46.982   5.382  13.908  0.00  0.00    +0.000 A 
ATOM     21  C   UNL     1      45.617   5.246  13.602  0.00  0.00    +0.000 A 
BRANCH  20  22
ATOM     22  C   UNL     1      47.580   4.800  15.132  0.00  0.00    +0.000 A 
ATOM     23  C   UNL     1      48.308   5.592  16.044  0.00  0.00    +0.000 A 
ATOM     24  C   UNL     1      48.873   5.042  17.201  0.00  0.00    +0.000 A 
ATOM     25  C   UNL     1      48.705   3.692  17.470  0.00  0.00    +0.000 A 
ATOM     26  F   UNL     1      49.236   3.166  18.581  0.00  0.00    +0.000 F 
ATOM     27  C   UNL     1      47.991   2.881  16.601  0.00  0.00    +0.000 A 
ATOM     28  C   UNL     1      47.441   3.431  15.438  0.00  0.00    +0.000 A 
ENDBRANCH  20  22
ENDBRANCH  15  16
ENDBRANCH   1  15
TORSDOF 5
ENDMDL
MODEL 4
REMARK VINA RESULT:    -8.333      1.252      1.676
REMARK INTER + INTRA:         -11.660
REMARK INTER:                 -10.847
REMARK INTRA:                  -0.814
REMARK UNBOUND:                -0.892
REMARK  Name = 
REMARK  5 active torsions:
REMARK  status: ('A' for Active; 'I' for Inactive)
REMARK    1  A    between atoms: C_2  and  C_4
REMARK    2  A    between atoms: N_8  and  C_9
REMARK    3  A    between atoms: C_9  and  C_10
REMARK    4  A    between atoms: C_10  and  C_11
REMARK    5  A    between atoms: C_15  and  C_16
REMARK                            x       y       z     vdW  Elec       q    Type
REMARK                         _______ _______ _______ _____ _____    ______ ____
ROOT
ATOM      1  C   UNL     1      44.116   4.830  11.359  0.00  0.00    +0.000 C 
ENDROOT
BRANCH   1   6
ATOM      2  C   UNL     1      46.599   2.532   7.578  0.00  0.00    +0.000 A 
ATOM      3  C   UNL     1      45.826   1.978   8.591  0.00  0.00    +0.000 A 
ATOM      4  C   UNL     1      45.091   2.823   9.421  0.00  0.00    +0.000 A 
ATOM      5  C   UNL     1      45.158   4.202   9.237  0.00  0.00    +0.000 A 
ATOM      6  N   UNL     1      44.383   5.100   9.955  0.00  0.00    +0.000 N 
ATOM      7  N   UNL     1      45.938   4.750   8.285  0.00  0.00    +0.000 NA
ATOM      8  C   UNL     1      46.644   3.912   7.481  0.00  0.00    +0.000 A 
ATOM      9  H   UNL     1      44.730   6.031   9.732  0.00  0.00    +0.000 HD
BRANCH   2  11
ATOM     10  N   UNL     1      48.318   2.324   5.877  0.00  0.00    +0.000 N 
ATOM     11  C   UNL     1      47.344   1.705   6.607  0.00  0.00    +0.000 C 
ATOM     12  O   UNL     1      47.123   0.506   6.487  0.00  0.00    +0.000 OA
ATOM     13  H   UNL     1      48.900   1.727   5.301  0.00  0.00    +0.000 HD
ATOM     14  H   UNL     1      48.691   3.229   6.130  0.00  0.00    +0.000 HD
ENDBRANCH   2  11
ENDBRANCH   1   6
BRANCH   1  15
ATOM     15  C   UNL     1      45.397   4.975  12.185  0.00  0.00    +0.000 C 
BRANCH  15  16
ATOM     16  C   UNL     1      45.852   6.407  12.249  0.00  0.00    +0.000 A 
ATOM     17  C   UNL     1      45.001   7.410  12.695  0.00  0.00    +0.000 A 
ATOM     18  N   UNL     1      45.356   8.706  12.787  0.00  0.00    +0.000 NA
ATOM     19  C   UNL     1      46.622   9.021  12.416  0.00  0.00    +0.000 A 
ATOM     20  C   UNL     1      47.586   8.110  11.974  0.00  0.00    +0.000 A 
ATOM     21  C   UNL     1      47.160   6.773  11.904  0.00  0.00    +0.000 A 
BRANCH  20  22
ATOM     22  C   UNL     1      48.961   8.522  11.609  0.00  0.00    +0.000 A 
ATOM     23  C   UNL     1      49.299   9.880  11.426  0.00  0.00    +0.000 A 
ATOM     24  C   UNL     1      50.598  10.269  11.080  0.00  0.00    +0.000 A 
ATOM     25  C   UNL     1      51.584   9.305  10.926  0.00  0.00    +0.000 A 
ATOM     26  F   UNL     1      52.830   9.678  10.605  0.00  0.00    +0.000 F 
ATOM     27  C   UNL     1      51.293   7.962  11.103  0.00  0.00    +0.000 A 
ATOM     28  C   UNL     1      49.990   7.575  11.434  0.00  0.00    +0.000 A 
ENDBRANCH  20  22
ENDBRANCH  15  16
ENDBRANCH   1  15
TORSDOF 5
ENDMDL
MODEL 5
REMARK VINA RESULT:    -8.190      4.623      7.884
REMARK INTER + INTRA:         -11.476
REMARK INTER:                 -10.862
REMARK INTRA:                  -0.614
REMARK UNBOUND:                -0.892
REMARK  Name = 
REMARK  5 active torsions:
REMARK  status: ('A' for Active; 'I' for Inactive)
REMARK    1  A    between atoms: C_2  and  C_4
REMARK    2  A    between atoms: N_8  and  C_9
REMARK    3  A    between atoms: C_9  and  C_10
REMARK    4  A    between atoms: C_10  and  C_11
REMARK    5  A    between atoms: C_15  and  C_16
REMARK                            x       y       z     vdW  Elec       q    Type
REMARK                         _______ _______ _______ _____ _____    ______ ____
ROOT
ATOM      1  C   UNL     1      46.199   5.720  13.339  0.00  0.00    +0.000 C 
ENDROOT
BRANCH   1   6
ATOM      2  C   UNL     1      49.126   4.097  17.152  0.00  0.00    +0.000 A 
ATOM      3  C   UNL     1      48.918   5.390  16.688  0.00  0.00    +0.000 A 
ATOM      4  C   UNL     1      47.927   5.615  15.735  0.00  0.00    +0.000 A 
ATOM      5  C   UNL     1      47.178   4.546  15.249  0.00  0.00    +0.000 A 
ATOM      6  N   UNL     1      46.113   4.703  14.376  0.00  0.00    +0.000 N 
ATOM      7  N   UNL     1      47.402   3.284  15.661  0.00  0.00    +0.000 NA
ATOM      8  C   UNL     1      48.369   3.080  16.596  0.00  0.00    +0.000 A 
ATOM      9  H   UNL     1      45.844   3.769  14.071  0.00  0.00    +0.000 HD
BRANCH   2  11
ATOM     10  N   UNL     1      50.888   2.683  18.041  0.00  0.00    +0.000 N 
ATOM     11  C   UNL     1      50.100   3.784  18.218  0.00  0.00    +0.000 C 
ATOM     12  O   UNL     1      50.222   4.502  19.203  0.00  0.00    +0.000 OA
ATOM     13  H   UNL     1      51.630   2.543  18.717  0.00  0.00    +0.000 HD
ATOM     14  H   UNL     1      50.989   2.229  17.142  0.00  0.00    +0.000 HD
ENDBRANCH   2  11
ENDBRANCH   1   6
BRANCH   1  15
ATOM     15  C   UNL     1      44.851   5.875  12.630  0.00  0.00    +0.000 C 
BRANCH  15  16
ATOM     16  C   UNL     1      44.532   4.672  11.785  0.00  0.00    +0.000 A 
ATOM     17  C   UNL     1      43.465   3.839  12.095  0.00  0.00    +0.000 A 
ATOM     18  N   UNL     1      43.124   2.758  11.369  0.00  0.00    +0.000 NA
ATOM     19  C   UNL     1      43.884   2.489  10.278  0.00  0.00    +0.000 A 
ATOM     20  C   UNL     1      44.967   3.256   9.838  0.00  0.00    +0.000 A 
ATOM     21  C   UNL     1      45.272   4.374  10.632  0.00  0.00    +0.000 A 
BRANCH  20  22
ATOM     22  C   UNL     1      45.738   2.917   8.620  0.00  0.00    +0.000 A 
ATOM     23  C   UNL     1      46.081   3.900   7.667  0.00  0.00    +0.000 A 
ATOM     24  C   UNL     1      46.810   3.580   6.517  0.00  0.00    +0.000 A 
ATOM     25  C   UNL     1      47.219   2.271   6.307  0.00  0.00    +0.000 A 
ATOM     26  F   UNL     1      47.924   1.965   5.210  0.00  0.00    +0.000 F 
ATOM     27  C   UNL     1      46.906   1.278   7.221  0.00  0.00    +0.000 A 
ATOM     28  C   UNL     1      46.165   1.598   8.363  0.00  0.00    +0.000 A 
ENDBRANCH  20  22
ENDBRANCH  15  16
ENDBRANCH   1  15
TORSDOF 5
ENDMDL
MODEL 6
REMARK VINA RESULT:    -8.069      3.832      7.049
REMARK INTER + INTRA:         -11.320
REMARK INTER:                 -10.522
REMARK INTRA:                  -0.798
REMARK UNBOUND:                -0.892
REMARK  Name = 
REMARK  5 active torsions:
REMARK  status: ('A' for Active; 'I' for Inactive)
REMARK    1  A    between atoms: C_2  and  C_4
REMARK    2  A    between atoms: N_8  and  C_9
REMARK    3  A    between atoms: C_9  and  C_10
REMARK    4  A    between atoms: C_10  and  C_11
REMARK    5  A    between atoms: C_15  and  C_16
REMARK                            x       y       z     vdW  Elec       q    Type
REMARK                         _______ _______ _______ _____ _____    ______ ____
ROOT
ATOM      1  C   UNL     1      44.317   6.453  12.736  0.00  0.00    +0.000 C 
ENDROOT
BRANCH   1   6
ATOM      2  C   UNL     1      49.017   8.319  12.330  0.00  0.00    +0.000 A 
ATOM      3  C   UNL     1      48.440   7.233  11.683  0.00  0.00    +0.000 A 
ATOM      4  C   UNL     1      47.071   7.013  11.821  0.00  0.00    +0.000 A 
ATOM      5  C   UNL     1      46.309   7.867  12.617  0.00  0.00    +0.000 A 
ATOM      6  N   UNL     1      44.931   7.771  12.724  0.00  0.00    +0.000 N 
ATOM      7  N   UNL     1      46.868   8.896  13.281  0.00  0.00    +0.000 NA
ATOM      8  C   UNL     1      48.204   9.101  13.132  0.00  0.00    +0.000 A 
ATOM      9  H   UNL     1      44.650   8.408  13.468  0.00  0.00    +0.000 HD
BRANCH   2  11
ATOM     10  N   UNL     1      51.267   7.714  11.649  0.00  0.00    +0.000 N 
ATOM     11  C   UNL     1      50.443   8.670  12.172  0.00  0.00    +0.000 C 
ATOM     12  O   UNL     1      50.864   9.782  12.463  0.00  0.00    +0.000 OA
ATOM     13  H   UNL     1      52.216   8.000  11.436  0.00  0.00    +0.000 HD
ATOM     14  H   UNL     1      50.912   6.896  11.171  0.00  0.00    +0.000 HD
ENDBRANCH   2  11
ENDBRANCH   1   6
BRANCH   1  15
ATOM     15  C   UNL     1      43.595   6.186  11.413  0.00  0.00    +0.000 C 
BRANCH  15  16
ATOM     16  C   UNL     1      43.817   4.775  10.940  0.00  0.00    +0.000 A 
ATOM     17  C   UNL     1      43.158   3.707  11.535  0.00  0.00    +0.000 A 
ATOM     18  N   UNL     1      43.306   2.426  11.146  0.00  0.00    +0.000 NA
ATOM     19  C   UNL     1      44.154   2.195  10.113  0.00  0.00    +0.000 A 
ATOM     20  C   UNL     1      44.858   3.176   9.409  0.00  0.00    +0.000 A 
ATOM     21  C   UNL     1      44.660   4.493   9.856  0.00  0.00    +0.000 A 
BRANCH  20  22
ATOM     22  C   UNL     1      45.749   2.852   8.271  0.00  0.00    +0.000 A 
ATOM     23  C   UNL     1      46.327   1.573   8.128  0.00  0.00    +0.000 A 
ATOM     24  C   UNL     1      47.168   1.268   7.052  0.00  0.00    +0.000 A 
ATOM     25  C   UNL     1      47.435   2.235   6.095  0.00  0.00    +0.000 A 
ATOM     26  F   UNL     1      48.233   1.941   5.060  0.00  0.00    +0.000 F 
ATOM     27  C   UNL     1      46.883   3.502   6.197  0.00  0.00    +0.000 A 
ATOM     28  C   UNL     1      46.054   3.809   7.281  0.00  0.00    +0.000 A 
ENDBRANCH  20  22
ENDBRANCH  15  16
ENDBRANCH   1  15
TORSDOF 5
ENDMDL
MODEL 7
REMARK VINA RESULT:    -7.773      4.001      7.147
REMARK INTER + INTRA:         -10.938
REMARK INTER:                 -10.044
REMARK INTRA:                  -0.893
REMARK UNBOUND:                -0.892
REMARK  Name = 
REMARK  5 active torsions:
REMARK  status: ('A' for Active; 'I' for Inactive)
REMARK    1  A    between atoms: C_2  and  C_4
REMARK    2  A    between atoms: N_8  and  C_9
REMARK    3  A    between atoms: C_9  and  C_10
REMARK    4  A    between atoms: C_10  and  C_11
REMARK    5  A    between atoms: C_15  and  C_16
REMARK                            x       y       z     vdW  Elec       q    Type
REMARK                         _______ _______ _______ _____ _____    ______ ____
ROOT
ATOM      1  C   UNL     1      44.659   7.381  10.994  0.00  0.00    +0.000 C 
ENDROOT
BRANCH   1   6
ATOM      2  C   UNL     1      48.904   7.573  13.767  0.00  0.00    +0.000 A 
ATOM      3  C   UNL     1      48.682   6.973  12.534  0.00  0.00    +0.000 A 
ATOM      4  C   UNL     1      47.474   7.202  11.877  0.00  0.00    +0.000 A 
ATOM      5  C   UNL     1      46.505   8.007  12.471  0.00  0.00    +0.000 A 
ATOM      6  N   UNL     1      45.323   8.361  11.839  0.00  0.00    +0.000 N 
ATOM      7  N   UNL     1      46.694   8.558  13.685  0.00  0.00    +0.000 NA
ATOM      8  C   UNL     1      47.880   8.330  14.311  0.00  0.00    +0.000 A 
ATOM      9  H   UNL     1      44.743   8.821  12.538  0.00  0.00    +0.000 HD
BRANCH   2  11
ATOM     10  N   UNL     1      51.310   7.877  13.848  0.00  0.00    +0.000 N 
ATOM     11  C   UNL     1      50.184   7.447  14.491  0.00  0.00    +0.000 C 
ATOM     12  O   UNL     1      50.232   7.009  15.634  0.00  0.00    +0.000 OA
ATOM     13  H   UNL     1      52.164   7.896  14.394  0.00  0.00    +0.000 HD
ATOM     14  H   UNL     1      51.273   8.467  13.028  0.00  0.00    +0.000 HD
ENDBRANCH   2  11
ENDBRANCH   1   6
BRANCH   1  15
ATOM     15  C   UNL     1      43.805   6.434  11.842  0.00  0.00    +0.000 C 
BRANCH  15  16
ATOM     16  C   UNL     1      43.899   5.016  11.347  0.00  0.00    +0.000 A 
ATOM     17  C   UNL     1      43.164   3.999  11.942  0.00  0.00    +0.000 A 
ATOM     18  N   UNL     1      43.197   2.716  11.533  0.00  0.00    +0.000 NA
ATOM     19  C   UNL     1      44.004   2.429  10.481  0.00  0.00    +0.000 A 
ATOM     20  C   UNL     1      44.775   3.358   9.777  0.00  0.00    +0.000 A 
ATOM     21  C   UNL     1      44.696   4.681  10.244  0.00  0.00    +0.000 A 
BRANCH  20  22
ATOM     22  C   UNL     1      45.615   2.977   8.618  0.00  0.00    +0.000 A 
ATOM     23  C   UNL     1      46.033   1.645   8.416  0.00  0.00    +0.000 A 
ATOM     24  C   UNL     1      46.826   1.286   7.321  0.00  0.00    +0.000 A 
ATOM     25  C   UNL     1      47.203   2.253   6.401  0.00  0.00    +0.000 A 
ATOM     26  F   UNL     1      47.955   1.909   5.348  0.00  0.00    +0.000 F 
ATOM     27  C   UNL     1      46.809   3.572   6.561  0.00  0.00    +0.000 A 
ATOM     28  C   UNL     1      46.028   3.930   7.665  0.00  0.00    +0.000 A 
ENDBRANCH  20  22
ENDBRANCH  15  16
ENDBRANCH   1  15
TORSDOF 5
ENDMDL
MODEL 8
REMARK VINA RESULT:    -7.773      3.972      7.318
REMARK INTER + INTRA:         -10.937
REMARK INTER:                 -10.565
REMARK INTRA:                  -0.372
REMARK UNBOUND:                -0.892
REMARK  Name = 
REMARK  5 active torsions:
REMARK  status: ('A' for Active; 'I' for Inactive)
REMARK    1  A    between atoms: C_2  and  C_4
REMARK    2  A    between atoms: N_8  and  C_9
REMARK    3  A    between atoms: C_9  and  C_10
REMARK    4  A    between atoms: C_10  and  C_11
REMARK    5  A    between atoms: C_15  and  C_16
REMARK                            x       y       z     vdW  Elec       q    Type
REMARK                         _______ _______ _______ _____ _____    ______ ____
ROOT
ATOM      1  C   UNL     1      47.300   7.440  11.900  0.00  0.00    +0.000 C 
ENDROOT
BRANCH   1   6
ATOM      2  C   UNL     1      47.564   4.367  15.929  0.00  0.00    +0.000 A 
ATOM      3  C   UNL     1      47.153   4.088  14.632  0.00  0.00    +0.000 A 
ATOM      4  C   UNL     1      47.334   5.052  13.642  0.00  0.00    +0.000 A 
ATOM      5  C   UNL     1      47.901   6.282  13.970  0.00  0.00    +0.000 A 
ATOM      6  N   UNL     1      48.202   7.251  13.026  0.00  0.00    +0.000 N 
ATOM      7  N   UNL     1      48.262   6.577  15.233  0.00  0.00    +0.000 NA
ATOM      8  C   UNL     1      48.085   5.624  16.186  0.00  0.00    +0.000 A 
ATOM      9  H   UNL     1      48.464   8.090  13.541  0.00  0.00    +0.000 HD
BRANCH   2  11
ATOM     10  N   UNL     1      48.656   2.983  17.597  0.00  0.00    +0.000 N 
ATOM     11  C   UNL     1      47.482   3.373  17.018  0.00  0.00    +0.000 C 
ATOM     12  O   UNL     1      46.405   2.943  17.412  0.00  0.00    +0.000 OA
ATOM     13  H   UNL     1      48.582   2.393  18.418  0.00  0.00    +0.000 HD
ATOM     14  H   UNL     1      49.518   3.498  17.474  0.00  0.00    +0.000 HD
ENDBRANCH   2  11
ENDBRANCH   1   6
BRANCH   1  15
ATOM     15  C   UNL     1      45.843   7.403  12.370  0.00  0.00    +0.000 C 
BRANCH  15  16
ATOM     16  C   UNL     1      45.039   6.398  11.591  0.00  0.00    +0.000 A 
ATOM     17  C   UNL     1      43.660   6.318  11.734  0.00  0.00    +0.000 A 
ATOM     18  N   UNL     1      42.888   5.449  11.053  0.00  0.00    +0.000 NA
ATOM     19  C   UNL     1      43.519   4.617  10.187  0.00  0.00    +0.000 A 
ATOM     20  C   UNL     1      44.892   4.610   9.929  0.00  0.00    +0.000 A 
ATOM     21  C   UNL     1      45.646   5.541  10.663  0.00  0.00    +0.000 A 
BRANCH  20  22
ATOM     22  C   UNL     1      45.512   3.688   8.948  0.00  0.00    +0.000 A 
ATOM     23  C   UNL     1      45.450   2.288   9.111  0.00  0.00    +0.000 A 
ATOM     24  C   UNL     1      46.035   1.418   8.185  0.00  0.00    +0.000 A 
ATOM     25  C   UNL     1      46.681   1.935   7.072  0.00  0.00    +0.000 A 
ATOM     26  F   UNL     1      47.233   1.103   6.180  0.00  0.00    +0.000 F 
ATOM     27  C   UNL     1      46.759   3.304   6.873  0.00  0.00    +0.000 A 
ATOM     28  C   UNL     1      46.186   4.172   7.809  0.00  0.00    +0.000 A 
ENDBRANCH  20  22
ENDBRANCH  15  16
ENDBRANCH   1  15
TORSDOF 5
ENDMDL
MODEL 9
REMARK VINA RESULT:    -7.079      4.301      7.812
REMARK INTER + INTRA:         -10.041
REMARK INTER:                  -9.183
REMARK INTRA:                  -0.858
REMARK UNBOUND:                -0.892
REMARK  Name = 
REMARK  5 active torsions:
REMARK  status: ('A' for Active; 'I' for Inactive)
REMARK    1  A    between atoms: C_2  and  C_4
REMARK    2  A    between atoms: N_8  and  C_9
REMARK    3  A    between atoms: C_9  and  C_10
REMARK    4  A    between atoms: C_10  and  C_11
REMARK    5  A    between atoms: C_15  and  C_16
REMARK                            x       y       z     vdW  Elec       q    Type
REMARK                         _______ _______ _______ _____ _____    ______ ____
ROOT
ATOM      1  C   UNL     1      49.148   8.484  13.808  0.00  0.00    +0.000 C 
ENDROOT
BRANCH   1   6
ATOM      2  C   UNL     1      48.155   4.551  16.856  0.00  0.00    +0.000 A 
ATOM      3  C   UNL     1      47.434   5.029  15.769  0.00  0.00    +0.000 A 
ATOM      4  C   UNL     1      47.996   6.022  14.968  0.00  0.00    +0.000 A 
ATOM      5  C   UNL     1      49.254   6.532  15.279  0.00  0.00    +0.000 A 
ATOM      6  N   UNL     1      49.918   7.447  14.477  0.00  0.00    +0.000 N 
ATOM      7  N   UNL     1      49.942   6.106  16.355  0.00  0.00    +0.000 NA
ATOM      8  C   UNL     1      49.383   5.133  17.124  0.00  0.00    +0.000 A 
ATOM      9  H   UNL     1      50.734   7.758  15.001  0.00  0.00    +0.000 HD
BRANCH   2  11
ATOM     10  N   UNL     1      48.420   3.123  18.801  0.00  0.00    +0.000 N 
ATOM     11  C   UNL     1      47.669   3.446  17.707  0.00  0.00    +0.000 C 
ATOM     12  O   UNL     1      46.617   2.868  17.464  0.00  0.00    +0.000 OA
ATOM     13  H   UNL     1      48.020   2.447  19.441  0.00  0.00    +0.000 HD
ATOM     14  H   UNL     1      49.138   3.736  19.165  0.00  0.00    +0.000 HD
ENDBRANCH   2  11
ENDBRANCH   1   6
BRANCH   1  15
ATOM     15  C   UNL     1      48.952   8.136  12.330  0.00  0.00    +0.000 C 
BRANCH  15  16
ATOM     16  C   UNL     1      47.511   7.827  12.024  0.00  0.00    +0.000 A 
ATOM     17  C   UNL     1      46.511   8.758  12.269  0.00  0.00    +0.000 A 
ATOM     18  N   UNL     1      45.208   8.544  12.002  0.00  0.00    +0.000 NA
ATOM     19  C   UNL     1      44.884   7.341  11.466  0.00  0.00    +0.000 A 
ATOM     20  C   UNL     1      45.790   6.327  11.146  0.00  0.00    +0.000 A 
ATOM     21  C   UNL     1      47.135   6.610  11.441  0.00  0.00    +0.000 A 
BRANCH  20  22
ATOM     22  C   UNL     1      45.367   5.045  10.536  0.00  0.00    +0.000 A 
ATOM     23  C   UNL     1      45.603   4.763   9.174  0.00  0.00    +0.000 A 
ATOM     24  C   UNL     1      45.204   3.552   8.598  0.00  0.00    +0.000 A 
ATOM     25  C   UNL     1      44.573   2.597   9.381  0.00  0.00    +0.000 A 
ATOM     26  F   UNL     1      44.199   1.434   8.833  0.00  0.00    +0.000 F 
ATOM     27  C   UNL     1      44.327   2.833  10.724  0.00  0.00    +0.000 A 
ATOM     28  C   UNL     1      44.715   4.051  11.293  0.00  0.00    +0.000 A 
ENDBRANCH  20  22
ENDBRANCH  15  16
ENDBRANCH   1  15
TORSDOF 5
ENDMDL
