MODEL 1
REMARK VINA RESULT:    -9.185      0.000      0.000
REMARK INTER + INTRA:         -12.697
REMARK INTER:                 -11.870
REMARK INTRA:                  -0.827
REMARK UNBOUND:                -0.827
REMARK  Name = 
REMARK  5 active torsions:
REMARK  status: ('A' for Active; 'I' for Inactive)
REMARK    1  A    between atoms: C_2  and  C_4
REMARK    2  A    between atoms: C_8  and  N_9
REMARK    3  A    between atoms: N_9  and  C_10
REMARK    4  A    between atoms: C_10  and  C_11
REMARK    5  A    between atoms: C_13  and  C_14
REMARK                            x       y       z     vdW  Elec       q    Type
REMARK                         _______ _______ _______ _____ _____    ______ ____
ROOT
ATOM      1  N   UNL     1      44.117   6.642  12.457  0.00  0.00    +0.000 N 
ATOM      2  H   UNL     1      43.568   6.787  13.297  0.00  0.00    +0.000 HD
ENDROOT
BRANCH   1   7
ATOM      3  C   UNL     1      46.990   5.177  13.920  0.00  0.00    +0.000 A 
ATOM      4  N   UNL     1      48.053   5.786  13.367  0.00  0.00    +0.000 NA
ATOM      5  C   UNL     1      47.764   6.699  12.435  0.00  0.00    +0.000 A 
ATOM      6  C   UNL     1      46.478   7.023  12.066  0.00  0.00    +0.000 A 
ATOM      7  C   UNL     1      45.443   6.351  12.693  0.00  0.00    +0.000 A 
ATOM      8  N   UNL     1      45.685   5.413  13.622  0.00  0.00    +0.000 NA
BRANCH   3  10
ATOM      9  N   UNL     1      47.195   4.594  16.287  0.00  0.00    +0.000 N 
ATOM     10  C   UNL     1      47.274   4.145  14.991  0.00  0.00    +0.000 C 
ATOM     11  O   UNL     1      47.559   2.974  14.759  0.00  0.00    +0.000 OA
ATOM     12  H   UNL     1      47.376   3.942  17.042  0.00  0.00    +0.000 HD
ATOM     13  H   UNL     1      46.963   5.557  16.482  0.00  0.00    +0.000 HD
ENDBRANCH   3  10
ENDBRANCH   1   7
BRANCH   1  14
ATOM     14  C   UNL     1      43.420   6.235  11.249  0.00  0.00    +0.000 C 
BRANCH  14  15
ATOM     15  C   UNL     1      43.675   4.783  10.901  0.00  0.00    +0.000 A 
ATOM     16  C   UNL     1      44.482   4.448   9.810  0.00  0.00    +0.000 A 
ATOM     17  C   UNL     1      44.748   3.101   9.512  0.00  0.00    +0.000 A 
ATOM     18  C   UNL     1      44.163   2.144  10.352  0.00  0.00    +0.000 A 
ATOM     19  C   UNL     1      43.369   2.555  11.411  0.00  0.00    +0.000 A 
ATOM     20  N   UNL     1      43.109   3.845  11.699  0.00  0.00    +0.000 NA
BRANCH  17  21
ATOM     21  C   UNL     1      45.600   2.707   8.362  0.00  0.00    +0.000 A 
ATOM     22  C   UNL     1      45.870   3.598   7.305  0.00  0.00    +0.000 A 
ATOM     23  C   UNL     1      46.702   3.241   6.238  0.00  0.00    +0.000 A 
ATOM     24  C   UNL     1      47.272   1.973   6.192  0.00  0.00    +0.000 A 
ATOM     25  C   UNL     1      47.009   1.065   7.211  0.00  0.00    +0.000 A 
ATOM     26  C   UNL     1      46.188   1.430   8.285  0.00  0.00    +0.000 A 
ENDBRANCH  17  21
ENDBRANCH  14  15
ENDBRANCH   1  14
TORSDOF 5
ENDMDL
MODEL 2
REMARK VINA RESULT:    -8.454      1.676      2.295
REMARK INTER + INTRA:         -11.753
REMARK INTER:                 -10.938
REMARK INTRA:                  -0.815
REMARK UNBOUND:                -0.827
REMARK  Name = 
REMARK  5 active torsions:
REMARK  status: ('A' for Active; 'I' for Inactive)
REMARK    1  A    between atoms: C_2  and  C_4
REMARK    2  A    between atoms: C_8  and  N_9
REMARK    3  A    between atoms: N_9  and  C_10
REMARK    4  A    between atoms: C_10  and  C_11
REMARK    5  A    between atoms: C_13  and  C_14
REMARK                            x       y       z     vdW  Elec       q    Type
REMARK                         _______ _______ _______ _____ _____    ______ ____
ROOT
ATOM      1  N   UNL     1      44.231   6.702  12.551  0.00  0.00    +0.000 N 
ATOM      2  H   UNL     1      43.620   6.827  13.350  0.00  0.00    +0.000 HD
ENDROOT
BRANCH   1   7
ATOM      3  C   UNL     1      47.772   6.735  12.622  0.00  0.00    +0.000 A 
ATOM      4  N   UNL     1      48.150   5.656  13.330  0.00  0.00    +0.000 NA
ATOM      5  C   UNL     1      47.150   4.924  13.828  0.00  0.00    +0.000 A 
ATOM      6  C   UNL     1      45.821   5.222  13.626  0.00  0.00    +0.000 A 
ATOM      7  C   UNL     1      45.522   6.347  12.878  0.00  0.00    +0.000 A 
ATOM      8  N   UNL     1      46.494   7.124  12.374  0.00  0.00    +0.000 NA
BRANCH   3  10
ATOM      9  N   UNL     1      50.153   7.103  12.195  0.00  0.00    +0.000 N 
ATOM     10  C   UNL     1      48.876   7.585  12.029  0.00  0.00    +0.000 C 
ATOM     11  O   UNL     1      48.687   8.640  11.433  0.00  0.00    +0.000 OA
ATOM     12  H   UNL     1      50.928   7.634  11.816  0.00  0.00    +0.000 HD
ATOM     13  H   UNL     1      50.313   6.236  12.687  0.00  0.00    +0.000 HD
ENDBRANCH   3  10
ENDBRANCH   1   7
BRANCH   1  14
ATOM     14  C   UNL     1      43.624   6.385  11.270  0.00  0.00    +0.000 C 
BRANCH  14  15
ATOM     15  C   UNL     1      43.788   4.924  10.903  0.00  0.00    +0.000 A 
ATOM     16  C   UNL     1      44.600   4.552   9.828  0.00  0.00    +0.000 A 
ATOM     17  C   UNL     1      44.782   3.195   9.513  0.00  0.00    +0.000 A 
ATOM     18  C   UNL     1      44.111   2.267  10.320  0.00  0.00    +0.000 A 
ATOM     19  C   UNL     1      43.318   2.714  11.365  0.00  0.00    +0.000 A 
ATOM     20  N   UNL     1      43.139   4.015  11.669  0.00  0.00    +0.000 NA
BRANCH  17  21
ATOM     21  C   UNL     1      45.637   2.762   8.379  0.00  0.00    +0.000 A 
ATOM     22  C   UNL     1      45.960   3.637   7.323  0.00  0.00    +0.000 A 
ATOM     23  C   UNL     1      46.794   3.242   6.271  0.00  0.00    +0.000 A 
ATOM     24  C   UNL     1      47.313   1.953   6.240  0.00  0.00    +0.000 A 
ATOM     25  C   UNL     1      46.998   1.060   7.258  0.00  0.00    +0.000 A 
ATOM     26  C   UNL     1      46.174   1.463   8.316  0.00  0.00    +0.000 A 
ENDBRANCH  17  21
ENDBRANCH  14  15
ENDBRANCH   1  14
TORSDOF 5
ENDMDL
MODEL 3
REMARK VINA RESULT:    -8.354      3.019      6.549
REMARK INTER + INTRA:         -11.623
REMARK INTER:                 -11.021
REMARK INTRA:                  -0.602
REMARK UNBOUND:                -0.827
REMARK  Name = 
REMARK  5 active torsions:
REMARK  status: ('A' for Active; 'I' for Inactive)
REMARK    1  A    between atoms: C_2  and  C_4
REMARK    2  A    between atoms: C_8  and  N_9
REMARK    3  A    between atoms: N_9  and  C_10
REMARK    4  A    between atoms: C_10  and  C_11
REMARK    5  A    between atoms: C_13  and  C_14
REMARK                            x       y       z     vdW  Elec       q    Type
REMARK                         _______ _______ _______ _____ _____    ______ ____
ROOT
ATOM      1  N   UNL     1      43.992   2.297  10.795  0.00  0.00    +0.000 N 
ATOM      2  H   UNL     1      43.415   1.466  10.723  0.00  0.00    +0.000 HD
ENDROOT
BRANCH   1   7
ATOM      3  C   UNL     1      46.168   2.042   8.013  0.00  0.00    +0.000 A 
ATOM      4  N   UNL     1      46.130   3.232   7.388  0.00  0.00    +0.000 NA
ATOM      5  C   UNL     1      45.299   4.130   7.924  0.00  0.00    +0.000 A 
ATOM      6  C   UNL     1      44.540   3.883   9.046  0.00  0.00    +0.000 A 
ATOM      7  C   UNL     1      44.646   2.633   9.630  0.00  0.00    +0.000 A 
ATOM      8  N   UNL     1      45.455   1.692   9.116  0.00  0.00    +0.000 NA
BRANCH   3  10
ATOM      9  N   UNL     1      46.765  -0.308   7.688  0.00  0.00    +0.000 N 
ATOM     10  C   UNL     1      47.108   1.001   7.444  0.00  0.00    +0.000 C 
ATOM     11  O   UNL     1      48.119   1.265   6.801  0.00  0.00    +0.000 OA
ATOM     12  H   UNL     1      47.361  -1.044   7.327  0.00  0.00    +0.000 HD
ATOM     13  H   UNL     1      45.934  -0.529   8.217  0.00  0.00    +0.000 HD
ENDBRANCH   3  10
ENDBRANCH   1   7
BRANCH   1  14
ATOM     14  C   UNL     1      43.666   3.267  11.827  0.00  0.00    +0.000 C 
BRANCH  14  15
ATOM     15  C   UNL     1      44.897   3.958  12.376  0.00  0.00    +0.000 A 
ATOM     16  C   UNL     1      45.092   5.327  12.170  0.00  0.00    +0.000 A 
ATOM     17  C   UNL     1      46.215   5.973  12.713  0.00  0.00    +0.000 A 
ATOM     18  C   UNL     1      47.103   5.178  13.448  0.00  0.00    +0.000 A 
ATOM     19  C   UNL     1      46.844   3.825  13.604  0.00  0.00    +0.000 A 
ATOM     20  N   UNL     1      45.770   3.201  13.082  0.00  0.00    +0.000 NA
BRANCH  17  21
ATOM     21  C   UNL     1      46.454   7.424  12.515  0.00  0.00    +0.000 A 
ATOM     22  C   UNL     1      47.755   7.942  12.353  0.00  0.00    +0.000 A 
ATOM     23  C   UNL     1      47.980   9.305  12.131  0.00  0.00    +0.000 A 
ATOM     24  C   UNL     1      46.909  10.190  12.082  0.00  0.00    +0.000 A 
ATOM     25  C   UNL     1      45.615   9.713  12.256  0.00  0.00    +0.000 A 
ATOM     26  C   UNL     1      45.392   8.346  12.464  0.00  0.00    +0.000 A 
ENDBRANCH  17  21
ENDBRANCH  14  15
ENDBRANCH   1  14
TORSDOF 5
ENDMDL
MODEL 4
REMARK VINA RESULT:    -8.084      1.666      2.244
REMARK INTER + INTRA:         -11.274
REMARK INTER:                 -10.520
REMARK INTRA:                  -0.754
REMARK UNBOUND:                -0.827
REMARK  Name = 
REMARK  5 active torsions:
REMARK  status: ('A' for Active; 'I' for Inactive)
REMARK    1  A    between atoms: C_2  and  C_4
REMARK    2  A    between atoms: C_8  and  N_9
REMARK    3  A    between atoms: N_9  and  C_10
REMARK    4  A    between atoms: C_10  and  C_11
REMARK    5  A    between atoms: C_13  and  C_14
REMARK                            x       y       z     vdW  Elec       q    Type
REMARK                         _______ _______ _______ _____ _____    ______ ____
ROOT
ATOM      1  N   UNL     1      44.159   6.740  12.506  0.00  0.00    +0.000 N 
ATOM      2  H   UNL     1      44.058   6.155  13.328  0.00  0.00    +0.000 HD
ENDROOT
BRANCH   1   7
ATOM      3  C   UNL     1      47.563   7.638  12.898  0.00  0.00    +0.000 A 
ATOM      4  N   UNL     1      47.638   8.960  12.665  0.00  0.00    +0.000 NA
ATOM      5  C   UNL     1      46.486   9.544  12.325  0.00  0.00    +0.000 A 
ATOM      6  C   UNL     1      45.292   8.865  12.233  0.00  0.00    +0.000 A 
ATOM      7  C   UNL     1      45.304   7.507  12.497  0.00  0.00    +0.000 A 
ATOM      8  N   UNL     1      46.442   6.873  12.823  0.00  0.00    +0.000 NA
BRANCH   3  10
ATOM      9  N   UNL     1      49.837   6.926  12.347  0.00  0.00    +0.000 N 
ATOM     10  C   UNL     1      48.845   6.940  13.298  0.00  0.00    +0.000 C 
ATOM     11  O   UNL     1      49.028   6.409  14.389  0.00  0.00    +0.000 OA
ATOM     12  H   UNL     1      50.717   6.472  12.565  0.00  0.00    +0.000 HD
ATOM     13  H   UNL     1      49.691   7.360  11.447  0.00  0.00    +0.000 HD
ENDBRANCH   3  10
ENDBRANCH   1   7
BRANCH   1  14
ATOM     14  C   UNL     1      43.466   6.339  11.294  0.00  0.00    +0.000 C 
BRANCH  14  15
ATOM     15  C   UNL     1      43.712   4.886  10.944  0.00  0.00    +0.000 A 
ATOM     16  C   UNL     1      44.531   4.546   9.863  0.00  0.00    +0.000 A 
ATOM     17  C   UNL     1      44.789   3.198   9.565  0.00  0.00    +0.000 A 
ATOM     18  C   UNL     1      44.184   2.244  10.394  0.00  0.00    +0.000 A 
ATOM     19  C   UNL     1      43.379   2.659  11.443  0.00  0.00    +0.000 A 
ATOM     20  N   UNL     1      43.127   3.951  11.731  0.00  0.00    +0.000 NA
BRANCH  17  21
ATOM     21  C   UNL     1      45.653   2.800   8.426  0.00  0.00    +0.000 A 
ATOM     22  C   UNL     1      46.170   1.494   8.313  0.00  0.00    +0.000 A 
ATOM     23  C   UNL     1      46.955   1.107   7.222  0.00  0.00    +0.000 A 
ATOM     24  C   UNL     1      47.259   2.023   6.221  0.00  0.00    +0.000 A 
ATOM     25  C   UNL     1      46.778   3.325   6.313  0.00  0.00    +0.000 A 
ATOM     26  C   UNL     1      45.981   3.705   7.399  0.00  0.00    +0.000 A 
ENDBRANCH  17  21
ENDBRANCH  14  15
ENDBRANCH   1  14
TORSDOF 5
ENDMDL
MODEL 5
REMARK VINA RESULT:    -7.923      1.412      1.886
REMARK INTER + INTRA:         -11.066
REMARK INTER:                 -10.420
REMARK INTRA:                  -0.646
REMARK UNBOUND:                -0.827
REMARK  Name = 
REMARK  5 active torsions:
REMARK  status: ('A' for Active; 'I' for Inactive)
REMARK    1  A    between atoms: C_2  and  C_4
REMARK    2  A    between atoms: C_8  and  N_9
REMARK    3  A    between atoms: N_9  and  C_10
REMARK    4  A    between atoms: C_10  and  C_11
REMARK    5  A    between atoms: C_13  and  C_14
REMARK                            x       y       z     vdW  Elec       q    Type
REMARK                         _______ _______ _______ _____ _____    ______ ____
ROOT
ATOM      1  N   UNL     1      46.820   5.860  12.698  0.00  0.00    +0.000 N 
ATOM      2  H   UNL     1      47.342   6.338  11.972  0.00  0.00    +0.000 HD
ENDROOT
BRANCH   1   7
ATOM      3  C   UNL     1      47.856   4.567  15.828  0.00  0.00    +0.000 A 
ATOM      4  N   UNL     1      48.642   5.504  16.387  0.00  0.00    +0.000 NA
ATOM      5  C   UNL     1      48.847   6.593  15.641  0.00  0.00    +0.000 A 
ATOM      6  C   UNL     1      48.290   6.773  14.395  0.00  0.00    +0.000 A 
ATOM      7  C   UNL     1      47.488   5.760  13.899  0.00  0.00    +0.000 A 
ATOM      8  N   UNL     1      47.268   4.639  14.605  0.00  0.00    +0.000 NA
BRANCH   3  10
ATOM      9  N   UNL     1      48.575   2.367  16.619  0.00  0.00    +0.000 N 
ATOM     10  C   UNL     1      47.587   3.322  16.647  0.00  0.00    +0.000 C 
ATOM     11  O   UNL     1      46.569   3.139  17.306  0.00  0.00    +0.000 OA
ATOM     12  H   UNL     1      48.445   1.514  17.151  0.00  0.00    +0.000 HD
ATOM     13  H   UNL     1      49.414   2.513  16.076  0.00  0.00    +0.000 HD
ENDBRANCH   3  10
ENDBRANCH   1   7
BRANCH   1  14
ATOM     14  C   UNL     1      45.371   5.836  12.594  0.00  0.00    +0.000 C 
BRANCH  14  15
ATOM     15  C   UNL     1      44.874   4.670  11.764  0.00  0.00    +0.000 A 
ATOM     16  C   UNL     1      45.521   4.320  10.576  0.00  0.00    +0.000 A 
ATOM     17  C   UNL     1      45.083   3.215   9.827  0.00  0.00    +0.000 A 
ATOM     18  C   UNL     1      43.982   2.511  10.333  0.00  0.00    +0.000 A 
ATOM     19  C   UNL     1      43.389   2.924  11.517  0.00  0.00    +0.000 A 
ATOM     20  N   UNL     1      43.805   3.985  12.235  0.00  0.00    +0.000 NA
BRANCH  17  21
ATOM     21  C   UNL     1      45.745   2.814   8.562  0.00  0.00    +0.000 A 
ATOM     22  C   UNL     1      45.986   3.741   7.529  0.00  0.00    +0.000 A 
ATOM     23  C   UNL     1      46.642   3.372   6.349  0.00  0.00    +0.000 A 
ATOM     24  C   UNL     1      47.060   2.059   6.165  0.00  0.00    +0.000 A 
ATOM     25  C   UNL     1      46.820   1.116   7.158  0.00  0.00    +0.000 A 
ATOM     26  C   UNL     1      46.176   1.491   8.343  0.00  0.00    +0.000 A 
ENDBRANCH  17  21
ENDBRANCH  14  15
ENDBRANCH   1  14
TORSDOF 5
ENDMDL
MODEL 6
REMARK VINA RESULT:    -7.867      1.357      1.376
REMARK INTER + INTRA:         -10.993
REMARK INTER:                 -10.208
REMARK INTRA:                  -0.785
REMARK UNBOUND:                -0.827
REMARK  Name = 
REMARK  5 active torsions:
REMARK  status: ('A' for Active; 'I' for Inactive)
REMARK    1  A    between atoms: C_2  and  C_4
REMARK    2  A    between atoms: C_8  and  N_9
REMARK    3  A    between atoms: N_9  and  C_10
REMARK    4  A    between atoms: C_10  and  C_11
REMARK    5  A    between atoms: C_13  and  C_14
REMARK                            x       y       z     vdW  Elec       q    Type
REMARK                         _______ _______ _______ _____ _____    ______ ____
ROOT
ATOM      1  N   UNL     1      45.159   6.700  12.734  0.00  0.00    +0.000 N 
ATOM      2  H   UNL     1      44.644   6.374  13.543  0.00  0.00    +0.000 HD
ENDROOT
BRANCH   1   7
ATOM      3  C   UNL     1      48.316   6.457  14.321  0.00  0.00    +0.000 A 
ATOM      4  N   UNL     1      49.233   6.820  13.406  0.00  0.00    +0.000 NA
ATOM      5  C   UNL     1      48.744   7.118  12.199  0.00  0.00    +0.000 A 
ATOM      6  C   UNL     1      47.402   7.081  11.896  0.00  0.00    +0.000 A 
ATOM      7  C   UNL     1      46.527   6.703  12.900  0.00  0.00    +0.000 A 
ATOM      8  N   UNL     1      46.974   6.377  14.124  0.00  0.00    +0.000 NA
BRANCH   3  10
ATOM      9  N   UNL     1      47.863   5.851  16.647  0.00  0.00    +0.000 N 
ATOM     10  C   UNL     1      48.828   6.124  15.706  0.00  0.00    +0.000 C 
ATOM     11  O   UNL     1      50.016   6.089  16.011  0.00  0.00    +0.000 OA
ATOM     12  H   UNL     1      48.153   5.622  17.591  0.00  0.00    +0.000 HD
ATOM     13  H   UNL     1      46.885   5.881  16.401  0.00  0.00    +0.000 HD
ENDBRANCH   3  10
ENDBRANCH   1   7
BRANCH   1  14
ATOM     14  C   UNL     1      44.521   6.602  11.432  0.00  0.00    +0.000 C 
BRANCH  14  15
ATOM     15  C   UNL     1      44.383   5.166  10.967  0.00  0.00    +0.000 A 
ATOM     16  C   UNL     1      45.116   4.704   9.871  0.00  0.00    +0.000 A 
ATOM     17  C   UNL     1      45.016   3.362   9.465  0.00  0.00    +0.000 A 
ATOM     18  C   UNL     1      44.152   2.545  10.207  0.00  0.00    +0.000 A 
ATOM     19  C   UNL     1      43.454   3.079  11.279  0.00  0.00    +0.000 A 
ATOM     20  N   UNL     1      43.546   4.365  11.669  0.00  0.00    +0.000 NA
BRANCH  17  21
ATOM     21  C   UNL     1      45.778   2.835   8.307  0.00  0.00    +0.000 A 
ATOM     22  C   UNL     1      46.101   3.650   7.204  0.00  0.00    +0.000 A 
ATOM     23  C   UNL     1      46.851   3.165   6.126  0.00  0.00    +0.000 A 
ATOM     24  C   UNL     1      47.283   1.844   6.117  0.00  0.00    +0.000 A 
ATOM     25  C   UNL     1      46.965   1.009   7.183  0.00  0.00    +0.000 A 
ATOM     26  C   UNL     1      46.227   1.502   8.265  0.00  0.00    +0.000 A 
ENDBRANCH  17  21
ENDBRANCH  14  15
ENDBRANCH   1  14
TORSDOF 5
ENDMDL
MODEL 7
REMARK VINA RESULT:    -7.802      3.447      6.755
REMARK INTER + INTRA:         -10.910
REMARK INTER:                 -10.167
REMARK INTRA:                  -0.743
REMARK UNBOUND:                -0.827
REMARK  Name = 
REMARK  5 active torsions:
REMARK  status: ('A' for Active; 'I' for Inactive)
REMARK    1  A    between atoms: C_2  and  C_4
REMARK    2  A    between atoms: C_8  and  N_9
REMARK    3  A    between atoms: N_9  and  C_10
REMARK    4  A    between atoms: C_10  and  C_11
REMARK    5  A    between atoms: C_13  and  C_14
REMARK                            x       y       z     vdW  Elec       q    Type
REMARK                         _______ _______ _______ _____ _____    ______ ____
ROOT
ATOM      1  N   UNL     1      44.189   4.761   9.141  0.00  0.00    +0.000 N 
ATOM      2  H   UNL     1      44.359   5.574   8.558  0.00  0.00    +0.000 HD
ENDROOT
BRANCH   1   7
ATOM      3  C   UNL     1      46.375   2.673   7.296  0.00  0.00    +0.000 A 
ATOM      4  N   UNL     1      46.227   1.432   7.792  0.00  0.00    +0.000 NA
ATOM      5  C   UNL     1      45.377   1.327   8.817  0.00  0.00    +0.000 A 
ATOM      6  C   UNL     1      44.678   2.395   9.332  0.00  0.00    +0.000 A 
ATOM      7  C   UNL     1      44.886   3.636   8.756  0.00  0.00    +0.000 A 
ATOM      8  N   UNL     1      45.744   3.793   7.736  0.00  0.00    +0.000 NA
BRANCH   3  10
ATOM      9  N   UNL     1      48.649   2.608   6.396  0.00  0.00    +0.000 N 
ATOM     10  C   UNL     1      47.321   2.833   6.124  0.00  0.00    +0.000 C 
ATOM     11  O   UNL     1      46.965   3.141   4.991  0.00  0.00    +0.000 OA
ATOM     12  H   UNL     1      49.323   2.701   5.645  0.00  0.00    +0.000 HD
ATOM     13  H   UNL     1      48.945   2.356   7.327  0.00  0.00    +0.000 HD
ENDBRANCH   3  10
ENDBRANCH   1   7
BRANCH   1  14
ATOM     14  C   UNL     1      43.729   4.980  10.501  0.00  0.00    +0.000 C 
BRANCH  14  15
ATOM     15  C   UNL     1      44.875   5.225  11.462  0.00  0.00    +0.000 A 
ATOM     16  C   UNL     1      45.747   6.299  11.265  0.00  0.00    +0.000 A 
ATOM     17  C   UNL     1      46.785   6.547  12.179  0.00  0.00    +0.000 A 
ATOM     18  C   UNL     1      46.889   5.668  13.265  0.00  0.00    +0.000 A 
ATOM     19  C   UNL     1      45.989   4.621  13.389  0.00  0.00    +0.000 A 
ATOM     20  N   UNL     1      44.994   4.378  12.514  0.00  0.00    +0.000 NA
BRANCH  17  21
ATOM     21  C   UNL     1      47.730   7.677  12.003  0.00  0.00    +0.000 A 
ATOM     22  C   UNL     1      49.100   7.461  11.755  0.00  0.00    +0.000 A 
ATOM     23  C   UNL     1      49.987   8.526  11.553  0.00  0.00    +0.000 A 
ATOM     24  C   UNL     1      49.527   9.836  11.612  0.00  0.00    +0.000 A 
ATOM     25  C   UNL     1      48.184  10.082  11.872  0.00  0.00    +0.000 A 
ATOM     26  C   UNL     1      47.297   9.015  12.060  0.00  0.00    +0.000 A 
ENDBRANCH  17  21
ENDBRANCH  14  15
ENDBRANCH   1  14
TORSDOF 5
ENDMDL
MODEL 8
REMARK VINA RESULT:    -7.408      2.998      6.450
REMARK INTER + INTRA:         -10.401
REMARK INTER:                  -9.882
REMARK INTRA:                  -0.519
REMARK UNBOUND:                -0.827
REMARK  Name = 
REMARK  5 active torsions:
REMARK  status: ('A' for Active; 'I' for Inactive)
REMARK    1  A    between atoms: C_2  and  C_4
REMARK    2  A    between atoms: C_8  and  N_9
REMARK    3  A    between atoms: N_9  and  C_10
REMARK    4  A    between atoms: C_10  and  C_11
REMARK    5  A    between atoms: C_13  and  C_14
REMARK                            x       y       z     vdW  Elec       q    Type
REMARK                         _______ _______ _______ _____ _____    ______ ____
ROOT
ATOM      1  N   UNL     1      44.167   2.521  10.796  0.00  0.00    +0.000 N 
ATOM      2  H   UNL     1      43.167   2.397  10.686  0.00  0.00    +0.000 HD
ENDROOT
BRANCH   1   7
ATOM      3  C   UNL     1      46.268   2.136   7.971  0.00  0.00    +0.000 A 
ATOM      4  N   UNL     1      46.324   3.337   7.369  0.00  0.00    +0.000 NA
ATOM      5  C   UNL     1      45.582   4.292   7.937  0.00  0.00    +0.000 A 
ATOM      6  C   UNL     1      44.823   4.089   9.067  0.00  0.00    +0.000 A 
ATOM      7  C   UNL     1      44.830   2.822   9.626  0.00  0.00    +0.000 A 
ATOM      8  N   UNL     1      45.545   1.826   9.079  0.00  0.00    +0.000 NA
BRANCH   3  10
ATOM      9  N   UNL     1      46.750  -0.249   7.724  0.00  0.00    +0.000 N 
ATOM     10  C   UNL     1      47.106   1.029   7.366  0.00  0.00    +0.000 C 
ATOM     11  O   UNL     1      48.047   1.218   6.603  0.00  0.00    +0.000 OA
ATOM     12  H   UNL     1      47.279  -1.027   7.345  0.00  0.00    +0.000 HD
ATOM     13  H   UNL     1      45.977  -0.409   8.352  0.00  0.00    +0.000 HD
ENDBRANCH   3  10
ENDBRANCH   1   7
BRANCH   1  14
ATOM     14  C   UNL     1      44.669   2.893  12.107  0.00  0.00    +0.000 C 
BRANCH  14  15
ATOM     15  C   UNL     1      44.867   4.389  12.244  0.00  0.00    +0.000 A 
ATOM     16  C   UNL     1      46.150   4.921  12.403  0.00  0.00    +0.000 A 
ATOM     17  C   UNL     1      46.335   6.311  12.490  0.00  0.00    +0.000 A 
ATOM     18  C   UNL     1      45.183   7.105  12.417  0.00  0.00    +0.000 A 
ATOM     19  C   UNL     1      43.943   6.502  12.265  0.00  0.00    +0.000 A 
ATOM     20  N   UNL     1      43.761   5.169  12.183  0.00  0.00    +0.000 NA
BRANCH  17  21
ATOM     21  C   UNL     1      47.681   6.913  12.659  0.00  0.00    +0.000 A 
ATOM     22  C   UNL     1      48.330   6.930  13.909  0.00  0.00    +0.000 A 
ATOM     23  C   UNL     1      49.614   7.465  14.063  0.00  0.00    +0.000 A 
ATOM     24  C   UNL     1      50.277   8.013  12.970  0.00  0.00    +0.000 A 
ATOM     25  C   UNL     1      49.655   8.027  11.726  0.00  0.00    +0.000 A 
ATOM     26  C   UNL     1      48.376   7.478  11.573  0.00  0.00    +0.000 A 
ENDBRANCH  17  21
ENDBRANCH  14  15
ENDBRANCH   1  14
TORSDOF 5
ENDMDL
MODEL 9
REMARK VINA RESULT:    -7.375      2.996      7.037
REMARK INTER + INTRA:         -10.357
REMARK INTER:                  -9.822
REMARK INTRA:                  -0.536
REMARK UNBOUND:                -0.827
REMARK  Name = 
REMARK  5 active torsions:
REMARK  status: ('A' for Active; 'I' for Inactive)
REMARK    1  A    between atoms: C_2  and  C_4
REMARK    2  A    between atoms: C_8  and  N_9
REMARK    3  A    between atoms: N_9  and  C_10
REMARK    4  A    between atoms: C_10  and  C_11
REMARK    5  A    between atoms: C_13  and  C_14
REMARK                            x       y       z     vdW  Elec       q    Type
REMARK                         _______ _______ _______ _____ _____    ______ ____
ROOT
ATOM      1  N   UNL     1      44.334   2.544  10.910  0.00  0.00    +0.000 N 
ATOM      2  H   UNL     1      44.036   1.596  11.111  0.00  0.00    +0.000 HD
ENDROOT
BRANCH   1   7
ATOM      3  C   UNL     1      46.157   1.991   7.924  0.00  0.00    +0.000 A 
ATOM      4  N   UNL     1      45.927   3.055   7.134  0.00  0.00    +0.000 NA
ATOM      5  C   UNL     1      45.088   3.965   7.636  0.00  0.00    +0.000 A 
ATOM      6  C   UNL     1      44.504   3.853   8.877  0.00  0.00    +0.000 A 
ATOM      7  C   UNL     1      44.802   2.729   9.627  0.00  0.00    +0.000 A 
ATOM      8  N   UNL     1      45.625   1.778   9.157  0.00  0.00    +0.000 NA
BRANCH   3  10
ATOM      9  N   UNL     1      46.788  -0.361   7.693  0.00  0.00    +0.000 N 
ATOM     10  C   UNL     1      47.113   0.942   7.398  0.00  0.00    +0.000 C 
ATOM     11  O   UNL     1      48.122   1.195   6.748  0.00  0.00    +0.000 OA
ATOM     12  H   UNL     1      47.395  -1.102   7.362  0.00  0.00    +0.000 HD
ATOM     13  H   UNL     1      45.960  -0.573   8.229  0.00  0.00    +0.000 HD
ENDBRANCH   3  10
ENDBRANCH   1   7
BRANCH   1  14
ATOM     14  C   UNL     1      43.773   3.620  11.710  0.00  0.00    +0.000 C 
BRANCH  14  15
ATOM     15  C   UNL     1      44.843   4.527  12.283  0.00  0.00    +0.000 A 
ATOM     16  C   UNL     1      45.576   4.135  13.407  0.00  0.00    +0.000 A 
ATOM     17  C   UNL     1      46.593   4.960  13.914  0.00  0.00    +0.000 A 
ATOM     18  C   UNL     1      46.814   6.170  13.242  0.00  0.00    +0.000 A 
ATOM     19  C   UNL     1      46.040   6.492  12.138  0.00  0.00    +0.000 A 
ATOM     20  N   UNL     1      45.062   5.705  11.650  0.00  0.00    +0.000 NA
BRANCH  17  21
ATOM     21  C   UNL     1      47.392   4.577  15.104  0.00  0.00    +0.000 A 
ATOM     22  C   UNL     1      47.525   3.232  15.501  0.00  0.00    +0.000 A 
ATOM     23  C   UNL     1      48.306   2.865  16.603  0.00  0.00    +0.000 A 
ATOM     24  C   UNL     1      48.963   3.839  17.347  0.00  0.00    +0.000 A 
ATOM     25  C   UNL     1      48.837   5.177  16.991  0.00  0.00    +0.000 A 
ATOM     26  C   UNL     1      48.066   5.539  15.880  0.00  0.00    +0.000 A 
ENDBRANCH  17  21
ENDBRANCH  14  15
ENDBRANCH   1  14
TORSDOF 5
ENDMDL
