MODEL 1
REMARK VINA RESULT:    -9.859      0.000      0.000
REMARK INTER + INTRA:         -14.460
REMARK INTER:                 -13.318
REMARK INTRA:                  -1.143
REMARK UNBOUND:                -1.143
REMARK  Name = 
REMARK  6 active torsions:
REMARK  status: ('A' for Active; 'I' for Inactive)
REMARK    1  A    between atoms: C_2  and  C_4
REMARK    2  A    between atoms: C_7  and  O_8
REMARK    3  A    between atoms: O_8  and  C_9
REMARK    4  A    between atoms: C_9  and  C_10
REMARK    5  A    between atoms: C_10  and  C_13
REMARK    6  A    between atoms: C_17  and  C_18
REMARK                            x       y       z     vdW  Elec       q    Type
REMARK                         _______ _______ _______ _____ _____    ______ ____
ROOT
ATOM      1  C   UNL     1      43.419   5.444  12.149  0.00  0.00    +0.000 C 
ATOM      2  F   UNL     1      42.880   6.540  11.536  0.00  0.00    +0.000 F 
ATOM      3  F   UNL     1      42.661   5.241  13.267  0.00  0.00    +0.000 F 
ENDROOT
BRANCH   1   4
ATOM      4  C   UNL     1      44.881   5.667  12.501  0.00  0.00    +0.000 A 
ATOM      5  C   UNL     1      45.631   6.629  11.814  0.00  0.00    +0.000 A 
ATOM      6  C   UNL     1      46.964   6.853  12.148  0.00  0.00    +0.000 A 
ATOM      7  C   UNL     1      47.555   6.126  13.183  0.00  0.00    +0.000 A 
ATOM      8  C   UNL     1      46.836   5.156  13.907  0.00  0.00    +0.000 A 
ATOM      9  C   UNL     1      45.494   4.937  13.539  0.00  0.00    +0.000 A 
BRANCH   8  10
ATOM     10  C   UNL     1      47.471   4.438  15.031  0.00  0.00    +0.000 A 
ATOM     11  C   UNL     1      47.888   5.049  16.209  0.00  0.00    +0.000 A 
ATOM     12  C   UNL     1      48.521   4.285  17.185  0.00  0.00    +0.000 A 
ATOM     13  C   UNL     1      48.706   2.938  16.944  0.00  0.00    +0.000 A 
ATOM     14  N   UNL     1      48.287   2.351  15.811  0.00  0.00    +0.000 NA
ATOM     15  N   UNL     1      47.666   3.108  14.851  0.00  0.00    +0.000 NA
ENDBRANCH   8  10
ENDBRANCH   1   4
BRANCH   1  16
ATOM     16  C   UNL     1      43.267   4.230  11.216  0.00  0.00    +0.000 C 
BRANCH  16  17
ATOM     17  O   UNL     1      43.499   4.610   9.849  0.00  0.00    +0.000 OA
BRANCH  17  21
ATOM     18  C   UNL     1      46.362   2.296   7.882  0.00  0.00    +0.000 A 
ATOM     19  C   UNL     1      46.346   3.676   7.652  0.00  0.00    +0.000 A 
ATOM     20  C   UNL     1      45.405   4.487   8.296  0.00  0.00    +0.000 A 
ATOM     21  C   UNL     1      44.471   3.928   9.171  0.00  0.00    +0.000 A 
ATOM     22  C   UNL     1      44.486   2.548   9.392  0.00  0.00    +0.000 A 
ATOM     23  C   UNL     1      45.421   1.731   8.748  0.00  0.00    +0.000 A 
BRANCH  18  25
ATOM     24  N   UNL     1      48.396   2.000   6.575  0.00  0.00    +0.000 N 
ATOM     25  C   UNL     1      47.337   1.403   7.206  0.00  0.00    +0.000 C 
ATOM     26  O   UNL     1      47.225   0.185   7.233  0.00  0.00    +0.000 OA
ATOM     27  H   UNL     1      49.106   1.376   6.211  0.00  0.00    +0.000 HD
ATOM     28  H   UNL     1      48.661   2.956   6.751  0.00  0.00    +0.000 HD
ENDBRANCH  18  25
ENDBRANCH  17  21
ENDBRANCH  16  17
ENDBRANCH   1  16
TORSDOF 6
ENDMDL
MODEL 2
REMARK VINA RESULT:    -9.853      0.300      0.989
REMARK INTER + INTRA:         -14.452
REMARK INTER:                 -13.338
REMARK INTRA:                  -1.114
REMARK UNBOUND:                -1.143
REMARK  Name = 
REMARK  6 active torsions:
REMARK  status: ('A' for Active; 'I' for Inactive)
REMARK    1  A    between atoms: C_2  and  C_4
REMARK    2  A    between atoms: C_7  and  O_8
REMARK    3  A    between atoms: O_8  and  C_9
REMARK    4  A    between atoms: C_9  and  C_10
REMARK    5  A    between atoms: C_10  and  C_13
REMARK    6  A    between atoms: C_17  and  C_18
REMARK                            x       y       z     vdW  Elec       q    Type
REMARK                         _______ _______ _______ _____ _____    ______ ____
ROOT
ATOM      1  C   UNL     1      43.455   5.353  12.186  0.00  0.00    +0.000 C 
ATOM      2  F   UNL     1      42.977   6.444  11.518  0.00  0.00    +0.000 F 
ATOM      3  F   UNL     1      42.664   5.227  13.292  0.00  0.00    +0.000 F 
ENDROOT
BRANCH   1   4
ATOM      4  C   UNL     1      44.918   5.529  12.564  0.00  0.00    +0.000 A 
ATOM      5  C   UNL     1      45.718   6.446  11.872  0.00  0.00    +0.000 A 
ATOM      6  C   UNL     1      47.051   6.627  12.230  0.00  0.00    +0.000 A 
ATOM      7  C   UNL     1      47.592   5.904  13.294  0.00  0.00    +0.000 A 
ATOM      8  C   UNL     1      46.822   4.979  14.024  0.00  0.00    +0.000 A 
ATOM      9  C   UNL     1      45.480   4.801  13.632  0.00  0.00    +0.000 A 
BRANCH   8  10
ATOM     10  C   UNL     1      47.405   4.265  15.178  0.00  0.00    +0.000 A 
ATOM     11  C   UNL     1      47.529   4.812  16.451  0.00  0.00    +0.000 A 
ATOM     12  C   UNL     1      48.140   4.067  17.455  0.00  0.00    +0.000 A 
ATOM     13  C   UNL     1      48.599   2.803  17.146  0.00  0.00    +0.000 A 
ATOM     14  N   UNL     1      48.462   2.274  15.918  0.00  0.00    +0.000 NA
ATOM     15  N   UNL     1      47.861   3.012  14.931  0.00  0.00    +0.000 NA
ENDBRANCH   8  10
ENDBRANCH   1   4
BRANCH   1  16
ATOM     16  C   UNL     1      43.274   4.109  11.298  0.00  0.00    +0.000 C 
BRANCH  16  17
ATOM     17  O   UNL     1      43.487   4.439   9.915  0.00  0.00    +0.000 OA
BRANCH  17  21
ATOM     18  C   UNL     1      46.392   2.391   7.728  0.00  0.00    +0.000 A 
ATOM     19  C   UNL     1      45.565   1.660   8.587  0.00  0.00    +0.000 A 
ATOM     20  C   UNL     1      44.575   2.310   9.335  0.00  0.00    +0.000 A 
ATOM     21  C   UNL     1      44.406   3.691   9.233  0.00  0.00    +0.000 A 
ATOM     22  C   UNL     1      45.239   4.419   8.378  0.00  0.00    +0.000 A 
ATOM     23  C   UNL     1      46.233   3.777   7.632  0.00  0.00    +0.000 A 
BRANCH  18  25
ATOM     24  N   UNL     1      48.491   2.531   6.500  0.00  0.00    +0.000 N 
ATOM     25  C   UNL     1      47.461   1.738   6.930  0.00  0.00    +0.000 C 
ATOM     26  O   UNL     1      47.447   0.538   6.692  0.00  0.00    +0.000 OA
ATOM     27  H   UNL     1      49.262   2.053   6.051  0.00  0.00    +0.000 HD
ATOM     28  H   UNL     1      48.670   3.443   6.890  0.00  0.00    +0.000 HD
ENDBRANCH  18  25
ENDBRANCH  17  21
ENDBRANCH  16  17
ENDBRANCH   1  16
TORSDOF 6
ENDMDL
MODEL 3
REMARK VINA RESULT:    -8.894      2.601      4.022
REMARK INTER + INTRA:         -13.157
REMARK INTER:                 -12.034
REMARK INTRA:                  -1.123
REMARK UNBOUND:                -1.143
REMARK  Name = 
REMARK  6 active torsions:
REMARK  status: ('A' for Active; 'I' for Inactive)
REMARK    1  A    between atoms: C_2  and  C_4
REMARK    2  A    between atoms: C_7  and  O_8
REMARK    3  A    between atoms: O_8  and  C_9
REMARK    4  A    between atoms: C_9  and  C_10
REMARK    5  A    between atoms: C_10  and  C_13
REMARK    6  A    between atoms: C_17  and  C_18
REMARK                            x       y       z     vdW  Elec       q    Type
REMARK                         _______ _______ _______ _____ _____    ______ ____
ROOT
ATOM      1  C   UNL     1      43.649   4.591  12.570  0.00  0.00    +0.000 C 
ATOM      2  F   UNL     1      42.634   5.107  13.324  0.00  0.00    +0.000 F 
ATOM      3  F   UNL     1      43.709   3.266  12.894  0.00  0.00    +0.000 F 
ENDROOT
BRANCH   1   4
ATOM      4  C   UNL     1      44.967   5.295  12.854  0.00  0.00    +0.000 A 
ATOM      5  C   UNL     1      46.026   4.594  13.443  0.00  0.00    +0.000 A 
ATOM      6  C   UNL     1      47.242   5.228  13.684  0.00  0.00    +0.000 A 
ATOM      7  C   UNL     1      47.415   6.565  13.324  0.00  0.00    +0.000 A 
ATOM      8  C   UNL     1      46.380   7.307  12.721  0.00  0.00    +0.000 A 
ATOM      9  C   UNL     1      45.154   6.647  12.503  0.00  0.00    +0.000 A 
BRANCH   8  10
ATOM     10  C   UNL     1      46.606   8.705  12.304  0.00  0.00    +0.000 A 
ATOM     11  C   UNL     1      45.594   9.647  12.158  0.00  0.00    +0.000 A 
ATOM     12  C   UNL     1      45.914  10.926  11.711  0.00  0.00    +0.000 A 
ATOM     13  C   UNL     1      47.235  11.211  11.433  0.00  0.00    +0.000 A 
ATOM     14  N   UNL     1      48.211  10.300  11.591  0.00  0.00    +0.000 NA
ATOM     15  N   UNL     1      47.891   9.041  12.029  0.00  0.00    +0.000 NA
ENDBRANCH   8  10
ENDBRANCH   1   4
BRANCH   1  16
ATOM     16  C   UNL     1      43.277   4.724  11.082  0.00  0.00    +0.000 C 
BRANCH  16  17
ATOM     17  O   UNL     1      43.352   3.448  10.425  0.00  0.00    +0.000 OA
BRANCH  17  21
ATOM     18  C   UNL     1      46.368   2.670   7.646  0.00  0.00    +0.000 A 
ATOM     19  C   UNL     1      45.952   3.994   7.827  0.00  0.00    +0.000 A 
ATOM     20  C   UNL     1      44.947   4.297   8.753  0.00  0.00    +0.000 A 
ATOM     21  C   UNL     1      44.348   3.282   9.502  0.00  0.00    +0.000 A 
ATOM     22  C   UNL     1      44.760   1.960   9.312  0.00  0.00    +0.000 A 
ATOM     23  C   UNL     1      45.761   1.650   8.385  0.00  0.00    +0.000 A 
BRANCH  18  25
ATOM     24  N   UNL     1      47.482   3.053   5.514  0.00  0.00    +0.000 N 
ATOM     25  C   UNL     1      47.421   2.311   6.663  0.00  0.00    +0.000 C 
ATOM     26  O   UNL     1      48.225   1.413   6.876  0.00  0.00    +0.000 OA
ATOM     27  H   UNL     1      48.268   2.866   4.905  0.00  0.00    +0.000 HD
ATOM     28  H   UNL     1      47.022   3.946   5.423  0.00  0.00    +0.000 HD
ENDBRANCH  18  25
ENDBRANCH  17  21
ENDBRANCH  16  17
ENDBRANCH   1  16
TORSDOF 6
ENDMDL
MODEL 4
REMARK VINA RESULT:    -8.458      3.218      4.831
REMARK INTER + INTRA:         -12.567
REMARK INTER:                 -11.776
REMARK INTRA:                  -0.791
REMARK UNBOUND:                -1.143
REMARK  Name = 
REMARK  6 active torsions:
REMARK  status: ('A' for Active; 'I' for Inactive)
REMARK    1  A    between atoms: C_2  and  C_4
REMARK    2  A    between atoms: C_7  and  O_8
REMARK    3  A    between atoms: O_8  and  C_9
REMARK    4  A    between atoms: C_9  and  C_10
REMARK    5  A    between atoms: C_10  and  C_13
REMARK    6  A    between atoms: C_17  and  C_18
REMARK                            x       y       z     vdW  Elec       q    Type
REMARK                         _______ _______ _______ _____ _____    ______ ____
ROOT
ATOM      1  C   UNL     1      44.328   4.095  12.447  0.00  0.00    +0.000 C 
ATOM      2  F   UNL     1      43.581   4.110  13.591  0.00  0.00    +0.000 F 
ATOM      3  F   UNL     1      45.193   3.048  12.589  0.00  0.00    +0.000 F 
ENDROOT
BRANCH   1   4
ATOM      4  C   UNL     1      45.070   5.408  12.250  0.00  0.00    +0.000 A 
ATOM      5  C   UNL     1      46.469   5.432  12.252  0.00  0.00    +0.000 A 
ATOM      6  C   UNL     1      47.152   6.628  12.049  0.00  0.00    +0.000 A 
ATOM      7  C   UNL     1      46.441   7.809  11.827  0.00  0.00    +0.000 A 
ATOM      8  C   UNL     1      45.033   7.829  11.807  0.00  0.00    +0.000 A 
ATOM      9  C   UNL     1      44.365   6.609  12.032  0.00  0.00    +0.000 A 
BRANCH   8  10
ATOM     10  C   UNL     1      44.307   9.082  11.519  0.00  0.00    +0.000 A 
ATOM     11  C   UNL     1      43.197   9.165  10.685  0.00  0.00    +0.000 A 
ATOM     12  C   UNL     1      42.618  10.407  10.444  0.00  0.00    +0.000 A 
ATOM     13  C   UNL     1      43.170  11.516  11.051  0.00  0.00    +0.000 A 
ATOM     14  N   UNL     1      44.233  11.428  11.869  0.00  0.00    +0.000 NA
ATOM     15  N   UNL     1      44.802  10.202  12.102  0.00  0.00    +0.000 NA
ENDBRANCH   8  10
ENDBRANCH   1   4
BRANCH   1  16
ATOM     16  C   UNL     1      43.398   3.816  11.252  0.00  0.00    +0.000 C 
BRANCH  16  17
ATOM     17  O   UNL     1      43.837   4.540  10.091  0.00  0.00    +0.000 OA
BRANCH  17  21
ATOM     18  C   UNL     1      46.466   2.383   7.671  0.00  0.00    +0.000 A 
ATOM     19  C   UNL     1      46.447   3.777   7.559  0.00  0.00    +0.000 A 
ATOM     20  C   UNL     1      45.582   4.537   8.356  0.00  0.00    +0.000 A 
ATOM     21  C   UNL     1      44.730   3.912   9.267  0.00  0.00    +0.000 A 
ATOM     22  C   UNL     1      44.747   2.518   9.371  0.00  0.00    +0.000 A 
ATOM     23  C   UNL     1      45.605   1.752   8.574  0.00  0.00    +0.000 A 
BRANCH  18  25
ATOM     24  N   UNL     1      48.569   2.081   6.479  0.00  0.00    +0.000 N 
ATOM     25  C   UNL     1      47.359   1.545   6.832  0.00  0.00    +0.000 C 
ATOM     26  O   UNL     1      47.051   0.411   6.493  0.00  0.00    +0.000 OA
ATOM     27  H   UNL     1      49.208   1.460   5.999  0.00  0.00    +0.000 HD
ATOM     28  H   UNL     1      48.961   2.884   6.947  0.00  0.00    +0.000 HD
ENDBRANCH  18  25
ENDBRANCH  17  21
ENDBRANCH  16  17
ENDBRANCH   1  16
TORSDOF 6
ENDMDL
MODEL 5
REMARK VINA RESULT:    -8.054      3.091      3.563
REMARK INTER + INTRA:         -12.021
REMARK INTER:                 -11.274
REMARK INTRA:                  -0.747
REMARK UNBOUND:                -1.143
REMARK  Name = 
REMARK  6 active torsions:
REMARK  status: ('A' for Active; 'I' for Inactive)
REMARK    1  A    between atoms: C_2  and  C_4
REMARK    2  A    between atoms: C_7  and  O_8
REMARK    3  A    between atoms: O_8  and  C_9
REMARK    4  A    between atoms: C_9  and  C_10
REMARK    5  A    between atoms: C_10  and  C_13
REMARK    6  A    between atoms: C_17  and  C_18
REMARK                            x       y       z     vdW  Elec       q    Type
REMARK                         _______ _______ _______ _____ _____    ______ ____
ROOT
ATOM      1  C   UNL     1      44.160   3.722  12.478  0.00  0.00    +0.000 C 
ATOM      2  F   UNL     1      43.369   3.632  13.588  0.00  0.00    +0.000 F 
ATOM      3  F   UNL     1      45.326   3.092  12.807  0.00  0.00    +0.000 F 
ENDROOT
BRANCH   1   4
ATOM      4  C   UNL     1      44.401   5.170  12.082  0.00  0.00    +0.000 A 
ATOM      5  C   UNL     1      43.334   5.969  11.653  0.00  0.00    +0.000 A 
ATOM      6  C   UNL     1      43.547   7.302  11.312  0.00  0.00    +0.000 A 
ATOM      7  C   UNL     1      44.825   7.853  11.413  0.00  0.00    +0.000 A 
ATOM      8  C   UNL     1      45.925   7.089  11.849  0.00  0.00    +0.000 A 
ATOM      9  C   UNL     1      45.688   5.739  12.172  0.00  0.00    +0.000 A 
BRANCH   8  10
ATOM     10  C   UNL     1      47.257   7.711  11.995  0.00  0.00    +0.000 A 
ATOM     11  C   UNL     1      48.442   6.993  12.113  0.00  0.00    +0.000 A 
ATOM     12  C   UNL     1      49.639   7.680  12.296  0.00  0.00    +0.000 A 
ATOM     13  C   UNL     1      49.600   9.059  12.348  0.00  0.00    +0.000 A 
ATOM     14  N   UNL     1      48.454   9.747  12.217  0.00  0.00    +0.000 NA
ATOM     15  N   UNL     1      47.277   9.066  12.040  0.00  0.00    +0.000 NA
ENDBRANCH   8  10
ENDBRANCH   1   4
BRANCH   1  16
ATOM     16  C   UNL     1      43.486   2.953  11.327  0.00  0.00    +0.000 C 
BRANCH  16  17
ATOM     17  O   UNL     1      43.535   3.718  10.111  0.00  0.00    +0.000 OA
BRANCH  17  21
ATOM     18  C   UNL     1      46.626   2.621   7.529  0.00  0.00    +0.000 A 
ATOM     19  C   UNL     1      46.271   3.972   7.610  0.00  0.00    +0.000 A 
ATOM     20  C   UNL     1      45.242   4.381   8.467  0.00  0.00    +0.000 A 
ATOM     21  C   UNL     1      44.560   3.446   9.247  0.00  0.00    +0.000 A 
ATOM     22  C   UNL     1      44.912   2.096   9.157  0.00  0.00    +0.000 A 
ATOM     23  C   UNL     1      45.935   1.680   8.299  0.00  0.00    +0.000 A 
BRANCH  18  25
ATOM     24  N   UNL     1      47.989   2.933   5.535  0.00  0.00    +0.000 N 
ATOM     25  C   UNL     1      47.701   2.150   6.620  0.00  0.00    +0.000 C 
ATOM     26  O   UNL     1      48.331   1.125   6.841  0.00  0.00    +0.000 OA
ATOM     27  H   UNL     1      48.793   2.655   4.986  0.00  0.00    +0.000 HD
ATOM     28  H   UNL     1      47.685   3.892   5.464  0.00  0.00    +0.000 HD
ENDBRANCH  18  25
ENDBRANCH  17  21
ENDBRANCH  16  17
ENDBRANCH   1  16
TORSDOF 6
ENDMDL
MODEL 6
REMARK VINA RESULT:    -7.812      2.248      3.174
REMARK INTER + INTRA:         -11.695
REMARK INTER:                 -10.705
REMARK INTRA:                  -0.989
REMARK UNBOUND:                -1.143
REMARK  Name = 
REMARK  6 active torsions:
REMARK  status: ('A' for Active; 'I' for Inactive)
REMARK    1  A    between atoms: C_2  and  C_4
REMARK    2  A    between atoms: C_7  and  O_8
REMARK    3  A    between atoms: O_8  and  C_9
REMARK    4  A    between atoms: C_9  and  C_10
REMARK    5  A    between atoms: C_10  and  C_13
REMARK    6  A    between atoms: C_17  and  C_18
REMARK                            x       y       z     vdW  Elec       q    Type
REMARK                         _______ _______ _______ _____ _____    ______ ____
ROOT
ATOM      1  C   UNL     1      43.538   6.094  11.622  0.00  0.00    +0.000 C 
ATOM      2  F   UNL     1      43.417   7.445  11.466  0.00  0.00    +0.000 F 
ATOM      3  F   UNL     1      42.431   5.705  12.320  0.00  0.00    +0.000 F 
ENDROOT
BRANCH   1   4
ATOM      4  C   UNL     1      44.818   5.732  12.360  0.00  0.00    +0.000 A 
ATOM      5  C   UNL     1      44.888   4.553  13.111  0.00  0.00    +0.000 A 
ATOM      6  C   UNL     1      46.065   4.207  13.769  0.00  0.00    +0.000 A 
ATOM      7  C   UNL     1      47.188   5.029  13.669  0.00  0.00    +0.000 A 
ATOM      8  C   UNL     1      47.166   6.219  12.916  0.00  0.00    +0.000 A 
ATOM      9  C   UNL     1      45.958   6.556  12.273  0.00  0.00    +0.000 A 
BRANCH   8  10
ATOM     10  C   UNL     1      48.384   7.044  12.785  0.00  0.00    +0.000 A 
ATOM     11  C   UNL     1      49.245   7.335  13.838  0.00  0.00    +0.000 A 
ATOM     12  C   UNL     1      50.339   8.165  13.613  0.00  0.00    +0.000 A 
ATOM     13  C   UNL     1      50.530   8.666  12.341  0.00  0.00    +0.000 A 
ATOM     14  N   UNL     1      49.703   8.370  11.325  0.00  0.00    +0.000 NA
ATOM     15  N   UNL     1      48.625   7.553  11.551  0.00  0.00    +0.000 NA
ENDBRANCH   8  10
ENDBRANCH   1   4
BRANCH   1  16
ATOM     16  C   UNL     1      43.511   5.430  10.233  0.00  0.00    +0.000 C 
BRANCH  16  17
ATOM     17  O   UNL     1      43.691   4.009  10.348  0.00  0.00    +0.000 OA
BRANCH  17  21
ATOM     18  C   UNL     1      46.501   2.482   7.665  0.00  0.00    +0.000 A 
ATOM     19  C   UNL     1      45.825   1.589   8.504  0.00  0.00    +0.000 A 
ATOM     20  C   UNL     1      44.871   2.061   9.414  0.00  0.00    +0.000 A 
ATOM     21  C   UNL     1      44.589   3.426   9.496  0.00  0.00    +0.000 A 
ATOM     22  C   UNL     1      45.272   4.315   8.662  0.00  0.00    +0.000 A 
ATOM     23  C   UNL     1      46.230   3.850   7.754  0.00  0.00    +0.000 A 
BRANCH  18  25
ATOM     24  N   UNL     1      48.592   2.850   6.472  0.00  0.00    +0.000 N 
ATOM     25  C   UNL     1      47.528   2.018   6.698  0.00  0.00    +0.000 C 
ATOM     26  O   UNL     1      47.452   0.928   6.148  0.00  0.00    +0.000 OA
ATOM     27  H   UNL     1      49.334   2.475   5.894  0.00  0.00    +0.000 HD
ATOM     28  H   UNL     1      48.820   3.615   7.087  0.00  0.00    +0.000 HD
ENDBRANCH  18  25
ENDBRANCH  17  21
ENDBRANCH  16  17
ENDBRANCH   1  16
TORSDOF 6
ENDMDL
MODEL 7
REMARK VINA RESULT:    -7.713      2.590      7.349
REMARK INTER + INTRA:         -11.561
REMARK INTER:                 -10.715
REMARK INTRA:                  -0.845
REMARK UNBOUND:                -1.143
REMARK  Name = 
REMARK  6 active torsions:
REMARK  status: ('A' for Active; 'I' for Inactive)
REMARK    1  A    between atoms: C_2  and  C_4
REMARK    2  A    between atoms: C_7  and  O_8
REMARK    3  A    between atoms: O_8  and  C_9
REMARK    4  A    between atoms: C_9  and  C_10
REMARK    5  A    between atoms: C_10  and  C_13
REMARK    6  A    between atoms: C_17  and  C_18
REMARK                            x       y       z     vdW  Elec       q    Type
REMARK                         _______ _______ _______ _____ _____    ______ ____
ROOT
ATOM      1  C   UNL     1      44.593   6.456  11.930  0.00  0.00    +0.000 C 
ATOM      2  F   UNL     1      44.218   6.481  13.243  0.00  0.00    +0.000 F 
ATOM      3  F   UNL     1      43.774   7.348  11.299  0.00  0.00    +0.000 F 
ENDROOT
BRANCH   1   4
ATOM      4  C   UNL     1      44.457   5.060  11.340  0.00  0.00    +0.000 A 
ATOM      5  C   UNL     1      43.583   4.134  11.919  0.00  0.00    +0.000 A 
ATOM      6  C   UNL     1      43.438   2.863  11.368  0.00  0.00    +0.000 A 
ATOM      7  C   UNL     1      44.156   2.513  10.224  0.00  0.00    +0.000 A 
ATOM      8  C   UNL     1      45.040   3.416   9.602  0.00  0.00    +0.000 A 
ATOM      9  C   UNL     1      45.181   4.690  10.188  0.00  0.00    +0.000 A 
BRANCH   8  10
ATOM     10  C   UNL     1      45.748   3.038   8.363  0.00  0.00    +0.000 A 
ATOM     11  C   UNL     1      46.257   1.768   8.114  0.00  0.00    +0.000 A 
ATOM     12  C   UNL     1      46.952   1.533   6.931  0.00  0.00    +0.000 A 
ATOM     13  C   UNL     1      47.104   2.578   6.043  0.00  0.00    +0.000 A 
ATOM     14  N   UNL     1      46.596   3.799   6.282  0.00  0.00    +0.000 NA
ATOM     15  N   UNL     1      45.914   4.027   7.450  0.00  0.00    +0.000 NA
ENDBRANCH   8  10
ENDBRANCH   1   4
BRANCH   1  16
ATOM     16  C   UNL     1      46.047   6.949  11.820  0.00  0.00    +0.000 C 
BRANCH  16  17
ATOM     17  O   UNL     1      46.966   5.886  12.125  0.00  0.00    +0.000 OA
BRANCH  17  21
ATOM     18  C   UNL     1      47.993   5.226  16.116  0.00  0.00    +0.000 A 
ATOM     19  C   UNL     1      48.487   6.370  15.481  0.00  0.00    +0.000 A 
ATOM     20  C   UNL     1      48.161   6.630  14.144  0.00  0.00    +0.000 A 
ATOM     21  C   UNL     1      47.345   5.749  13.432  0.00  0.00    +0.000 A 
ATOM     22  C   UNL     1      46.860   4.603  14.069  0.00  0.00    +0.000 A 
ATOM     23  C   UNL     1      47.185   4.335  15.403  0.00  0.00    +0.000 A 
BRANCH  18  25
ATOM     24  N   UNL     1      47.332   4.382  18.304  0.00  0.00    +0.000 N 
ATOM     25  C   UNL     1      48.329   4.911  17.528  0.00  0.00    +0.000 C 
ATOM     26  O   UNL     1      49.453   5.082  17.979  0.00  0.00    +0.000 OA
ATOM     27  H   UNL     1      47.604   4.075  19.229  0.00  0.00    +0.000 HD
ATOM     28  H   UNL     1      46.492   3.988  17.910  0.00  0.00    +0.000 HD
ENDBRANCH  18  25
ENDBRANCH  17  21
ENDBRANCH  16  17
ENDBRANCH   1  16
TORSDOF 6
ENDMDL
MODEL 8
REMARK VINA RESULT:    -7.492      1.562      2.234
REMARK INTER + INTRA:         -11.263
REMARK INTER:                 -10.826
REMARK INTRA:                  -0.437
REMARK UNBOUND:                -1.143
REMARK  Name = 
REMARK  6 active torsions:
REMARK  status: ('A' for Active; 'I' for Inactive)
REMARK    1  A    between atoms: C_2  and  C_4
REMARK    2  A    between atoms: C_7  and  O_8
REMARK    3  A    between atoms: O_8  and  C_9
REMARK    4  A    between atoms: C_9  and  C_10
REMARK    5  A    between atoms: C_10  and  C_13
REMARK    6  A    between atoms: C_17  and  C_18
REMARK                            x       y       z     vdW  Elec       q    Type
REMARK                         _______ _______ _______ _____ _____    ______ ____
ROOT
ATOM      1  C   UNL     1      46.192   6.362  11.751  0.00  0.00    +0.000 C 
ATOM      2  F   UNL     1      46.947   6.291  10.615  0.00  0.00    +0.000 F 
ATOM      3  F   UNL     1      45.338   7.410  11.558  0.00  0.00    +0.000 F 
ENDROOT
BRANCH   1   4
ATOM      4  C   UNL     1      47.058   6.569  12.983  0.00  0.00    +0.000 A 
ATOM      5  C   UNL     1      47.770   7.762  13.151  0.00  0.00    +0.000 A 
ATOM      6  C   UNL     1      48.546   7.965  14.289  0.00  0.00    +0.000 A 
ATOM      7  C   UNL     1      48.605   6.982  15.278  0.00  0.00    +0.000 A 
ATOM      8  C   UNL     1      47.898   5.770  15.156  0.00  0.00    +0.000 A 
ATOM      9  C   UNL     1      47.133   5.582  13.987  0.00  0.00    +0.000 A 
BRANCH   8  10
ATOM     10  C   UNL     1      47.937   4.768  16.240  0.00  0.00    +0.000 A 
ATOM     11  C   UNL     1      49.031   4.566  17.074  0.00  0.00    +0.000 A 
ATOM     12  C   UNL     1      48.978   3.559  18.034  0.00  0.00    +0.000 A 
ATOM     13  C   UNL     1      47.830   2.799  18.122  0.00  0.00    +0.000 A 
ATOM     14  N   UNL     1      46.770   3.009  17.324  0.00  0.00    +0.000 NA
ATOM     15  N   UNL     1      46.827   4.001  16.378  0.00  0.00    +0.000 NA
ENDBRANCH   8  10
ENDBRANCH   1   4
BRANCH   1  16
ATOM     16  C   UNL     1      45.370   5.066  11.880  0.00  0.00    +0.000 C 
BRANCH  16  17
ATOM     17  O   UNL     1      44.573   4.853  10.703  0.00  0.00    +0.000 OA
BRANCH  17  21
ATOM     18  C   UNL     1      46.316   2.691   7.587  0.00  0.00    +0.000 A 
ATOM     19  C   UNL     1      45.706   1.985   8.630  0.00  0.00    +0.000 A 
ATOM     20  C   UNL     1      45.106   2.674   9.691  0.00  0.00    +0.000 A 
ATOM     21  C   UNL     1      45.114   4.069   9.721  0.00  0.00    +0.000 A 
ATOM     22  C   UNL     1      45.731   4.770   8.681  0.00  0.00    +0.000 A 
ATOM     23  C   UNL     1      46.337   4.088   7.620  0.00  0.00    +0.000 A 
BRANCH  18  25
ATOM     24  N   UNL     1      47.296   2.749   5.358  0.00  0.00    +0.000 N 
ATOM     25  C   UNL     1      46.974   1.993   6.454  0.00  0.00    +0.000 C 
ATOM     26  O   UNL     1      47.251   0.803   6.500  0.00  0.00    +0.000 OA
ATOM     27  H   UNL     1      47.838   2.284   4.640  0.00  0.00    +0.000 HD
ATOM     28  H   UNL     1      47.326   3.757   5.386  0.00  0.00    +0.000 HD
ENDBRANCH  18  25
ENDBRANCH  17  21
ENDBRANCH  16  17
ENDBRANCH   1  16
TORSDOF 6
ENDMDL
MODEL 9
REMARK VINA RESULT:    -7.417      2.689      7.467
REMARK INTER + INTRA:         -11.161
REMARK INTER:                 -10.189
REMARK INTRA:                  -0.972
REMARK UNBOUND:                -1.143
REMARK  Name = 
REMARK  6 active torsions:
REMARK  status: ('A' for Active; 'I' for Inactive)
REMARK    1  A    between atoms: C_2  and  C_4
REMARK    2  A    between atoms: C_7  and  O_8
REMARK    3  A    between atoms: O_8  and  C_9
REMARK    4  A    between atoms: C_9  and  C_10
REMARK    5  A    between atoms: C_10  and  C_13
REMARK    6  A    between atoms: C_17  and  C_18
REMARK                            x       y       z     vdW  Elec       q    Type
REMARK                         _______ _______ _______ _____ _____    ______ ____
ROOT
ATOM      1  C   UNL     1      44.826   6.720  11.426  0.00  0.00    +0.000 C 
ATOM      2  F   UNL     1      43.650   7.413  11.472  0.00  0.00    +0.000 F 
ATOM      3  F   UNL     1      45.602   7.376  10.513  0.00  0.00    +0.000 F 
ENDROOT
BRANCH   1   4
ATOM      4  C   UNL     1      44.603   5.269  11.029  0.00  0.00    +0.000 A 
ATOM      5  C   UNL     1      43.643   4.498  11.694  0.00  0.00    +0.000 A 
ATOM      6  C   UNL     1      43.418   3.176  11.317  0.00  0.00    +0.000 A 
ATOM      7  C   UNL     1      44.142   2.619  10.261  0.00  0.00    +0.000 A 
ATOM      8  C   UNL     1      45.110   3.361   9.558  0.00  0.00    +0.000 A 
ATOM      9  C   UNL     1      45.330   4.691   9.969  0.00  0.00    +0.000 A 
BRANCH   8  10
ATOM     10  C   UNL     1      45.824   2.764   8.411  0.00  0.00    +0.000 A 
ATOM     11  C   UNL     1      46.163   3.461   7.257  0.00  0.00    +0.000 A 
ATOM     12  C   UNL     1      46.793   2.785   6.215  0.00  0.00    +0.000 A 
ATOM     13  C   UNL     1      47.062   1.441   6.374  0.00  0.00    +0.000 A 
ATOM     14  N   UNL     1      46.746   0.777   7.499  0.00  0.00    +0.000 NA
ATOM     15  N   UNL     1      46.123   1.446   8.522  0.00  0.00    +0.000 NA
ENDBRANCH   8  10
ENDBRANCH   1   4
BRANCH   1  16
ATOM     16  C   UNL     1      45.503   6.803  12.807  0.00  0.00    +0.000 C 
BRANCH  16  17
ATOM     17  O   UNL     1      46.749   6.086  12.803  0.00  0.00    +0.000 OA
BRANCH  17  21
ATOM     18  C   UNL     1      48.226   4.820  16.496  0.00  0.00    +0.000 A 
ATOM     19  C   UNL     1      47.304   4.005  15.831  0.00  0.00    +0.000 A 
ATOM     20  C   UNL     1      46.788   4.391  14.588  0.00  0.00    +0.000 A 
ATOM     21  C   UNL     1      47.186   5.595  14.003  0.00  0.00    +0.000 A 
ATOM     22  C   UNL     1      48.101   6.410  14.674  0.00  0.00    +0.000 A 
ATOM     23  C   UNL     1      48.616   6.032  15.919  0.00  0.00    +0.000 A 
BRANCH  18  25
ATOM     24  N   UNL     1      47.951   3.783  18.683  0.00  0.00    +0.000 N 
ATOM     25  C   UNL     1      48.782   4.449  17.822  0.00  0.00    +0.000 C 
ATOM     26  O   UNL     1      49.941   4.693  18.128  0.00  0.00    +0.000 OA
ATOM     27  H   UNL     1      48.375   3.443  19.537  0.00  0.00    +0.000 HD
ATOM     28  H   UNL     1      47.099   3.340  18.377  0.00  0.00    +0.000 HD
ENDBRANCH  18  25
ENDBRANCH  17  21
ENDBRANCH  16  17
ENDBRANCH   1  16
TORSDOF 6
ENDMDL
