MODEL 1
REMARK VINA RESULT:    -9.414      0.000      0.000
REMARK INTER + INTRA:         -14.156
REMARK INTER:                 -13.266
REMARK INTRA:                  -0.890
REMARK UNBOUND:                -0.890
REMARK  Name = 
REMARK  8 active torsions:
REMARK  status: ('A' for Active; 'I' for Inactive)
REMARK    1  A    between atoms: C_1  and  C_2
REMARK    2  A    between atoms: C_6  and  C_7
REMARK    3  A    between atoms: N_9  and  C_10
REMARK    4  A    between atoms: C_10  and  C_11
REMARK    5  A    between atoms: C_14  and  C_15
REMARK    6  A    between atoms: C_15  and  O_16
REMARK    7  A    between atoms: O_16  and  C_17
REMARK    8  A    between atoms: C_17  and  C_19
REMARK                            x       y       z     vdW  Elec       q    Type
REMARK                         _______ _______ _______ _____ _____    ______ ____
ROOT
ATOM      1  C   UNL     1      44.791   4.849  11.638  0.00  0.00    +0.000 A 
ATOM      2  C   UNL     1      45.270   3.705  12.290  0.00  0.00    +0.000 A 
ATOM      3  C   UNL     1      46.107   3.817  13.404  0.00  0.00    +0.000 A 
ATOM      4  C   UNL     1      46.473   5.077  13.895  0.00  0.00    +0.000 A 
ATOM      5  C   UNL     1      45.973   6.221  13.260  0.00  0.00    +0.000 A 
ATOM      6  C   UNL     1      45.139   6.108  12.145  0.00  0.00    +0.000 A 
ENDROOT
BRANCH   1   7
ATOM      7  C   UNL     1      43.909   4.723  10.422  0.00  0.00    +0.000 C 
BRANCH   7  10
ATOM      8  C   UNL     1      45.561   4.307   8.655  0.00  0.00    +0.000 C 
ATOM      9  O   UNL     1      46.039   5.433   8.756  0.00  0.00    +0.000 OA
ATOM     10  N   UNL     1      44.503   3.865   9.423  0.00  0.00    +0.000 N 
ATOM     11  H   UNL     1      44.283   2.880   9.457  0.00  0.00    +0.000 HD
BRANCH   8  17
ATOM     12  C   UNL     1      46.797  -0.425   7.568  0.00  0.00    +0.000 C 
ATOM     13  C   UNL     1      46.750   1.024   7.176  0.00  0.00    +0.000 A 
ATOM     14  C   UNL     1      47.241   1.444   5.935  0.00  0.00    +0.000 A 
ATOM     15  C   UNL     1      47.198   2.792   5.576  0.00  0.00    +0.000 A 
ATOM     16  C   UNL     1      46.653   3.735   6.450  0.00  0.00    +0.000 A 
ATOM     17  C   UNL     1      46.143   3.329   7.689  0.00  0.00    +0.000 A 
ATOM     18  C   UNL     1      46.207   1.976   8.053  0.00  0.00    +0.000 A 
ENDBRANCH   8  17
ENDBRANCH   7  10
ENDBRANCH   1   7
BRANCH   4  19
ATOM     19  C   UNL     1      47.415   5.200  15.068  0.00  0.00    +0.000 C 
BRANCH  19  20
ATOM     20  O   UNL     1      47.811   3.903  15.529  0.00  0.00    +0.000 OA
BRANCH  20  21
ATOM     21  C   UNL     1      47.642   3.683  16.859  0.00  0.00    +0.000 C 
ATOM     22  O   UNL     1      46.638   3.200  17.367  0.00  0.00    +0.000 OA
BRANCH  21  23
ATOM     23  C   UNL     1      48.827   4.023  17.641  0.00  0.00    +0.000 A 
ATOM     24  C   UNL     1      48.854   5.159  18.434  0.00  0.00    +0.000 A 
ATOM     25  S   UNL     1      50.332   5.361  19.263  0.00  0.00    +0.000 S 
ATOM     26  C   UNL     1      50.988   3.959  18.553  0.00  0.00    +0.000 A 
ATOM     27  N   UNL     1      52.265   3.574  18.817  0.00  0.00    +0.000 NA
ATOM     28  C   UNL     1      52.634   2.501  18.201  0.00  0.00    +0.000 A 
ATOM     29  N   UNL     1      51.840   1.775  17.350  0.00  0.00    +0.000 N 
ATOM     30  C   UNL     1      50.555   2.145  17.018  0.00  0.00    +0.000 A 
ATOM     31  O   UNL     1      49.916   1.521  16.177  0.00  0.00    +0.000 OA
ATOM     32  C   UNL     1      50.087   3.332  17.711  0.00  0.00    +0.000 A 
ATOM     33  H   UNL     1      52.200   0.958  16.878  0.00  0.00    +0.000 HD
ENDBRANCH  21  23
ENDBRANCH  20  21
ENDBRANCH  19  20
ENDBRANCH   4  19
TORSDOF 7
ENDMDL
MODEL 2
REMARK VINA RESULT:    -8.983      1.332      1.508
REMARK INTER + INTRA:         -13.549
REMARK INTER:                 -12.621
REMARK INTRA:                  -0.928
REMARK UNBOUND:                -0.890
REMARK  Name = 
REMARK  8 active torsions:
REMARK  status: ('A' for Active; 'I' for Inactive)
REMARK    1  A    between atoms: C_1  and  C_2
REMARK    2  A    between atoms: C_6  and  C_7
REMARK    3  A    between atoms: N_9  and  C_10
REMARK    4  A    between atoms: C_10  and  C_11
REMARK    5  A    between atoms: C_14  and  C_15
REMARK    6  A    between atoms: C_15  and  O_16
REMARK    7  A    between atoms: O_16  and  C_17
REMARK    8  A    between atoms: C_17  and  C_19
REMARK                            x       y       z     vdW  Elec       q    Type
REMARK                         _______ _______ _______ _____ _____    ______ ____
ROOT
ATOM      1  C   UNL     1      45.888   6.252  11.928  0.00  0.00    +0.000 A 
ATOM      2  C   UNL     1      46.087   5.147  12.766  0.00  0.00    +0.000 A 
ATOM      3  C   UNL     1      46.901   5.247  13.898  0.00  0.00    +0.000 A 
ATOM      4  C   UNL     1      47.523   6.459  14.221  0.00  0.00    +0.000 A 
ATOM      5  C   UNL     1      47.303   7.573  13.400  0.00  0.00    +0.000 A 
ATOM      6  C   UNL     1      46.492   7.470  12.266  0.00  0.00    +0.000 A 
ENDROOT
BRANCH   1   7
ATOM      7  C   UNL     1      45.030   6.132  10.695  0.00  0.00    +0.000 C 
BRANCH   7  10
ATOM      8  C   UNL     1      45.086   4.085   9.342  0.00  0.00    +0.000 C 
ATOM      9  O   UNL     1      44.059   3.649   9.853  0.00  0.00    +0.000 OA
ATOM     10  N   UNL     1      45.651   5.293   9.696  0.00  0.00    +0.000 N 
ATOM     11  H   UNL     1      46.364   5.705   9.111  0.00  0.00    +0.000 HD
BRANCH   8  17
ATOM     12  C   UNL     1      46.738  -0.311   7.593  0.00  0.00    +0.000 C 
ATOM     13  C   UNL     1      46.580   1.173   7.424  0.00  0.00    +0.000 A 
ATOM     14  C   UNL     1      47.064   1.818   6.281  0.00  0.00    +0.000 A 
ATOM     15  C   UNL     1      46.918   3.198   6.130  0.00  0.00    +0.000 A 
ATOM     16  C   UNL     1      46.275   3.948   7.117  0.00  0.00    +0.000 A 
ATOM     17  C   UNL     1      45.771   3.316   8.260  0.00  0.00    +0.000 A 
ATOM     18  C   UNL     1      45.939   1.932   8.415  0.00  0.00    +0.000 A 
ENDBRANCH   8  17
ENDBRANCH   7  10
ENDBRANCH   1   7
BRANCH   4  19
ATOM     19  C   UNL     1      48.440   6.557  15.416  0.00  0.00    +0.000 C 
BRANCH  19  20
ATOM     20  O   UNL     1      48.970   5.268  15.746  0.00  0.00    +0.000 OA
BRANCH  20  21
ATOM     21  C   UNL     1      48.861   4.912  17.052  0.00  0.00    +0.000 C 
ATOM     22  O   UNL     1      47.809   4.868  17.680  0.00  0.00    +0.000 OA
BRANCH  21  23
ATOM     23  C   UNL     1      50.136   4.510  17.636  0.00  0.00    +0.000 A 
ATOM     24  C   UNL     1      50.921   5.420  18.325  0.00  0.00    +0.000 A 
ATOM     25  S   UNL     1      52.365   4.738  18.926  0.00  0.00    +0.000 S 
ATOM     26  C   UNL     1      51.999   3.220  18.247  0.00  0.00    +0.000 A 
ATOM     27  N   UNL     1      52.861   2.175  18.364  0.00  0.00    +0.000 NA
ATOM     28  C   UNL     1      52.461   1.090  17.790  0.00  0.00    +0.000 A 
ATOM     29  N   UNL     1      51.274   0.953  17.115  0.00  0.00    +0.000 N 
ATOM     30  C   UNL     1      50.387   1.991  16.933  0.00  0.00    +0.000 A 
ATOM     31  O   UNL     1      49.385   1.850  16.240  0.00  0.00    +0.000 OA
ATOM     32  C   UNL     1      50.782   3.225  17.588  0.00  0.00    +0.000 A 
ATOM     33  H   UNL     1      51.034   0.082  16.665  0.00  0.00    +0.000 HD
ENDBRANCH  21  23
ENDBRANCH  20  21
ENDBRANCH  19  20
ENDBRANCH   4  19
TORSDOF 7
ENDMDL
MODEL 3
REMARK VINA RESULT:    -8.594      2.375      3.232
REMARK INTER + INTRA:         -13.000
REMARK INTER:                 -11.797
REMARK INTRA:                  -1.203
REMARK UNBOUND:                -0.890
REMARK  Name = 
REMARK  8 active torsions:
REMARK  status: ('A' for Active; 'I' for Inactive)
REMARK    1  A    between atoms: C_1  and  C_2
REMARK    2  A    between atoms: C_6  and  C_7
REMARK    3  A    between atoms: N_9  and  C_10
REMARK    4  A    between atoms: C_10  and  C_11
REMARK    5  A    between atoms: C_14  and  C_15
REMARK    6  A    between atoms: C_15  and  O_16
REMARK    7  A    between atoms: O_16  and  C_17
REMARK    8  A    between atoms: C_17  and  C_19
REMARK                            x       y       z     vdW  Elec       q    Type
REMARK                         _______ _______ _______ _____ _____    ______ ____
ROOT
ATOM      1  C   UNL     1      45.664   6.840  11.532  0.00  0.00    +0.000 A 
ATOM      2  C   UNL     1      45.190   7.768  12.468  0.00  0.00    +0.000 A 
ATOM      3  C   UNL     1      46.079   8.495  13.266  0.00  0.00    +0.000 A 
ATOM      4  C   UNL     1      47.462   8.315  13.135  0.00  0.00    +0.000 A 
ATOM      5  C   UNL     1      47.938   7.406  12.181  0.00  0.00    +0.000 A 
ATOM      6  C   UNL     1      47.049   6.678  11.386  0.00  0.00    +0.000 A 
ENDROOT
BRANCH   1   7
ATOM      7  C   UNL     1      44.701   6.041  10.692  0.00  0.00    +0.000 C 
BRANCH   7  10
ATOM      8  C   UNL     1      44.987   3.944   9.450  0.00  0.00    +0.000 C 
ATOM      9  O   UNL     1      44.052   3.403  10.032  0.00  0.00    +0.000 OA
ATOM     10  N   UNL     1      45.392   5.237   9.711  0.00  0.00    +0.000 N 
ATOM     11  H   UNL     1      46.016   5.707   9.072  0.00  0.00    +0.000 HD
BRANCH   8  17
ATOM     12  C   UNL     1      46.751  -0.386   7.648  0.00  0.00    +0.000 C 
ATOM     13  C   UNL     1      46.592   1.101   7.518  0.00  0.00    +0.000 A 
ATOM     14  C   UNL     1      47.125   1.784   6.420  0.00  0.00    +0.000 A 
ATOM     15  C   UNL     1      46.977   3.167   6.304  0.00  0.00    +0.000 A 
ATOM     16  C   UNL     1      46.283   3.882   7.282  0.00  0.00    +0.000 A 
ATOM     17  C   UNL     1      45.729   3.213   8.380  0.00  0.00    +0.000 A 
ATOM     18  C   UNL     1      45.898   1.826   8.500  0.00  0.00    +0.000 A 
ENDBRANCH   8  17
ENDBRANCH   7  10
ENDBRANCH   1   7
BRANCH   4  19
ATOM     19  C   UNL     1      48.421   9.063  14.029  0.00  0.00    +0.000 C 
BRANCH  19  20
ATOM     20  O   UNL     1      48.528   8.415  15.301  0.00  0.00    +0.000 OA
BRANCH  20  21
ATOM     21  C   UNL     1      49.529   7.503  15.406  0.00  0.00    +0.000 C 
ATOM     22  O   UNL     1      50.500   7.440  14.662  0.00  0.00    +0.000 OA
BRANCH  21  23
ATOM     23  C   UNL     1      49.370   6.622  16.559  0.00  0.00    +0.000 A 
ATOM     24  C   UNL     1      50.068   6.856  17.733  0.00  0.00    +0.000 A 
ATOM     25  S   UNL     1      49.731   5.708  18.951  0.00  0.00    +0.000 S 
ATOM     26  C   UNL     1      48.676   4.848  17.928  0.00  0.00    +0.000 A 
ATOM     27  N   UNL     1      48.065   3.709  18.353  0.00  0.00    +0.000 NA
ATOM     28  C   UNL     1      47.304   3.155  17.469  0.00  0.00    +0.000 A 
ATOM     29  N   UNL     1      47.094   3.638  16.203  0.00  0.00    +0.000 N 
ATOM     30  C   UNL     1      47.721   4.762  15.711  0.00  0.00    +0.000 A 
ATOM     31  O   UNL     1      47.579   5.102  14.542  0.00  0.00    +0.000 OA
ATOM     32  C   UNL     1      48.565   5.437  16.681  0.00  0.00    +0.000 A 
ATOM     33  H   UNL     1      46.506   3.140  15.551  0.00  0.00    +0.000 HD
ENDBRANCH  21  23
ENDBRANCH  20  21
ENDBRANCH  19  20
ENDBRANCH   4  19
TORSDOF 7
ENDMDL
MODEL 4
REMARK VINA RESULT:    -8.082      1.983      2.788
REMARK INTER + INTRA:         -12.279
REMARK INTER:                 -11.500
REMARK INTRA:                  -0.779
REMARK UNBOUND:                -0.890
REMARK  Name = 
REMARK  8 active torsions:
REMARK  status: ('A' for Active; 'I' for Inactive)
REMARK    1  A    between atoms: C_1  and  C_2
REMARK    2  A    between atoms: C_6  and  C_7
REMARK    3  A    between atoms: N_9  and  C_10
REMARK    4  A    between atoms: C_10  and  C_11
REMARK    5  A    between atoms: C_14  and  C_15
REMARK    6  A    between atoms: C_15  and  O_16
REMARK    7  A    between atoms: O_16  and  C_17
REMARK    8  A    between atoms: C_17  and  C_19
REMARK                            x       y       z     vdW  Elec       q    Type
REMARK                         _______ _______ _______ _____ _____    ______ ____
ROOT
ATOM      1  C   UNL     1      44.933   5.658  11.676  0.00  0.00    +0.000 A 
ATOM      2  C   UNL     1      45.706   4.853  12.523  0.00  0.00    +0.000 A 
ATOM      3  C   UNL     1      46.690   5.415  13.340  0.00  0.00    +0.000 A 
ATOM      4  C   UNL     1      46.915   6.798  13.335  0.00  0.00    +0.000 A 
ATOM      5  C   UNL     1      46.125   7.608  12.508  0.00  0.00    +0.000 A 
ATOM      6  C   UNL     1      45.143   7.044  11.689  0.00  0.00    +0.000 A 
ENDROOT
BRANCH   1   7
ATOM      7  C   UNL     1      43.890   5.043  10.778  0.00  0.00    +0.000 C 
BRANCH   7  10
ATOM      8  C   UNL     1      45.356   4.252   8.976  0.00  0.00    +0.000 C 
ATOM      9  O   UNL     1      45.731   5.388   8.702  0.00  0.00    +0.000 OA
ATOM     10  N   UNL     1      44.444   3.978   9.974  0.00  0.00    +0.000 N 
ATOM     11  H   UNL     1      44.327   3.030  10.302  0.00  0.00    +0.000 HD
BRANCH   8  17
ATOM     12  C   UNL     1      47.869   2.476   5.021  0.00  0.00    +0.000 C 
ATOM     13  C   UNL     1      47.128   2.226   6.304  0.00  0.00    +0.000 A 
ATOM     14  C   UNL     1      46.966   0.925   6.792  0.00  0.00    +0.000 A 
ATOM     15  C   UNL     1      46.274   0.698   7.984  0.00  0.00    +0.000 A 
ATOM     16  C   UNL     1      45.746   1.770   8.705  0.00  0.00    +0.000 A 
ATOM     17  C   UNL     1      45.913   3.079   8.238  0.00  0.00    +0.000 A 
ATOM     18  C   UNL     1      46.592   3.300   7.030  0.00  0.00    +0.000 A 
ENDBRANCH   8  17
ENDBRANCH   7  10
ENDBRANCH   1   7
BRANCH   4  19
ATOM     19  C   UNL     1      48.009   7.401  14.181  0.00  0.00    +0.000 C 
BRANCH  19  20
ATOM     20  O   UNL     1      48.649   6.390  14.966  0.00  0.00    +0.000 OA
BRANCH  20  21
ATOM     21  C   UNL     1      49.694   6.815  15.723  0.00  0.00    +0.000 C 
ATOM     22  O   UNL     1      50.795   7.126  15.284  0.00  0.00    +0.000 OA
BRANCH  21  23
ATOM     23  C   UNL     1      49.354   6.936  17.136  0.00  0.00    +0.000 A 
ATOM     24  C   UNL     1      49.170   8.180  17.720  0.00  0.00    +0.000 A 
ATOM     25  S   UNL     1      48.776   8.089  19.378  0.00  0.00    +0.000 S 
ATOM     26  C   UNL     1      48.881   6.390  19.369  0.00  0.00    +0.000 A 
ATOM     27  N   UNL     1      48.688   5.671  20.508  0.00  0.00    +0.000 NA
ATOM     28  C   UNL     1      48.810   4.395  20.357  0.00  0.00    +0.000 A 
ATOM     29  N   UNL     1      49.102   3.771  19.170  0.00  0.00    +0.000 N 
ATOM     30  C   UNL     1      49.347   4.456  17.999  0.00  0.00    +0.000 A 
ATOM     31  O   UNL     1      49.701   3.863  16.985  0.00  0.00    +0.000 OA
ATOM     32  C   UNL     1      49.191   5.895  18.115  0.00  0.00    +0.000 A 
ATOM     33  H   UNL     1      49.210   2.769  19.126  0.00  0.00    +0.000 HD
ENDBRANCH  21  23
ENDBRANCH  20  21
ENDBRANCH  19  20
ENDBRANCH   4  19
TORSDOF 7
ENDMDL
MODEL 5
REMARK VINA RESULT:    -8.029      2.766      9.386
REMARK INTER + INTRA:         -12.204
REMARK INTER:                 -11.672
REMARK INTRA:                  -0.532
REMARK UNBOUND:                -0.890
REMARK  Name = 
REMARK  8 active torsions:
REMARK  status: ('A' for Active; 'I' for Inactive)
REMARK    1  A    between atoms: C_1  and  C_2
REMARK    2  A    between atoms: C_6  and  C_7
REMARK    3  A    between atoms: N_9  and  C_10
REMARK    4  A    between atoms: C_10  and  C_11
REMARK    5  A    between atoms: C_14  and  C_15
REMARK    6  A    between atoms: C_15  and  O_16
REMARK    7  A    between atoms: O_16  and  C_17
REMARK    8  A    between atoms: C_17  and  C_19
REMARK                            x       y       z     vdW  Elec       q    Type
REMARK                         _______ _______ _______ _____ _____    ______ ____
ROOT
ATOM      1  C   UNL     1      47.740   4.273  16.140  0.00  0.00    +0.000 A 
ATOM      2  C   UNL     1      47.119   3.901  14.940  0.00  0.00    +0.000 A 
ATOM      3  C   UNL     1      47.028   4.802  13.875  0.00  0.00    +0.000 A 
ATOM      4  C   UNL     1      47.564   6.090  13.985  0.00  0.00    +0.000 A 
ATOM      5  C   UNL     1      48.208   6.455  15.175  0.00  0.00    +0.000 A 
ATOM      6  C   UNL     1      48.297   5.555  16.240  0.00  0.00    +0.000 A 
ENDROOT
BRANCH   1   7
ATOM      7  C   UNL     1      47.813   3.306  17.294  0.00  0.00    +0.000 C 
BRANCH   7  10
ATOM      8  C   UNL     1      50.033   2.289  17.049  0.00  0.00    +0.000 C 
ATOM      9  O   UNL     1      49.701   1.664  16.047  0.00  0.00    +0.000 OA
ATOM     10  N   UNL     1      49.174   3.117  17.742  0.00  0.00    +0.000 N 
ATOM     11  H   UNL     1      49.541   3.766  18.422  0.00  0.00    +0.000 HD
BRANCH   8  17
ATOM     12  C   UNL     1      54.099  -0.495  17.957  0.00  0.00    +0.000 C 
ATOM     13  C   UNL     1      53.404   0.836  18.004  0.00  0.00    +0.000 A 
ATOM     14  C   UNL     1      54.055   1.964  18.512  0.00  0.00    +0.000 A 
ATOM     15  C   UNL     1      53.404   3.198  18.556  0.00  0.00    +0.000 A 
ATOM     16  C   UNL     1      52.096   3.319  18.082  0.00  0.00    +0.000 A 
ATOM     17  C   UNL     1      51.435   2.203  17.556  0.00  0.00    +0.000 A 
ATOM     18  C   UNL     1      52.088   0.961  17.533  0.00  0.00    +0.000 A 
ENDBRANCH   8  17
ENDBRANCH   7  10
ENDBRANCH   1   7
BRANCH   4  19
ATOM     19  C   UNL     1      47.424   7.080  12.854  0.00  0.00    +0.000 C 
BRANCH  19  20
ATOM     20  O   UNL     1      46.907   6.434  11.686  0.00  0.00    +0.000 OA
BRANCH  20  21
ATOM     21  C   UNL     1      45.566   6.542  11.507  0.00  0.00    +0.000 C 
ATOM     22  O   UNL     1      44.955   7.600  11.413  0.00  0.00    +0.000 OA
BRANCH  21  23
ATOM     23  C   UNL     1      44.909   5.247  11.367  0.00  0.00    +0.000 A 
ATOM     24  C   UNL     1      44.186   4.698  12.414  0.00  0.00    +0.000 A 
ATOM     25  S   UNL     1      43.501   3.182  12.033  0.00  0.00    +0.000 S 
ATOM     26  C   UNL     1      44.185   3.201  10.474  0.00  0.00    +0.000 A 
ATOM     27  N   UNL     1      44.011   2.155   9.622  0.00  0.00    +0.000 NA
ATOM     28  C   UNL     1      44.595   2.298   8.480  0.00  0.00    +0.000 A 
ATOM     29  N   UNL     1      45.332   3.395   8.110  0.00  0.00    +0.000 N 
ATOM     30  C   UNL     1      45.572   4.460   8.950  0.00  0.00    +0.000 A 
ATOM     31  O   UNL     1      46.318   5.373   8.612  0.00  0.00    +0.000 OA
ATOM     32  C   UNL     1      44.909   4.355  10.237  0.00  0.00    +0.000 A 
ATOM     33  H   UNL     1      45.786   3.432   7.209  0.00  0.00    +0.000 HD
ENDBRANCH  21  23
ENDBRANCH  20  21
ENDBRANCH  19  20
ENDBRANCH   4  19
TORSDOF 7
ENDMDL
MODEL 6
REMARK VINA RESULT:    -7.777      2.556      3.666
REMARK INTER + INTRA:         -11.849
REMARK INTER:                 -10.899
REMARK INTRA:                  -0.950
REMARK UNBOUND:                -0.890
REMARK  Name = 
REMARK  8 active torsions:
REMARK  status: ('A' for Active; 'I' for Inactive)
REMARK    1  A    between atoms: C_1  and  C_2
REMARK    2  A    between atoms: C_6  and  C_7
REMARK    3  A    between atoms: N_9  and  C_10
REMARK    4  A    between atoms: C_10  and  C_11
REMARK    5  A    between atoms: C_14  and  C_15
REMARK    6  A    between atoms: C_15  and  O_16
REMARK    7  A    between atoms: O_16  and  C_17
REMARK    8  A    between atoms: C_17  and  C_19
REMARK                            x       y       z     vdW  Elec       q    Type
REMARK                         _______ _______ _______ _____ _____    ______ ____
ROOT
ATOM      1  C   UNL     1      44.914   5.644  11.778  0.00  0.00    +0.000 A 
ATOM      2  C   UNL     1      45.645   4.855  12.676  0.00  0.00    +0.000 A 
ATOM      3  C   UNL     1      46.631   5.425  13.487  0.00  0.00    +0.000 A 
ATOM      4  C   UNL     1      46.899   6.798  13.423  0.00  0.00    +0.000 A 
ATOM      5  C   UNL     1      46.151   7.593  12.545  0.00  0.00    +0.000 A 
ATOM      6  C   UNL     1      45.167   7.022  11.732  0.00  0.00    +0.000 A 
ENDROOT
BRANCH   1   7
ATOM      7  C   UNL     1      43.869   5.021  10.888  0.00  0.00    +0.000 C 
BRANCH   7  10
ATOM      8  C   UNL     1      45.296   4.268   9.039  0.00  0.00    +0.000 C 
ATOM      9  O   UNL     1      45.626   5.414   8.749  0.00  0.00    +0.000 OA
ATOM     10  N   UNL     1      44.428   3.970  10.069  0.00  0.00    +0.000 N 
ATOM     11  H   UNL     1      44.353   3.021  10.405  0.00  0.00    +0.000 HD
BRANCH   8  17
ATOM     12  C   UNL     1      47.811   2.565   5.054  0.00  0.00    +0.000 C 
ATOM     13  C   UNL     1      47.081   2.292   6.337  0.00  0.00    +0.000 A 
ATOM     14  C   UNL     1      46.937   0.985   6.814  0.00  0.00    +0.000 A 
ATOM     15  C   UNL     1      46.256   0.737   8.006  0.00  0.00    +0.000 A 
ATOM     16  C   UNL     1      45.717   1.795   8.741  0.00  0.00    +0.000 A 
ATOM     17  C   UNL     1      45.865   3.110   8.286  0.00  0.00    +0.000 A 
ATOM     18  C   UNL     1      46.535   3.352   7.078  0.00  0.00    +0.000 A 
ENDBRANCH   8  17
ENDBRANCH   7  10
ENDBRANCH   1   7
BRANCH   4  19
ATOM     19  C   UNL     1      47.996   7.406  14.263  0.00  0.00    +0.000 C 
BRANCH  19  20
ATOM     20  O   UNL     1      49.003   6.430  14.552  0.00  0.00    +0.000 OA
BRANCH  20  21
ATOM     21  C   UNL     1      49.742   6.670  15.665  0.00  0.00    +0.000 C 
ATOM     22  O   UNL     1      50.763   7.347  15.696  0.00  0.00    +0.000 OA
BRANCH  21  23
ATOM     23  C   UNL     1      49.155   6.088  16.868  0.00  0.00    +0.000 A 
ATOM     24  C   UNL     1      49.018   4.715  16.999  0.00  0.00    +0.000 A 
ATOM     25  S   UNL     1      48.312   4.253  18.483  0.00  0.00    +0.000 S 
ATOM     26  C   UNL     1      48.135   5.874  18.970  0.00  0.00    +0.000 A 
ATOM     27  N   UNL     1      47.551   6.187  20.158  0.00  0.00    +0.000 NA
ATOM     28  C   UNL     1      47.472   7.454  20.393  0.00  0.00    +0.000 A 
ATOM     29  N   UNL     1      47.929   8.436  19.550  0.00  0.00    +0.000 N 
ATOM     30  C   UNL     1      48.489   8.173  18.320  0.00  0.00    +0.000 A 
ATOM     31  O   UNL     1      48.794   9.085  17.558  0.00  0.00    +0.000 OA
ATOM     32  C   UNL     1      48.626   6.758  18.026  0.00  0.00    +0.000 A 
ATOM     33  H   UNL     1      47.811   9.412  19.782  0.00  0.00    +0.000 HD
ENDBRANCH  21  23
ENDBRANCH  20  21
ENDBRANCH  19  20
ENDBRANCH   4  19
TORSDOF 7
ENDMDL
MODEL 7
REMARK VINA RESULT:    -7.713      1.916      2.643
REMARK INTER + INTRA:         -11.759
REMARK INTER:                 -10.850
REMARK INTRA:                  -0.909
REMARK UNBOUND:                -0.890
REMARK  Name = 
REMARK  8 active torsions:
REMARK  status: ('A' for Active; 'I' for Inactive)
REMARK    1  A    between atoms: C_1  and  C_2
REMARK    2  A    between atoms: C_6  and  C_7
REMARK    3  A    between atoms: N_9  and  C_10
REMARK    4  A    between atoms: C_10  and  C_11
REMARK    5  A    between atoms: C_14  and  C_15
REMARK    6  A    between atoms: C_15  and  O_16
REMARK    7  A    between atoms: O_16  and  C_17
REMARK    8  A    between atoms: C_17  and  C_19
REMARK                            x       y       z     vdW  Elec       q    Type
REMARK                         _______ _______ _______ _____ _____    ______ ____
ROOT
ATOM      1  C   UNL     1      45.204   5.806  11.809  0.00  0.00    +0.000 A 
ATOM      2  C   UNL     1      45.305   7.202  11.864  0.00  0.00    +0.000 A 
ATOM      3  C   UNL     1      46.301   7.816  12.629  0.00  0.00    +0.000 A 
ATOM      4  C   UNL     1      47.224   7.044  13.347  0.00  0.00    +0.000 A 
ATOM      5  C   UNL     1      47.141   5.648  13.271  0.00  0.00    +0.000 A 
ATOM      6  C   UNL     1      46.142   5.035  12.509  0.00  0.00    +0.000 A 
ENDROOT
BRANCH   1   7
ATOM      7  C   UNL     1      44.113   5.149  11.003  0.00  0.00    +0.000 C 
BRANCH   7  10
ATOM      8  C   UNL     1      45.374   4.335   9.062  0.00  0.00    +0.000 C 
ATOM      9  O   UNL     1      45.625   5.471   8.674  0.00  0.00    +0.000 OA
ATOM     10  N   UNL     1      44.627   4.070  10.192  0.00  0.00    +0.000 N 
ATOM     11  H   UNL     1      44.625   3.141  10.587  0.00  0.00    +0.000 HD
BRANCH   8  17
ATOM     12  C   UNL     1      47.893   2.524   5.127  0.00  0.00    +0.000 C 
ATOM     13  C   UNL     1      47.128   2.283   6.397  0.00  0.00    +0.000 A 
ATOM     14  C   UNL     1      46.923   0.984   6.872  0.00  0.00    +0.000 A 
ATOM     15  C   UNL     1      46.209   0.765   8.051  0.00  0.00    +0.000 A 
ATOM     16  C   UNL     1      45.700   1.846   8.775  0.00  0.00    +0.000 A 
ATOM     17  C   UNL     1      45.909   3.154   8.321  0.00  0.00    +0.000 A 
ATOM     18  C   UNL     1      46.611   3.366   7.126  0.00  0.00    +0.000 A 
ENDBRANCH   8  17
ENDBRANCH   7  10
ENDBRANCH   1   7
BRANCH   4  19
ATOM     19  C   UNL     1      48.270   7.705  14.211  0.00  0.00    +0.000 C 
BRANCH  19  20
ATOM     20  O   UNL     1      49.077   6.718  14.862  0.00  0.00    +0.000 OA
BRANCH  20  21
ATOM     21  C   UNL     1      49.017   6.721  16.219  0.00  0.00    +0.000 C 
ATOM     22  O   UNL     1      48.642   7.668  16.901  0.00  0.00    +0.000 OA
BRANCH  21  23
ATOM     23  C   UNL     1      49.389   5.437  16.803  0.00  0.00    +0.000 A 
ATOM     24  C   UNL     1      48.425   4.490  17.109  0.00  0.00    +0.000 A 
ATOM     25  S   UNL     1      49.079   3.062  17.779  0.00  0.00    +0.000 S 
ATOM     26  C   UNL     1      50.661   3.689  17.715  0.00  0.00    +0.000 A 
ATOM     27  N   UNL     1      51.717   2.969  18.182  0.00  0.00    +0.000 NA
ATOM     28  C   UNL     1      52.854   3.572  18.082  0.00  0.00    +0.000 A 
ATOM     29  N   UNL     1      53.033   4.825  17.553  0.00  0.00    +0.000 N 
ATOM     30  C   UNL     1      51.992   5.610  17.106  0.00  0.00    +0.000 A 
ATOM     31  O   UNL     1      52.187   6.761  16.732  0.00  0.00    +0.000 OA
ATOM     32  C   UNL     1      50.695   4.960  17.171  0.00  0.00    +0.000 A 
ATOM     33  H   UNL     1      53.948   5.250  17.529  0.00  0.00    +0.000 HD
ENDBRANCH  21  23
ENDBRANCH  20  21
ENDBRANCH  19  20
ENDBRANCH   4  19
TORSDOF 7
ENDMDL
MODEL 8
REMARK VINA RESULT:    -7.648      2.330      3.242
REMARK INTER + INTRA:         -11.668
REMARK INTER:                 -10.475
REMARK INTRA:                  -1.193
REMARK UNBOUND:                -0.890
REMARK  Name = 
REMARK  8 active torsions:
REMARK  status: ('A' for Active; 'I' for Inactive)
REMARK    1  A    between atoms: C_1  and  C_2
REMARK    2  A    between atoms: C_6  and  C_7
REMARK    3  A    between atoms: N_9  and  C_10
REMARK    4  A    between atoms: C_10  and  C_11
REMARK    5  A    between atoms: C_14  and  C_15
REMARK    6  A    between atoms: C_15  and  O_16
REMARK    7  A    between atoms: O_16  and  C_17
REMARK    8  A    between atoms: C_17  and  C_19
REMARK                            x       y       z     vdW  Elec       q    Type
REMARK                         _______ _______ _______ _____ _____    ______ ____
ROOT
ATOM      1  C   UNL     1      46.578   7.381  12.847  0.00  0.00    +0.000 A 
ATOM      2  C   UNL     1      47.148   6.183  13.296  0.00  0.00    +0.000 A 
ATOM      3  C   UNL     1      48.066   6.180  14.350  0.00  0.00    +0.000 A 
ATOM      4  C   UNL     1      48.425   7.376  14.984  0.00  0.00    +0.000 A 
ATOM      5  C   UNL     1      47.836   8.572  14.554  0.00  0.00    +0.000 A 
ATOM      6  C   UNL     1      46.921   8.574  13.497  0.00  0.00    +0.000 A 
ENDROOT
BRANCH   1   7
ATOM      7  C   UNL     1      45.608   7.382  11.693  0.00  0.00    +0.000 C 
BRANCH   7  10
ATOM      8  C   UNL     1      44.720   5.318  10.708  0.00  0.00    +0.000 C 
ATOM      9  O   UNL     1      43.630   5.456  11.255  0.00  0.00    +0.000 OA
ATOM     10  N   UNL     1      45.763   6.206  10.869  0.00  0.00    +0.000 N 
ATOM     11  H   UNL     1      46.555   6.170  10.243  0.00  0.00    +0.000 HD
BRANCH   8  17
ATOM     12  C   UNL     1      46.726   3.553   6.469  0.00  0.00    +0.000 C 
ATOM     13  C   UNL     1      45.930   3.318   7.721  0.00  0.00    +0.000 A 
ATOM     14  C   UNL     1      45.424   2.048   8.018  0.00  0.00    +0.000 A 
ATOM     15  C   UNL     1      44.682   1.836   9.181  0.00  0.00    +0.000 A 
ATOM     16  C   UNL     1      44.446   2.889  10.066  0.00  0.00    +0.000 A 
ATOM     17  C   UNL     1      44.958   4.163   9.791  0.00  0.00    +0.000 A 
ATOM     18  C   UNL     1      45.687   4.375   8.611  0.00  0.00    +0.000 A 
ENDBRANCH   8  17
ENDBRANCH   7  10
ENDBRANCH   1   7
BRANCH   4  19
ATOM     19  C   UNL     1      49.452   7.380  16.090  0.00  0.00    +0.000 C 
BRANCH  19  20
ATOM     20  O   UNL     1      48.818   7.572  17.359  0.00  0.00    +0.000 OA
BRANCH  20  21
ATOM     21  C   UNL     1      49.145   6.666  18.315  0.00  0.00    +0.000 C 
ATOM     22  O   UNL     1      49.606   6.944  19.417  0.00  0.00    +0.000 OA
BRANCH  21  23
ATOM     23  C   UNL     1      48.827   5.296  17.926  0.00  0.00    +0.000 A 
ATOM     24  C   UNL     1      47.512   4.885  17.780  0.00  0.00    +0.000 A 
ATOM     25  S   UNL     1      47.370   3.249  17.316  0.00  0.00    +0.000 S 
ATOM     26  C   UNL     1      49.059   3.035  17.339  0.00  0.00    +0.000 A 
ATOM     27  N   UNL     1      49.615   1.824  17.066  0.00  0.00    +0.000 NA
ATOM     28  C   UNL     1      50.904   1.805  17.132  0.00  0.00    +0.000 A 
ATOM     29  N   UNL     1      51.688   2.888  17.440  0.00  0.00    +0.000 N 
ATOM     30  C   UNL     1      51.173   4.124  17.765  0.00  0.00    +0.000 A 
ATOM     31  O   UNL     1      51.906   5.037  18.129  0.00  0.00    +0.000 OA
ATOM     32  C   UNL     1      49.725   4.200  17.674  0.00  0.00    +0.000 A 
ATOM     33  H   UNL     1      52.691   2.798  17.502  0.00  0.00    +0.000 HD
ENDBRANCH  21  23
ENDBRANCH  20  21
ENDBRANCH  19  20
ENDBRANCH   4  19
TORSDOF 7
ENDMDL
