MODEL 1
REMARK VINA RESULT:    -9.207      0.000      0.000
REMARK INTER + INTRA:         -13.344
REMARK INTER:                 -12.436
REMARK INTRA:                  -0.908
REMARK UNBOUND:                -0.908
REMARK  Name = 
REMARK  6 active torsions:
REMARK  status: ('A' for Active; 'I' for Inactive)
REMARK    1  A    between atoms: C_2  and  C_4
REMARK    2  A    between atoms: C_7  and  O_8
REMARK    3  A    between atoms: O_8  and  C_9
REMARK    4  A    between atoms: C_9  and  C_10
REMARK    5  A    between atoms: C_10  and  C_13
REMARK    6  A    between atoms: N_18  and  C_19
REMARK                            x       y       z     vdW  Elec       q    Type
REMARK                         _______ _______ _______ _____ _____    ______ ____
ROOT
ATOM      1  C   UNL     1      43.558   5.521  12.038  0.00  0.00    +0.000 C 
ATOM      2  F   UNL     1      43.331   6.667  11.331  0.00  0.00    +0.000 F 
ATOM      3  F   UNL     1      42.612   5.500  13.020  0.00  0.00    +0.000 F 
ENDROOT
BRANCH   1   4
ATOM      4  C   UNL     1      44.967   5.497  12.598  0.00  0.00    +0.000 A 
ATOM      5  C   UNL     1      46.037   6.092  11.934  0.00  0.00    +0.000 A 
ATOM      6  C   UNL     1      47.292   6.021  12.519  0.00  0.00    +0.000 A 
ATOM      7  N   UNL     1      47.551   5.413  13.703  0.00  0.00    +0.000 NA
ATOM      8  C   UNL     1      46.517   4.843  14.347  0.00  0.00    +0.000 A 
ATOM      9  N   UNL     1      46.690   4.170  15.570  0.00  0.00    +0.000 N 
ATOM     10  C   UNL     1      45.231   4.851  13.815  0.00  0.00    +0.000 A 
ATOM     11  H   UNL     1      45.997   4.474  16.247  0.00  0.00    +0.000 HD
BRANCH   9  12
ATOM     12  C   UNL     1      47.926   3.704  16.114  0.00  0.00    +0.000 C 
ATOM     13  C   UNL     1      47.673   2.815  17.348  0.00  0.00    +0.000 C 
ATOM     14  C   UNL     1      48.821   3.548  18.064  0.00  0.00    +0.000 C 
ATOM     15  F   UNL     1      48.563   3.911  19.342  0.00  0.00    +0.000 F 
ATOM     16  F   UNL     1      49.998   2.884  18.079  0.00  0.00    +0.000 F 
ATOM     17  C   UNL     1      48.695   4.677  17.017  0.00  0.00    +0.000 C 
ENDBRANCH   9  12
ENDBRANCH   1   4
BRANCH   1  18
ATOM     18  C   UNL     1      43.324   4.315  11.104  0.00  0.00    +0.000 C 
BRANCH  18  19
ATOM     19  O   UNL     1      43.608   4.654   9.741  0.00  0.00    +0.000 OA
BRANCH  19  23
ATOM     20  C   UNL     1      46.190   2.002   7.959  0.00  0.00    +0.000 A 
ATOM     21  C   UNL     1      46.326   3.339   7.593  0.00  0.00    +0.000 A 
ATOM     22  C   UNL     1      45.469   4.278   8.167  0.00  0.00    +0.000 A 
ATOM     23  C   UNL     1      44.511   3.859   9.087  0.00  0.00    +0.000 A 
ATOM     24  C   UNL     1      44.454   2.502   9.386  0.00  0.00    +0.000 A 
ATOM     25  N   UNL     1      45.262   1.558   8.845  0.00  0.00    +0.000 NA
BRANCH  20  27
ATOM     26  N   UNL     1      46.842  -0.321   7.720  0.00  0.00    +0.000 N 
ATOM     27  C   UNL     1      47.097   0.979   7.361  0.00  0.00    +0.000 C 
ATOM     28  O   UNL     1      48.008   1.266   6.589  0.00  0.00    +0.000 OA
ATOM     29  H   UNL     1      47.404  -1.062   7.330  0.00  0.00    +0.000 HD
ATOM     30  H   UNL     1      46.063  -0.525   8.333  0.00  0.00    +0.000 HD
ENDBRANCH  20  27
ENDBRANCH  19  23
ENDBRANCH  18  19
ENDBRANCH   1  18
TORSDOF 6
ENDMDL
MODEL 2
REMARK VINA RESULT:    -8.760      3.002      4.342
REMARK INTER + INTRA:         -12.741
REMARK INTER:                 -11.755
REMARK INTRA:                  -0.985
REMARK UNBOUND:                -0.908
REMARK  Name = 
REMARK  6 active torsions:
REMARK  status: ('A' for Active; 'I' for Inactive)
REMARK    1  A    between atoms: C_2  and  C_4
REMARK    2  A    between atoms: C_7  and  O_8
REMARK    3  A    between atoms: O_8  and  C_9
REMARK    4  A    between atoms: C_9  and  C_10
REMARK    5  A    between atoms: C_10  and  C_13
REMARK    6  A    between atoms: N_18  and  C_19
REMARK                            x       y       z     vdW  Elec       q    Type
REMARK                         _______ _______ _______ _____ _____    ______ ____
ROOT
ATOM      1  C   UNL     1      43.676   5.436  12.220  0.00  0.00    +0.000 C 
ATOM      2  F   UNL     1      43.295   6.575  11.571  0.00  0.00    +0.000 F 
ATOM      3  F   UNL     1      42.859   5.339  13.307  0.00  0.00    +0.000 F 
ENDROOT
BRANCH   1   4
ATOM      4  C   UNL     1      45.141   5.495  12.606  0.00  0.00    +0.000 A 
ATOM      5  C   UNL     1      45.698   4.617  13.533  0.00  0.00    +0.000 A 
ATOM      6  C   UNL     1      47.047   4.744  13.826  0.00  0.00    +0.000 A 
ATOM      7  N   UNL     1      47.869   5.665  13.266  0.00  0.00    +0.000 NA
ATOM      8  C   UNL     1      47.334   6.509  12.367  0.00  0.00    +0.000 A 
ATOM      9  N   UNL     1      48.101   7.514  11.750  0.00  0.00    +0.000 N 
ATOM     10  C   UNL     1      45.983   6.462  12.036  0.00  0.00    +0.000 A 
ATOM     11  H   UNL     1      47.953   7.510  10.745  0.00  0.00    +0.000 HD
BRANCH   9  12
ATOM     12  C   UNL     1      49.370   8.001  12.188  0.00  0.00    +0.000 C 
ATOM     13  C   UNL     1      49.540   9.486  11.806  0.00  0.00    +0.000 C 
ATOM     14  C   UNL     1      50.975   9.165  11.354  0.00  0.00    +0.000 C 
ATOM     15  F   UNL     1      51.339   9.708  10.169  0.00  0.00    +0.000 F 
ATOM     16  F   UNL     1      51.939   9.493  12.243  0.00  0.00    +0.000 F 
ATOM     17  C   UNL     1      50.580   7.672  11.305  0.00  0.00    +0.000 C 
ENDBRANCH   9  12
ENDBRANCH   1   4
BRANCH   1  18
ATOM     18  C   UNL     1      43.407   4.231  11.293  0.00  0.00    +0.000 C 
BRANCH  18  19
ATOM     19  O   UNL     1      43.589   4.587   9.917  0.00  0.00    +0.000 OA
BRANCH  19  23
ATOM     20  C   UNL     1      46.235   2.122   7.969  0.00  0.00    +0.000 A 
ATOM     21  C   UNL     1      46.321   3.479   7.672  0.00  0.00    +0.000 A 
ATOM     22  C   UNL     1      45.440   4.357   8.304  0.00  0.00    +0.000 A 
ATOM     23  C   UNL     1      44.509   3.859   9.212  0.00  0.00    +0.000 A 
ATOM     24  C   UNL     1      44.503   2.486   9.441  0.00  0.00    +0.000 A 
ATOM     25  N   UNL     1      45.335   1.600   8.842  0.00  0.00    +0.000 NA
BRANCH  20  27
ATOM     26  N   UNL     1      48.267   1.724   6.708  0.00  0.00    +0.000 N 
ATOM     27  C   UNL     1      47.169   1.162   7.309  0.00  0.00    +0.000 C 
ATOM     28  O   UNL     1      46.983  -0.051   7.306  0.00  0.00    +0.000 OA
ATOM     29  H   UNL     1      48.949   1.126   6.265  0.00  0.00    +0.000 HD
ATOM     30  H   UNL     1      48.406   2.725   6.757  0.00  0.00    +0.000 HD
ENDBRANCH  20  27
ENDBRANCH  19  23
ENDBRANCH  18  19
ENDBRANCH   1  18
TORSDOF 6
ENDMDL
MODEL 3
REMARK VINA RESULT:    -8.308      2.848      3.328
REMARK INTER + INTRA:         -12.130
REMARK INTER:                 -11.173
REMARK INTRA:                  -0.957
REMARK UNBOUND:                -0.908
REMARK  Name = 
REMARK  6 active torsions:
REMARK  status: ('A' for Active; 'I' for Inactive)
REMARK    1  A    between atoms: C_2  and  C_4
REMARK    2  A    between atoms: C_7  and  O_8
REMARK    3  A    between atoms: O_8  and  C_9
REMARK    4  A    between atoms: C_9  and  C_10
REMARK    5  A    between atoms: C_10  and  C_13
REMARK    6  A    between atoms: N_18  and  C_19
REMARK                            x       y       z     vdW  Elec       q    Type
REMARK                         _______ _______ _______ _____ _____    ______ ____
ROOT
ATOM      1  C   UNL     1      43.311   4.613  12.303  0.00  0.00    +0.000 C 
ATOM      2  F   UNL     1      42.158   4.778  11.591  0.00  0.00    +0.000 F 
ATOM      3  F   UNL     1      42.919   4.324  13.577  0.00  0.00    +0.000 F 
ENDROOT
BRANCH   1   4
ATOM      4  C   UNL     1      44.174   5.857  12.237  0.00  0.00    +0.000 A 
ATOM      5  C   UNL     1      43.910   6.894  11.345  0.00  0.00    +0.000 A 
ATOM      6  C   UNL     1      44.753   7.995  11.353  0.00  0.00    +0.000 A 
ATOM      7  N   UNL     1      45.821   8.135  12.177  0.00  0.00    +0.000 NA
ATOM      8  C   UNL     1      46.073   7.138  13.041  0.00  0.00    +0.000 A 
ATOM      9  N   UNL     1      47.170   7.182  13.920  0.00  0.00    +0.000 N 
ATOM     10  C   UNL     1      45.287   5.989  13.080  0.00  0.00    +0.000 A 
ATOM     11  H   UNL     1      46.881   6.947  14.865  0.00  0.00    +0.000 HD
BRANCH   9  12
ATOM     12  C   UNL     1      48.306   8.041  13.815  0.00  0.00    +0.000 C 
ATOM     13  C   UNL     1      49.532   7.255  13.307  0.00  0.00    +0.000 C 
ATOM     14  C   UNL     1      50.383   7.969  14.373  0.00  0.00    +0.000 C 
ATOM     15  F   UNL     1      51.233   7.171  15.059  0.00  0.00    +0.000 F 
ATOM     16  F   UNL     1      51.113   9.010  13.914  0.00  0.00    +0.000 F 
ATOM     17  C   UNL     1      49.075   8.334  15.110  0.00  0.00    +0.000 C 
ENDBRANCH   9  12
ENDBRANCH   1   4
BRANCH   1  18
ATOM     18  C   UNL     1      44.068   3.394  11.734  0.00  0.00    +0.000 C 
BRANCH  18  19
ATOM     19  O   UNL     1      43.589   3.052  10.427  0.00  0.00    +0.000 OA
BRANCH  19  23
ATOM     20  C   UNL     1      46.415   2.606   7.481  0.00  0.00    +0.000 A 
ATOM     21  C   UNL     1      45.927   3.894   7.679  0.00  0.00    +0.000 A 
ATOM     22  C   UNL     1      44.961   4.097   8.666  0.00  0.00    +0.000 A 
ATOM     23  C   UNL     1      44.518   3.016   9.423  0.00  0.00    +0.000 A 
ATOM     24  C   UNL     1      45.067   1.768   9.148  0.00  0.00    +0.000 A 
ATOM     25  N   UNL     1      46.000   1.528   8.194  0.00  0.00    +0.000 NA
BRANCH  20  27
ATOM     26  N   UNL     1      47.413   3.212   5.355  0.00  0.00    +0.000 N 
ATOM     27  C   UNL     1      47.451   2.364   6.434  0.00  0.00    +0.000 C 
ATOM     28  O   UNL     1      48.294   1.476   6.524  0.00  0.00    +0.000 OA
ATOM     29  H   UNL     1      48.103   3.116   4.625  0.00  0.00    +0.000 HD
ATOM     30  H   UNL     1      46.725   3.953   5.328  0.00  0.00    +0.000 HD
ENDBRANCH  20  27
ENDBRANCH  19  23
ENDBRANCH  18  19
ENDBRANCH   1  18
TORSDOF 6
ENDMDL
MODEL 4
REMARK VINA RESULT:    -8.254      2.343      2.645
REMARK INTER + INTRA:         -12.057
REMARK INTER:                 -11.119
REMARK INTRA:                  -0.939
REMARK UNBOUND:                -0.908
REMARK  Name = 
REMARK  6 active torsions:
REMARK  status: ('A' for Active; 'I' for Inactive)
REMARK    1  A    between atoms: C_2  and  C_4
REMARK    2  A    between atoms: C_7  and  O_8
REMARK    3  A    between atoms: O_8  and  C_9
REMARK    4  A    between atoms: C_9  and  C_10
REMARK    5  A    between atoms: C_10  and  C_13
REMARK    6  A    between atoms: N_18  and  C_19
REMARK                            x       y       z     vdW  Elec       q    Type
REMARK                         _______ _______ _______ _____ _____    ______ ____
ROOT
ATOM      1  C   UNL     1      44.051   4.207  12.392  0.00  0.00    +0.000 C 
ATOM      2  F   UNL     1      43.085   4.381  13.342  0.00  0.00    +0.000 F 
ATOM      3  F   UNL     1      44.526   2.942  12.575  0.00  0.00    +0.000 F 
ENDROOT
BRANCH   1   4
ATOM      4  C   UNL     1      45.139   5.254  12.525  0.00  0.00    +0.000 A 
ATOM      5  C   UNL     1      45.337   6.242  11.564  0.00  0.00    +0.000 A 
ATOM      6  C   UNL     1      46.357   7.159  11.768  0.00  0.00    +0.000 A 
ATOM      7  N   UNL     1      47.177   7.164  12.848  0.00  0.00    +0.000 NA
ATOM      8  C   UNL     1      46.983   6.214  13.779  0.00  0.00    +0.000 A 
ATOM      9  N   UNL     1      47.797   6.124  14.922  0.00  0.00    +0.000 N 
ATOM     10  C   UNL     1      45.995   5.244  13.636  0.00  0.00    +0.000 A 
ATOM     11  H   UNL     1      47.229   6.030  15.759  0.00  0.00    +0.000 HD
BRANCH   9  12
ATOM     12  C   UNL     1      49.073   6.738  15.105  0.00  0.00    +0.000 C 
ATOM     13  C   UNL     1      49.642   6.399  16.498  0.00  0.00    +0.000 C 
ATOM     14  C   UNL     1      50.062   7.872  16.643  0.00  0.00    +0.000 C 
ATOM     15  F   UNL     1      49.783   8.433  17.842  0.00  0.00    +0.000 F 
ATOM     16  F   UNL     1      51.367   8.119  16.393  0.00  0.00    +0.000 F 
ATOM     17  C   UNL     1      49.078   8.220  15.504  0.00  0.00    +0.000 C 
ENDBRANCH   9  12
ENDBRANCH   1   4
BRANCH   1  18
ATOM     18  C   UNL     1      43.388   4.287  11.000  0.00  0.00    +0.000 C 
BRANCH  18  19
ATOM     19  O   UNL     1      43.534   3.052  10.287  0.00  0.00    +0.000 OA
BRANCH  19  23
ATOM     20  C   UNL     1      46.484   2.604   7.464  0.00  0.00    +0.000 A 
ATOM     21  C   UNL     1      45.942   3.879   7.594  0.00  0.00    +0.000 A 
ATOM     22  C   UNL     1      44.932   4.082   8.537  0.00  0.00    +0.000 A 
ATOM     23  C   UNL     1      44.502   3.013   9.320  0.00  0.00    +0.000 A 
ATOM     24  C   UNL     1      45.107   1.778   9.113  0.00  0.00    +0.000 A 
ATOM     25  N   UNL     1      46.083   1.538   8.204  0.00  0.00    +0.000 NA
BRANCH  20  27
ATOM     26  N   UNL     1      47.482   3.097   5.310  0.00  0.00    +0.000 N 
ATOM     27  C   UNL     1      47.567   2.362   6.466  0.00  0.00    +0.000 C 
ATOM     28  O   UNL     1      48.485   1.570   6.658  0.00  0.00    +0.000 OA
ATOM     29  H   UNL     1      48.197   2.998   4.606  0.00  0.00    +0.000 HD
ATOM     30  H   UNL     1      46.729   3.765   5.198  0.00  0.00    +0.000 HD
ENDBRANCH  20  27
ENDBRANCH  19  23
ENDBRANCH  18  19
ENDBRANCH   1  18
TORSDOF 6
ENDMDL
MODEL 5
REMARK VINA RESULT:    -7.824      3.444      7.893
REMARK INTER + INTRA:         -11.476
REMARK INTER:                 -10.845
REMARK INTRA:                  -0.631
REMARK UNBOUND:                -0.908
REMARK  Name = 
REMARK  6 active torsions:
REMARK  status: ('A' for Active; 'I' for Inactive)
REMARK    1  A    between atoms: C_2  and  C_4
REMARK    2  A    between atoms: C_7  and  O_8
REMARK    3  A    between atoms: O_8  and  C_9
REMARK    4  A    between atoms: C_9  and  C_10
REMARK    5  A    between atoms: C_10  and  C_13
REMARK    6  A    between atoms: N_18  and  C_19
REMARK                            x       y       z     vdW  Elec       q    Type
REMARK                         _______ _______ _______ _____ _____    ______ ____
ROOT
ATOM      1  C   UNL     1      45.084   7.027  12.044  0.00  0.00    +0.000 C 
ATOM      2  F   UNL     1      44.539   7.013  13.295  0.00  0.00    +0.000 F 
ATOM      3  F   UNL     1      44.590   8.145  11.439  0.00  0.00    +0.000 F 
ENDROOT
BRANCH   1   4
ATOM      4  C   UNL     1      44.736   5.763  11.284  0.00  0.00    +0.000 A 
ATOM      5  C   UNL     1      43.887   4.793  11.811  0.00  0.00    +0.000 A 
ATOM      6  C   UNL     1      43.624   3.667  11.046  0.00  0.00    +0.000 A 
ATOM      7  N   UNL     1      44.135   3.445   9.810  0.00  0.00    +0.000 NA
ATOM      8  C   UNL     1      44.951   4.383   9.298  0.00  0.00    +0.000 A 
ATOM      9  N   UNL     1      45.548   4.232   8.034  0.00  0.00    +0.000 N 
ATOM     10  C   UNL     1      45.282   5.530  10.013  0.00  0.00    +0.000 A 
ATOM     11  H   UNL     1      45.430   5.075   7.480  0.00  0.00    +0.000 HD
BRANCH   9  12
ATOM     12  C   UNL     1      45.671   3.016   7.294  0.00  0.00    +0.000 C 
ATOM     13  C   UNL     1      46.371   1.935   8.141  0.00  0.00    +0.000 C 
ATOM     14  C   UNL     1      47.211   1.565   6.906  0.00  0.00    +0.000 C 
ATOM     15  F   UNL     1      48.530   1.384   7.142  0.00  0.00    +0.000 F 
ATOM     16  F   UNL     1      46.783   0.473   6.234  0.00  0.00    +0.000 F 
ATOM     17  C   UNL     1      46.829   2.930   6.291  0.00  0.00    +0.000 C 
ENDBRANCH   9  12
ENDBRANCH   1   4
BRANCH   1  18
ATOM     18  C   UNL     1      46.615   7.177  12.177  0.00  0.00    +0.000 C 
BRANCH  18  19
ATOM     19  O   UNL     1      47.239   5.909  12.420  0.00  0.00    +0.000 OA
BRANCH  19  23
ATOM     20  C   UNL     1      47.548   4.574  16.292  0.00  0.00    +0.000 A 
ATOM     21  C   UNL     1      48.239   5.743  15.984  0.00  0.00    +0.000 A 
ATOM     22  C   UNL     1      48.169   6.235  14.679  0.00  0.00    +0.000 A 
ATOM     23  C   UNL     1      47.413   5.553  13.729  0.00  0.00    +0.000 A 
ATOM     24  C   UNL     1      46.761   4.393  14.136  0.00  0.00    +0.000 A 
ATOM     25  N   UNL     1      46.810   3.879  15.389  0.00  0.00    +0.000 NA
BRANCH  20  27
ATOM     26  N   UNL     1      47.086   4.843  18.657  0.00  0.00    +0.000 N 
ATOM     27  C   UNL     1      47.604   4.029  17.680  0.00  0.00    +0.000 C 
ATOM     28  O   UNL     1      48.070   2.924  17.943  0.00  0.00    +0.000 OA
ATOM     29  H   UNL     1      47.072   4.521  19.613  0.00  0.00    +0.000 HD
ATOM     30  H   UNL     1      46.681   5.734  18.400  0.00  0.00    +0.000 HD
ENDBRANCH  20  27
ENDBRANCH  19  23
ENDBRANCH  18  19
ENDBRANCH   1  18
TORSDOF 6
ENDMDL
MODEL 6
REMARK VINA RESULT:    -7.637      2.777      3.303
REMARK INTER + INTRA:         -11.224
REMARK INTER:                 -10.433
REMARK INTRA:                  -0.791
REMARK UNBOUND:                -0.908
REMARK  Name = 
REMARK  6 active torsions:
REMARK  status: ('A' for Active; 'I' for Inactive)
REMARK    1  A    between atoms: C_2  and  C_4
REMARK    2  A    between atoms: C_7  and  O_8
REMARK    3  A    between atoms: O_8  and  C_9
REMARK    4  A    between atoms: C_9  and  C_10
REMARK    5  A    between atoms: C_10  and  C_13
REMARK    6  A    between atoms: N_18  and  C_19
REMARK                            x       y       z     vdW  Elec       q    Type
REMARK                         _______ _______ _______ _____ _____    ______ ____
ROOT
ATOM      1  C   UNL     1      43.583   5.116  11.774  0.00  0.00    +0.000 C 
ATOM      2  F   UNL     1      43.059   6.366  11.940  0.00  0.00    +0.000 F 
ATOM      3  F   UNL     1      42.655   4.256  12.283  0.00  0.00    +0.000 F 
ENDROOT
BRANCH   1   4
ATOM      4  C   UNL     1      44.924   4.991  12.471  0.00  0.00    +0.000 A 
ATOM      5  C   UNL     1      45.498   3.754  12.756  0.00  0.00    +0.000 A 
ATOM      6  C   UNL     1      46.727   3.735  13.396  0.00  0.00    +0.000 A 
ATOM      7  N   UNL     1      47.417   4.844  13.763  0.00  0.00    +0.000 NA
ATOM      8  C   UNL     1      46.867   6.038  13.483  0.00  0.00    +0.000 A 
ATOM      9  N   UNL     1      47.495   7.243  13.844  0.00  0.00    +0.000 N 
ATOM     10  C   UNL     1      45.625   6.142  12.863  0.00  0.00    +0.000 A 
ATOM     11  H   UNL     1      47.512   7.886  13.059  0.00  0.00    +0.000 HD
BRANCH   9  12
ATOM     12  C   UNL     1      48.549   7.398  14.795  0.00  0.00    +0.000 C 
ATOM     13  C   UNL     1      48.526   8.815  15.402  0.00  0.00    +0.000 C 
ATOM     14  C   UNL     1      50.055   8.868  15.241  0.00  0.00    +0.000 C 
ATOM     15  F   UNL     1      50.540  10.024  14.734  0.00  0.00    +0.000 F 
ATOM     16  F   UNL     1      50.756   8.615  16.370  0.00  0.00    +0.000 F 
ATOM     17  C   UNL     1      49.947   7.698  14.238  0.00  0.00    +0.000 C 
ENDBRANCH   9  12
ENDBRANCH   1   4
BRANCH   1  18
ATOM     18  C   UNL     1      43.730   4.842  10.262  0.00  0.00    +0.000 C 
BRANCH  18  19
ATOM     19  O   UNL     1      43.768   3.435   9.993  0.00  0.00    +0.000 OA
BRANCH  19  23
ATOM     20  C   UNL     1      46.829   2.446   7.439  0.00  0.00    +0.000 A 
ATOM     21  C   UNL     1      46.183   1.386   8.068  0.00  0.00    +0.000 A 
ATOM     22  C   UNL     1      45.138   1.671   8.950  0.00  0.00    +0.000 A 
ATOM     23  C   UNL     1      44.770   2.995   9.171  0.00  0.00    +0.000 A 
ATOM     24  C   UNL     1      45.479   3.983   8.494  0.00  0.00    +0.000 A 
ATOM     25  N   UNL     1      46.503   3.749   7.637  0.00  0.00    +0.000 NA
BRANCH  20  27
ATOM     26  N   UNL     1      48.984   3.066   6.515  0.00  0.00    +0.000 N 
ATOM     27  C   UNL     1      47.947   2.168   6.489  0.00  0.00    +0.000 C 
ATOM     28  O   UNL     1      47.955   1.197   5.737  0.00  0.00    +0.000 OA
ATOM     29  H   UNL     1      49.781   2.920   5.915  0.00  0.00    +0.000 HD
ATOM     30  H   UNL     1      48.959   3.838   7.171  0.00  0.00    +0.000 HD
ENDBRANCH  20  27
ENDBRANCH  19  23
ENDBRANCH  18  19
ENDBRANCH   1  18
TORSDOF 6
ENDMDL
MODEL 7
REMARK VINA RESULT:    -7.611      2.383      2.969
REMARK INTER + INTRA:         -11.188
REMARK INTER:                 -10.684
REMARK INTRA:                  -0.504
REMARK UNBOUND:                -0.908
REMARK  Name = 
REMARK  6 active torsions:
REMARK  status: ('A' for Active; 'I' for Inactive)
REMARK    1  A    between atoms: C_2  and  C_4
REMARK    2  A    between atoms: C_7  and  O_8
REMARK    3  A    between atoms: O_8  and  C_9
REMARK    4  A    between atoms: C_9  and  C_10
REMARK    5  A    between atoms: C_10  and  C_13
REMARK    6  A    between atoms: N_18  and  C_19
REMARK                            x       y       z     vdW  Elec       q    Type
REMARK                         _______ _______ _______ _____ _____    ______ ____
ROOT
ATOM      1  C   UNL     1      45.276   6.063  11.497  0.00  0.00    +0.000 C 
ATOM      2  F   UNL     1      46.033   6.197  10.368  0.00  0.00    +0.000 F 
ATOM      3  F   UNL     1      44.614   7.247  11.639  0.00  0.00    +0.000 F 
ENDROOT
BRANCH   1   4
ATOM      4  C   UNL     1      46.142   5.742  12.698  0.00  0.00    +0.000 A 
ATOM      5  C   UNL     1      46.048   4.529  13.376  0.00  0.00    +0.000 A 
ATOM      6  C   UNL     1      46.880   4.321  14.465  0.00  0.00    +0.000 A 
ATOM      7  N   UNL     1      47.789   5.220  14.917  0.00  0.00    +0.000 NA
ATOM      8  C   UNL     1      47.885   6.389  14.260  0.00  0.00    +0.000 A 
ATOM      9  N   UNL     1      48.782   7.393  14.667  0.00  0.00    +0.000 N 
ATOM     10  C   UNL     1      47.069   6.684  13.171  0.00  0.00    +0.000 A 
ATOM     11  H   UNL     1      49.312   7.741  13.875  0.00  0.00    +0.000 HD
BRANCH   9  12
ATOM     12  C   UNL     1      49.430   7.487  15.936  0.00  0.00    +0.000 C 
ATOM     13  C   UNL     1      50.211   8.812  16.048  0.00  0.00    +0.000 C 
ATOM     14  C   UNL     1      51.381   8.026  16.664  0.00  0.00    +0.000 C 
ATOM     15  F   UNL     1      52.604   8.343  16.180  0.00  0.00    +0.000 F 
ATOM     16  F   UNL     1      51.467   8.097  18.012  0.00  0.00    +0.000 F 
ATOM     17  C   UNL     1      50.757   6.733  16.094  0.00  0.00    +0.000 C 
ENDBRANCH   9  12
ENDBRANCH   1   4
BRANCH   1  18
ATOM     18  C   UNL     1      44.238   4.946  11.261  0.00  0.00    +0.000 C 
BRANCH  18  19
ATOM     19  O   UNL     1      43.939   4.803   9.866  0.00  0.00    +0.000 OA
BRANCH  19  23
ATOM     20  C   UNL     1      46.259   2.012   7.942  0.00  0.00    +0.000 A 
ATOM     21  C   UNL     1      46.301   3.308   7.434  0.00  0.00    +0.000 A 
ATOM     22  C   UNL     1      45.526   4.292   8.050  0.00  0.00    +0.000 A 
ATOM     23  C   UNL     1      44.742   3.956   9.151  0.00  0.00    +0.000 A 
ATOM     24  C   UNL     1      44.768   2.634   9.582  0.00  0.00    +0.000 A 
ATOM     25  N   UNL     1      45.500   1.648   9.007  0.00  0.00    +0.000 NA
BRANCH  20  27
ATOM     26  N   UNL     1      46.728  -0.344   7.620  0.00  0.00    +0.000 N 
ATOM     27  C   UNL     1      47.081   0.943   7.303  0.00  0.00    +0.000 C 
ATOM     28  O   UNL     1      48.007   1.186   6.534  0.00  0.00    +0.000 OA
ATOM     29  H   UNL     1      47.229  -1.113   7.200  0.00  0.00    +0.000 HD
ATOM     30  H   UNL     1      45.939  -0.509   8.232  0.00  0.00    +0.000 HD
ENDBRANCH  20  27
ENDBRANCH  19  23
ENDBRANCH  18  19
ENDBRANCH   1  18
TORSDOF 6
ENDMDL
MODEL 8
REMARK VINA RESULT:    -7.440      3.900      4.937
REMARK INTER + INTRA:         -10.958
REMARK INTER:                 -10.193
REMARK INTRA:                  -0.765
REMARK UNBOUND:                -0.908
REMARK  Name = 
REMARK  6 active torsions:
REMARK  status: ('A' for Active; 'I' for Inactive)
REMARK    1  A    between atoms: C_2  and  C_4
REMARK    2  A    between atoms: C_7  and  O_8
REMARK    3  A    between atoms: O_8  and  C_9
REMARK    4  A    between atoms: C_9  and  C_10
REMARK    5  A    between atoms: C_10  and  C_13
REMARK    6  A    between atoms: N_18  and  C_19
REMARK                            x       y       z     vdW  Elec       q    Type
REMARK                         _______ _______ _______ _____ _____    ______ ____
ROOT
ATOM      1  C   UNL     1      45.423   5.770  12.354  0.00  0.00    +0.000 C 
ATOM      2  F   UNL     1      44.501   5.869  13.356  0.00  0.00    +0.000 F 
ATOM      3  F   UNL     1      45.990   4.538  12.494  0.00  0.00    +0.000 F 
ENDROOT
BRANCH   1   4
ATOM      4  C   UNL     1      46.445   6.886  12.444  0.00  0.00    +0.000 A 
ATOM      5  C   UNL     1      46.110   8.163  12.886  0.00  0.00    +0.000 A 
ATOM      6  C   UNL     1      47.110   9.123  12.935  0.00  0.00    +0.000 A 
ATOM      7  N   UNL     1      48.401   8.901  12.586  0.00  0.00    +0.000 NA
ATOM      8  C   UNL     1      48.727   7.667  12.165  0.00  0.00    +0.000 A 
ATOM      9  N   UNL     1      50.035   7.346  11.760  0.00  0.00    +0.000 N 
ATOM     10  C   UNL     1      47.776   6.655  12.065  0.00  0.00    +0.000 A 
ATOM     11  H   UNL     1      50.345   6.485  12.200  0.00  0.00    +0.000 HD
BRANCH   9  12
ATOM     12  C   UNL     1      51.067   8.272  11.415  0.00  0.00    +0.000 C 
ATOM     13  C   UNL     1      52.158   7.578  10.575  0.00  0.00    +0.000 C 
ATOM     14  C   UNL     1      53.218   8.298  11.426  0.00  0.00    +0.000 C 
ATOM     15  F   UNL     1      54.250   7.525  11.834  0.00  0.00    +0.000 F 
ATOM     16  F   UNL     1      53.759   9.396  10.852  0.00  0.00    +0.000 F 
ATOM     17  C   UNL     1      52.126   8.560  12.487  0.00  0.00    +0.000 C 
ENDBRANCH   9  12
ENDBRANCH   1   4
BRANCH   1  18
ATOM     18  C   UNL     1      44.682   5.820  11.001  0.00  0.00    +0.000 C 
BRANCH  18  19
ATOM     19  O   UNL     1      44.205   4.521  10.625  0.00  0.00    +0.000 OA
BRANCH  19  23
ATOM     20  C   UNL     1      46.420   2.854   7.593  0.00  0.00    +0.000 A 
ATOM     21  C   UNL     1      45.794   1.965   8.463  0.00  0.00    +0.000 A 
ATOM     22  C   UNL     1      45.033   2.483   9.512  0.00  0.00    +0.000 A 
ATOM     23  C   UNL     1      44.917   3.863   9.659  0.00  0.00    +0.000 A 
ATOM     24  C   UNL     1      45.582   4.667   8.739  0.00  0.00    +0.000 A 
ATOM     25  N   UNL     1      46.335   4.204   7.712  0.00  0.00    +0.000 NA
BRANCH  20  27
ATOM     26  N   UNL     1      47.235   3.092   5.322  0.00  0.00    +0.000 N 
ATOM     27  C   UNL     1      47.236   2.326   6.461  0.00  0.00    +0.000 C 
ATOM     28  O   UNL     1      47.879   1.282   6.534  0.00  0.00    +0.000 OA
ATOM     29  H   UNL     1      47.787   2.802   4.529  0.00  0.00    +0.000 HD
ATOM     30  H   UNL     1      46.720   3.963   5.308  0.00  0.00    +0.000 HD
ENDBRANCH  20  27
ENDBRANCH  19  23
ENDBRANCH  18  19
ENDBRANCH   1  18
TORSDOF 6
ENDMDL
MODEL 9
REMARK VINA RESULT:    -7.249      4.151      7.964
REMARK INTER + INTRA:         -10.701
REMARK INTER:                  -9.789
REMARK INTRA:                  -0.911
REMARK UNBOUND:                -0.908
REMARK  Name = 
REMARK  6 active torsions:
REMARK  status: ('A' for Active; 'I' for Inactive)
REMARK    1  A    between atoms: C_2  and  C_4
REMARK    2  A    between atoms: C_7  and  O_8
REMARK    3  A    between atoms: O_8  and  C_9
REMARK    4  A    between atoms: C_9  and  C_10
REMARK    5  A    between atoms: C_10  and  C_13
REMARK    6  A    between atoms: N_18  and  C_19
REMARK                            x       y       z     vdW  Elec       q    Type
REMARK                         _______ _______ _______ _____ _____    ______ ____
ROOT
ATOM      1  C   UNL     1      47.822   8.510  12.308  0.00  0.00    +0.000 C 
ATOM      2  F   UNL     1      47.580   9.785  11.884  0.00  0.00    +0.000 F 
ATOM      3  F   UNL     1      48.932   8.100  11.630  0.00  0.00    +0.000 F 
ENDROOT
BRANCH   1   4
ATOM      4  C   UNL     1      46.627   7.614  12.048  0.00  0.00    +0.000 A 
ATOM      5  C   UNL     1      45.535   7.568  12.911  0.00  0.00    +0.000 A 
ATOM      6  C   UNL     1      44.485   6.719  12.594  0.00  0.00    +0.000 A 
ATOM      7  N   UNL     1      44.445   5.929  11.492  0.00  0.00    +0.000 NA
ATOM      8  C   UNL     1      45.497   5.977  10.656  0.00  0.00    +0.000 A 
ATOM      9  N   UNL     1      45.558   5.178   9.500  0.00  0.00    +0.000 N 
ATOM     10  C   UNL     1      46.600   6.786  10.916  0.00  0.00    +0.000 A 
ATOM     11  H   UNL     1      45.822   5.736   8.694  0.00  0.00    +0.000 HD
BRANCH   9  12
ATOM     12  C   UNL     1      44.761   4.026   9.223  0.00  0.00    +0.000 C 
ATOM     13  C   UNL     1      45.261   2.815  10.036  0.00  0.00    +0.000 C 
ATOM     14  C   UNL     1      45.108   1.951   8.771  0.00  0.00    +0.000 C 
ATOM     15  F   UNL     1      46.142   1.117   8.517  0.00  0.00    +0.000 F 
ATOM     16  F   UNL     1      43.984   1.201   8.726  0.00  0.00    +0.000 F 
ATOM     17  C   UNL     1      45.085   3.252   7.938  0.00  0.00    +0.000 C 
ENDBRANCH   9  12
ENDBRANCH   1   4
BRANCH   1  18
ATOM     18  C   UNL     1      48.153   8.549  13.815  0.00  0.00    +0.000 C 
BRANCH  18  19
ATOM     19  O   UNL     1      49.149   7.574  14.151  0.00  0.00    +0.000 OA
BRANCH  19  23
ATOM     20  C   UNL     1      47.928   4.648  16.762  0.00  0.00    +0.000 A 
ATOM     21  C   UNL     1      48.758   5.635  17.284  0.00  0.00    +0.000 A 
ATOM     22  C   UNL     1      49.204   6.650  16.436  0.00  0.00    +0.000 A 
ATOM     23  C   UNL     1      48.807   6.651  15.101  0.00  0.00    +0.000 A 
ATOM     24  C   UNL     1      47.976   5.619  14.676  0.00  0.00    +0.000 A 
ATOM     25  N   UNL     1      47.528   4.613  15.465  0.00  0.00    +0.000 NA
BRANCH  20  27
ATOM     26  N   UNL     1      48.185   3.321  18.775  0.00  0.00    +0.000 N 
ATOM     27  C   UNL     1      47.435   3.554  17.650  0.00  0.00    +0.000 C 
ATOM     28  O   UNL     1      46.420   2.907  17.408  0.00  0.00    +0.000 OA
ATOM     29  H   UNL     1      47.891   2.611  19.429  0.00  0.00    +0.000 HD
ATOM     30  H   UNL     1      48.998   3.895  18.960  0.00  0.00    +0.000 HD
ENDBRANCH  20  27
ENDBRANCH  19  23
ENDBRANCH  18  19
ENDBRANCH   1  18
TORSDOF 6
ENDMDL
