MODEL 1
REMARK VINA RESULT:    -9.335      0.000      0.000
REMARK INTER + INTRA:         -12.582
REMARK INTER:                 -12.063
REMARK INTRA:                  -0.518
REMARK UNBOUND:                -0.518
REMARK  Name = 
REMARK  6 active torsions:
REMARK  status: ('A' for Active; 'I' for Inactive)
REMARK    1  A    between atoms: C_1  and  C_2
REMARK    2  A    between atoms: C_2  and  N_3
REMARK    3  A    between atoms: C_2  and  C_16
REMARK    4  A    between atoms: C_4  and  C_6
REMARK    5  A    between atoms: C_19  and  O_20
REMARK    6  A    between atoms: O_20  and  C_21
REMARK                            x       y       z     vdW  Elec       q    Type
REMARK                         _______ _______ _______ _____ _____    ______ ____
ROOT
ATOM      1  C   UNL     1      42.836   5.150  13.181  0.00  0.00    +0.000 C 
ATOM      2  C   UNL     1      44.162   4.424  12.947  0.00  0.00    +0.000 C 
ENDROOT
BRANCH   2   3
ATOM      3  C   UNL     1      44.482   4.327  11.460  0.00  0.00    +0.000 A 
ATOM      4  C   UNL     1      45.289   5.292  10.858  0.00  0.00    +0.000 A 
ATOM      5  C   UNL     1      45.566   5.189   9.494  0.00  0.00    +0.000 A 
ATOM      6  C   UNL     1      44.994   4.159   8.753  0.00  0.00    +0.000 A 
ATOM      7  C   UNL     1      44.203   3.243   9.427  0.00  0.00    +0.000 A 
ATOM      8  N   UNL     1      43.925   3.311  10.750  0.00  0.00    +0.000 NA
BRANCH   6   9
ATOM      9  O   UNL     1      45.204   3.952   7.411  0.00  0.00    +0.000 OA
BRANCH   9  10
ATOM     10  C   UNL     1      46.207   3.099   7.012  0.00  0.00    +0.000 A 
ATOM     11  C   UNL     1      46.876   3.427   5.838  0.00  0.00    +0.000 A 
ATOM     12  C   UNL     1      47.879   2.580   5.401  0.00  0.00    +0.000 A 
ATOM     13  N   UNL     1      48.250   1.457   6.051  0.00  0.00    +0.000 NA
ATOM     14  C   UNL     1      47.611   1.184   7.208  0.00  0.00    +0.000 A 
ATOM     15  C   UNL     1      46.612   1.980   7.738  0.00  0.00    +0.000 A 
ENDBRANCH   9  10
ENDBRANCH   6   9
ENDBRANCH   2   3
BRANCH   2  16
ATOM     16  N   UNL     1      45.248   5.088  13.652  0.00  0.00    +0.000 N 
ATOM     17  C   UNL     1      46.404   4.448  14.012  0.00  0.00    +0.000 C 
ATOM     18  O   UNL     1      46.590   3.262  13.729  0.00  0.00    +0.000 OA
ATOM     19  H   UNL     1      45.068   6.047  13.944  0.00  0.00    +0.000 HD
BRANCH  17  20
ATOM     20  C   UNL     1      47.421   5.223  14.737  0.00  0.00    +0.000 A 
ATOM     21  C   UNL     1      48.042   6.291  14.096  0.00  0.00    +0.000 A 
ATOM     22  S   UNL     1      49.208   7.089  15.046  0.00  0.00    +0.000 S 
ATOM     23  C   UNL     1      48.943   6.033  16.352  0.00  0.00    +0.000 A 
ATOM     24  N   UNL     1      49.666   6.153  17.498  0.00  0.00    +0.000 NA
ATOM     25  C   UNL     1      49.377   5.282  18.405  0.00  0.00    +0.000 A 
ATOM     26  N   UNL     1      48.415   4.314  18.277  0.00  0.00    +0.000 N 
ATOM     27  C   UNL     1      47.636   4.179  17.152  0.00  0.00    +0.000 A 
ATOM     28  O   UNL     1      46.749   3.335  17.099  0.00  0.00    +0.000 OA
ATOM     29  C   UNL     1      47.953   5.103  16.079  0.00  0.00    +0.000 A 
ATOM     30  H   UNL     1      48.224   3.671  19.031  0.00  0.00    +0.000 HD
ENDBRANCH  17  20
ENDBRANCH   2  16
TORSDOF 5
ENDMDL
MODEL 2
REMARK VINA RESULT:    -8.680      1.752      2.933
REMARK INTER + INTRA:         -11.735
REMARK INTER:                 -11.046
REMARK INTRA:                  -0.689
REMARK UNBOUND:                -0.518
REMARK  Name = 
REMARK  6 active torsions:
REMARK  status: ('A' for Active; 'I' for Inactive)
REMARK    1  A    between atoms: C_1  and  C_2
REMARK    2  A    between atoms: C_2  and  N_3
REMARK    3  A    between atoms: C_2  and  C_16
REMARK    4  A    between atoms: C_4  and  C_6
REMARK    5  A    between atoms: C_19  and  O_20
REMARK    6  A    between atoms: O_20  and  C_21
REMARK                            x       y       z     vdW  Elec       q    Type
REMARK                         _______ _______ _______ _____ _____    ______ ____
ROOT
ATOM      1  C   UNL     1      43.011   5.140  13.268  0.00  0.00    +0.000 C 
ATOM      2  C   UNL     1      44.350   4.467  12.952  0.00  0.00    +0.000 C 
ENDROOT
BRANCH   2   3
ATOM      3  C   UNL     1      44.517   4.251  11.453  0.00  0.00    +0.000 A 
ATOM      4  C   UNL     1      44.040   3.082  10.861  0.00  0.00    +0.000 A 
ATOM      5  C   UNL     1      44.207   2.900   9.488  0.00  0.00    +0.000 A 
ATOM      6  C   UNL     1      44.889   3.860   8.746  0.00  0.00    +0.000 A 
ATOM      7  C   UNL     1      45.333   4.992   9.411  0.00  0.00    +0.000 A 
ATOM      8  N   UNL     1      45.176   5.201  10.739  0.00  0.00    +0.000 NA
BRANCH   6   9
ATOM      9  O   UNL     1      45.103   3.794   7.391  0.00  0.00    +0.000 OA
BRANCH   9  10
ATOM     10  C   UNL     1      46.166   3.061   6.914  0.00  0.00    +0.000 A 
ATOM     11  C   UNL     1      46.532   1.940   7.651  0.00  0.00    +0.000 A 
ATOM     12  C   UNL     1      47.608   1.192   7.207  0.00  0.00    +0.000 A 
ATOM     13  N   UNL     1      48.318   1.483   6.096  0.00  0.00    +0.000 NA
ATOM     14  C   UNL     1      47.915   2.553   5.379  0.00  0.00    +0.000 A 
ATOM     15  C   UNL     1      46.840   3.349   5.729  0.00  0.00    +0.000 A 
ENDBRANCH   9  10
ENDBRANCH   6   9
ENDBRANCH   2   3
BRANCH   2  16
ATOM     16  N   UNL     1      45.459   5.251  13.474  0.00  0.00    +0.000 N 
ATOM     17  C   UNL     1      46.588   4.684  14.003  0.00  0.00    +0.000 C 
ATOM     18  O   UNL     1      46.727   3.460  14.042  0.00  0.00    +0.000 OA
ATOM     19  H   UNL     1      45.316   6.259  13.503  0.00  0.00    +0.000 HD
BRANCH  17  20
ATOM     20  C   UNL     1      47.633   5.583  14.514  0.00  0.00    +0.000 A 
ATOM     21  C   UNL     1      48.090   5.414  15.817  0.00  0.00    +0.000 A 
ATOM     22  S   UNL     1      49.287   6.532  16.283  0.00  0.00    +0.000 S 
ATOM     23  C   UNL     1      49.236   7.299  14.767  0.00  0.00    +0.000 A 
ATOM     24  N   UNL     1      50.016   8.384  14.512  0.00  0.00    +0.000 NA
ATOM     25  C   UNL     1      49.872   8.879  13.329  0.00  0.00    +0.000 A 
ATOM     26  N   UNL     1      49.033   8.374  12.370  0.00  0.00    +0.000 N 
ATOM     27  C   UNL     1      48.255   7.258  12.571  0.00  0.00    +0.000 A 
ATOM     28  O   UNL     1      47.559   6.806  11.670  0.00  0.00    +0.000 OA
ATOM     29  C   UNL     1      48.340   6.689  13.904  0.00  0.00    +0.000 A 
ATOM     30  H   UNL     1      48.977   8.797  11.456  0.00  0.00    +0.000 HD
ENDBRANCH  17  20
ENDBRANCH   2  16
TORSDOF 5
ENDMDL
MODEL 3
REMARK VINA RESULT:    -8.030      1.683      2.243
REMARK INTER + INTRA:         -10.895
REMARK INTER:                 -11.063
REMARK INTRA:                   0.168
REMARK UNBOUND:                -0.518
REMARK  Name = 
REMARK  6 active torsions:
REMARK  status: ('A' for Active; 'I' for Inactive)
REMARK    1  A    between atoms: C_1  and  C_2
REMARK    2  A    between atoms: C_2  and  N_3
REMARK    3  A    between atoms: C_2  and  C_16
REMARK    4  A    between atoms: C_4  and  C_6
REMARK    5  A    between atoms: C_19  and  O_20
REMARK    6  A    between atoms: O_20  and  C_21
REMARK                            x       y       z     vdW  Elec       q    Type
REMARK                         _______ _______ _______ _____ _____    ______ ____
ROOT
ATOM      1  C   UNL     1      45.304   8.603  11.664  0.00  0.00    +0.000 C 
ATOM      2  C   UNL     1      44.903   7.258  12.274  0.00  0.00    +0.000 C 
ENDROOT
BRANCH   2   3
ATOM      3  C   UNL     1      44.861   6.163  11.215  0.00  0.00    +0.000 A 
ATOM      4  C   UNL     1      45.839   6.119  10.222  0.00  0.00    +0.000 A 
ATOM      5  C   UNL     1      45.781   5.112   9.257  0.00  0.00    +0.000 A 
ATOM      6  C   UNL     1      44.726   4.205   9.274  0.00  0.00    +0.000 A 
ATOM      7  C   UNL     1      43.795   4.320  10.294  0.00  0.00    +0.000 A 
ATOM      8  N   UNL     1      43.831   5.279  11.248  0.00  0.00    +0.000 NA
BRANCH   6   9
ATOM      9  O   UNL     1      44.571   3.169   8.386  0.00  0.00    +0.000 OA
BRANCH   9  10
ATOM     10  C   UNL     1      45.681   2.649   7.761  0.00  0.00    +0.000 A 
ATOM     11  C   UNL     1      46.089   1.382   8.164  0.00  0.00    +0.000 A 
ATOM     12  C   UNL     1      47.212   0.838   7.566  0.00  0.00    +0.000 A 
ATOM     13  N   UNL     1      47.932   1.464   6.611  0.00  0.00    +0.000 NA
ATOM     14  C   UNL     1      47.490   2.675   6.211  0.00  0.00    +0.000 A 
ATOM     15  C   UNL     1      46.367   3.291   6.732  0.00  0.00    +0.000 A 
ENDBRANCH   9  10
ENDBRANCH   6   9
ENDBRANCH   2   3
BRANCH   2  16
ATOM     16  N   UNL     1      45.812   6.885  13.347  0.00  0.00    +0.000 N 
ATOM     17  C   UNL     1      47.163   7.098  13.287  0.00  0.00    +0.000 C 
ATOM     18  O   UNL     1      47.678   7.646  12.310  0.00  0.00    +0.000 OA
ATOM     19  H   UNL     1      45.397   6.373  14.124  0.00  0.00    +0.000 HD
BRANCH  17  20
ATOM     20  C   UNL     1      47.979   6.660  14.429  0.00  0.00    +0.000 A 
ATOM     21  C   UNL     1      48.991   7.493  14.895  0.00  0.00    +0.000 A 
ATOM     22  S   UNL     1      49.866   6.855  16.209  0.00  0.00    +0.000 S 
ATOM     23  C   UNL     1      48.938   5.430  16.203  0.00  0.00    +0.000 A 
ATOM     24  N   UNL     1      49.202   4.427  17.083  0.00  0.00    +0.000 NA
ATOM     25  C   UNL     1      48.435   3.397  16.964  0.00  0.00    +0.000 A 
ATOM     26  N   UNL     1      47.412   3.287  16.058  0.00  0.00    +0.000 N 
ATOM     27  C   UNL     1      47.086   4.290  15.175  0.00  0.00    +0.000 A 
ATOM     28  O   UNL     1      46.130   4.175  14.417  0.00  0.00    +0.000 OA
ATOM     29  C   UNL     1      47.951   5.455  15.231  0.00  0.00    +0.000 A 
ATOM     30  H   UNL     1      46.835   2.460  16.025  0.00  0.00    +0.000 HD
ENDBRANCH  17  20
ENDBRANCH   2  16
TORSDOF 5
ENDMDL
MODEL 4
REMARK VINA RESULT:    -7.887      1.795      2.355
REMARK INTER + INTRA:         -10.710
REMARK INTER:                 -10.544
REMARK INTRA:                  -0.166
REMARK UNBOUND:                -0.518
REMARK  Name = 
REMARK  6 active torsions:
REMARK  status: ('A' for Active; 'I' for Inactive)
REMARK    1  A    between atoms: C_1  and  C_2
REMARK    2  A    between atoms: C_2  and  N_3
REMARK    3  A    between atoms: C_2  and  C_16
REMARK    4  A    between atoms: C_4  and  C_6
REMARK    5  A    between atoms: C_19  and  O_20
REMARK    6  A    between atoms: O_20  and  C_21
REMARK                            x       y       z     vdW  Elec       q    Type
REMARK                         _______ _______ _______ _____ _____    ______ ____
ROOT
ATOM      1  C   UNL     1      46.317   7.840  12.486  0.00  0.00    +0.000 C 
ATOM      2  C   UNL     1      45.436   6.635  12.827  0.00  0.00    +0.000 C 
ENDROOT
BRANCH   2   3
ATOM      3  C   UNL     1      45.266   5.719  11.620  0.00  0.00    +0.000 A 
ATOM      4  C   UNL     1      45.902   6.027  10.418  0.00  0.00    +0.000 A 
ATOM      5  C   UNL     1      45.730   5.179   9.323  0.00  0.00    +0.000 A 
ATOM      6  C   UNL     1      44.890   4.075   9.435  0.00  0.00    +0.000 A 
ATOM      7  C   UNL     1      44.295   3.841  10.664  0.00  0.00    +0.000 A 
ATOM      8  N   UNL     1      44.451   4.639  11.746  0.00  0.00    +0.000 NA
BRANCH   6   9
ATOM      9  O   UNL     1      44.655   3.167   8.431  0.00  0.00    +0.000 OA
BRANCH   9  10
ATOM     10  C   UNL     1      45.722   2.611   7.764  0.00  0.00    +0.000 A 
ATOM     11  C   UNL     1      46.126   1.347   8.179  0.00  0.00    +0.000 A 
ATOM     12  C   UNL     1      47.208   0.767   7.539  0.00  0.00    +0.000 A 
ATOM     13  N   UNL     1      47.889   1.355   6.533  0.00  0.00    +0.000 NA
ATOM     14  C   UNL     1      47.450   2.564   6.126  0.00  0.00    +0.000 A 
ATOM     15  C   UNL     1      46.366   3.214   6.686  0.00  0.00    +0.000 A 
ENDBRANCH   9  10
ENDBRANCH   6   9
ENDBRANCH   2   3
BRANCH   2  16
ATOM     16  N   UNL     1      45.988   5.890  13.948  0.00  0.00    +0.000 N 
ATOM     17  C   UNL     1      47.309   5.540  14.033  0.00  0.00    +0.000 C 
ATOM     18  O   UNL     1      48.111   5.864  13.154  0.00  0.00    +0.000 OA
ATOM     19  H   UNL     1      45.315   5.565  14.640  0.00  0.00    +0.000 HD
BRANCH  17  20
ATOM     20  C   UNL     1      47.742   4.771  15.209  0.00  0.00    +0.000 A 
ATOM     21  C   UNL     1      47.553   3.393  15.223  0.00  0.00    +0.000 A 
ATOM     22  S   UNL     1      48.085   2.633  16.651  0.00  0.00    +0.000 S 
ATOM     23  C   UNL     1      48.580   4.117  17.318  0.00  0.00    +0.000 A 
ATOM     24  N   UNL     1      49.107   4.172  18.571  0.00  0.00    +0.000 NA
ATOM     25  C   UNL     1      49.429   5.358  18.963  0.00  0.00    +0.000 A 
ATOM     26  N   UNL     1      49.290   6.493  18.207  0.00  0.00    +0.000 N 
ATOM     27  C   UNL     1      48.797   6.479  16.923  0.00  0.00    +0.000 A 
ATOM     28  O   UNL     1      48.740   7.509  16.260  0.00  0.00    +0.000 OA
ATOM     29  C   UNL     1      48.372   5.175  16.449  0.00  0.00    +0.000 A 
ATOM     30  H   UNL     1      49.576   7.392  18.564  0.00  0.00    +0.000 HD
ENDBRANCH  17  20
ENDBRANCH   2  16
TORSDOF 5
ENDMDL
MODEL 5
REMARK VINA RESULT:    -7.574      1.893      2.841
REMARK INTER + INTRA:         -10.306
REMARK INTER:                 -10.452
REMARK INTRA:                   0.145
REMARK UNBOUND:                -0.518
REMARK  Name = 
REMARK  6 active torsions:
REMARK  status: ('A' for Active; 'I' for Inactive)
REMARK    1  A    between atoms: C_1  and  C_2
REMARK    2  A    between atoms: C_2  and  N_3
REMARK    3  A    between atoms: C_2  and  C_16
REMARK    4  A    between atoms: C_4  and  C_6
REMARK    5  A    between atoms: C_19  and  O_20
REMARK    6  A    between atoms: O_20  and  C_21
REMARK                            x       y       z     vdW  Elec       q    Type
REMARK                         _______ _______ _______ _____ _____    ______ ____
ROOT
ATOM      1  C   UNL     1      47.459   8.676  12.114  0.00  0.00    +0.000 C 
ATOM      2  C   UNL     1      46.431   7.884  12.926  0.00  0.00    +0.000 C 
ENDROOT
BRANCH   2   3
ATOM      3  C   UNL     1      45.818   6.763  12.095  0.00  0.00    +0.000 A 
ATOM      4  C   UNL     1      44.827   5.951  12.646  0.00  0.00    +0.000 A 
ATOM      5  C   UNL     1      44.282   4.926  11.871  0.00  0.00    +0.000 A 
ATOM      6  C   UNL     1      44.770   4.702  10.587  0.00  0.00    +0.000 A 
ATOM      7  C   UNL     1      45.756   5.553  10.116  0.00  0.00    +0.000 A 
ATOM      8  N   UNL     1      46.297   6.561  10.840  0.00  0.00    +0.000 NA
BRANCH   6   9
ATOM      9  O   UNL     1      44.303   3.734   9.732  0.00  0.00    +0.000 OA
BRANCH   9  10
ATOM     10  C   UNL     1      45.157   3.195   8.798  0.00  0.00    +0.000 A 
ATOM     11  C   UNL     1      45.462   1.845   8.936  0.00  0.00    +0.000 A 
ATOM     12  C   UNL     1      46.332   1.277   8.021  0.00  0.00    +0.000 A 
ATOM     13  N   UNL     1      46.897   1.956   7.001  0.00  0.00    +0.000 NA
ATOM     14  C   UNL     1      46.552   3.254   6.868  0.00  0.00    +0.000 A 
ATOM     15  C   UNL     1      45.675   3.904   7.716  0.00  0.00    +0.000 A 
ENDBRANCH   9  10
ENDBRANCH   6   9
ENDBRANCH   2   3
BRANCH   2  16
ATOM     16  N   UNL     1      47.032   7.342  14.135  0.00  0.00    +0.000 N 
ATOM     17  C   UNL     1      48.241   6.701  14.143  0.00  0.00    +0.000 C 
ATOM     18  O   UNL     1      48.899   6.570  13.109  0.00  0.00    +0.000 OA
ATOM     19  H   UNL     1      46.459   7.391  14.976  0.00  0.00    +0.000 HD
BRANCH  17  20
ATOM     20  C   UNL     1      48.735   6.181  15.427  0.00  0.00    +0.000 A 
ATOM     21  C   UNL     1      49.822   6.802  16.034  0.00  0.00    +0.000 A 
ATOM     22  S   UNL     1      50.297   6.088  17.505  0.00  0.00    +0.000 S 
ATOM     23  C   UNL     1      49.077   4.910  17.388  0.00  0.00    +0.000 A 
ATOM     24  N   UNL     1      48.954   3.943  18.337  0.00  0.00    +0.000 NA
ATOM     25  C   UNL     1      47.998   3.104  18.123  0.00  0.00    +0.000 A 
ATOM     26  N   UNL     1      47.140   3.155  17.054  0.00  0.00    +0.000 N 
ATOM     27  C   UNL     1      47.206   4.134  16.091  0.00  0.00    +0.000 A 
ATOM     28  O   UNL     1      46.386   4.177  15.181  0.00  0.00    +0.000 OA
ATOM     29  C   UNL     1      48.296   5.078  16.256  0.00  0.00    +0.000 A 
ATOM     30  H   UNL     1      46.400   2.477  16.950  0.00  0.00    +0.000 HD
ENDBRANCH  17  20
ENDBRANCH   2  16
TORSDOF 5
ENDMDL
MODEL 6
REMARK VINA RESULT:    -7.569      3.613      6.121
REMARK INTER + INTRA:         -10.300
REMARK INTER:                  -9.234
REMARK INTRA:                  -1.066
REMARK UNBOUND:                -0.518
REMARK  Name = 
REMARK  6 active torsions:
REMARK  status: ('A' for Active; 'I' for Inactive)
REMARK    1  A    between atoms: C_1  and  C_2
REMARK    2  A    between atoms: C_2  and  N_3
REMARK    3  A    between atoms: C_2  and  C_16
REMARK    4  A    between atoms: C_4  and  C_6
REMARK    5  A    between atoms: C_19  and  O_20
REMARK    6  A    between atoms: O_20  and  C_21
REMARK                            x       y       z     vdW  Elec       q    Type
REMARK                         _______ _______ _______ _____ _____    ______ ____
ROOT
ATOM      1  C   UNL     1      50.078   7.737  15.336  0.00  0.00    +0.000 C 
ATOM      2  C   UNL     1      49.429   6.624  16.161  0.00  0.00    +0.000 C 
ENDROOT
BRANCH   2   3
ATOM      3  C   UNL     1      48.415   5.844  15.332  0.00  0.00    +0.000 A 
ATOM      4  C   UNL     1      47.979   6.352  14.109  0.00  0.00    +0.000 A 
ATOM      5  C   UNL     1      47.047   5.626  13.366  0.00  0.00    +0.000 A 
ATOM      6  C   UNL     1      46.533   4.439  13.881  0.00  0.00    +0.000 A 
ATOM      7  C   UNL     1      47.018   4.005  15.104  0.00  0.00    +0.000 A 
ATOM      8  N   UNL     1      47.929   4.682  15.841  0.00  0.00    +0.000 NA
BRANCH   6   9
ATOM      9  O   UNL     1      45.623   3.637  13.237  0.00  0.00    +0.000 OA
BRANCH   9  10
ATOM     10  C   UNL     1      44.631   4.219  12.481  0.00  0.00    +0.000 A 
ATOM     11  C   UNL     1      44.756   4.112  11.100  0.00  0.00    +0.000 A 
ATOM     12  C   UNL     1      43.784   4.702  10.311  0.00  0.00    +0.000 A 
ATOM     13  N   UNL     1      42.719   5.369  10.804  0.00  0.00    +0.000 NA
ATOM     14  C   UNL     1      42.603   5.423  12.148  0.00  0.00    +0.000 A 
ATOM     15  C   UNL     1      43.510   4.846  13.019  0.00  0.00    +0.000 A 
ENDBRANCH   9  10
ENDBRANCH   6   9
ENDBRANCH   2   3
BRANCH   2  16
ATOM     16  N   UNL     1      50.436   5.723  16.699  0.00  0.00    +0.000 N 
ATOM     17  C   UNL     1      50.544   5.438  18.034  0.00  0.00    +0.000 C 
ATOM     18  O   UNL     1      49.762   5.925  18.854  0.00  0.00    +0.000 OA
ATOM     19  H   UNL     1      51.122   5.373  16.033  0.00  0.00    +0.000 HD
BRANCH  17  20
ATOM     20  C   UNL     1      51.616   4.526  18.458  0.00  0.00    +0.000 A 
ATOM     21  C   UNL     1      52.602   4.996  19.319  0.00  0.00    +0.000 A 
ATOM     22  S   UNL     1      53.788   3.840  19.714  0.00  0.00    +0.000 S 
ATOM     23  C   UNL     1      53.041   2.663  18.741  0.00  0.00    +0.000 A 
ATOM     24  N   UNL     1      53.586   1.424  18.610  0.00  0.00    +0.000 NA
ATOM     25  C   UNL     1      52.928   0.631  17.832  0.00  0.00    +0.000 A 
ATOM     26  N   UNL     1      51.763   0.960  17.189  0.00  0.00    +0.000 N 
ATOM     27  C   UNL     1      51.158   2.188  17.321  0.00  0.00    +0.000 A 
ATOM     28  O   UNL     1      50.088   2.424  16.773  0.00  0.00    +0.000 OA
ATOM     29  C   UNL     1      51.882   3.137  18.147  0.00  0.00    +0.000 A 
ATOM     30  H   UNL     1      51.286   0.289  16.606  0.00  0.00    +0.000 HD
ENDBRANCH  17  20
ENDBRANCH   2  16
TORSDOF 5
ENDMDL
MODEL 7
REMARK VINA RESULT:    -7.239      3.952      8.491
REMARK INTER + INTRA:          -9.874
REMARK INTER:                  -8.757
REMARK INTRA:                  -1.117
REMARK UNBOUND:                -0.518
REMARK  Name = 
REMARK  6 active torsions:
REMARK  status: ('A' for Active; 'I' for Inactive)
REMARK    1  A    between atoms: C_1  and  C_2
REMARK    2  A    between atoms: C_2  and  N_3
REMARK    3  A    between atoms: C_2  and  C_16
REMARK    4  A    between atoms: C_4  and  C_6
REMARK    5  A    between atoms: C_19  and  O_20
REMARK    6  A    between atoms: O_20  and  C_21
REMARK                            x       y       z     vdW  Elec       q    Type
REMARK                         _______ _______ _______ _____ _____    ______ ____
ROOT
ATOM      1  C   UNL     1      48.246   8.898  15.002  0.00  0.00    +0.000 C 
ATOM      2  C   UNL     1      48.486   7.489  14.455  0.00  0.00    +0.000 C 
ENDROOT
BRANCH   2   3
ATOM      3  C   UNL     1      49.035   6.564  15.536  0.00  0.00    +0.000 A 
ATOM      4  C   UNL     1      50.305   6.790  16.064  0.00  0.00    +0.000 A 
ATOM      5  C   UNL     1      50.793   5.931  17.049  0.00  0.00    +0.000 A 
ATOM      6  C   UNL     1      50.027   4.838  17.448  0.00  0.00    +0.000 A 
ATOM      7  C   UNL     1      48.777   4.685  16.872  0.00  0.00    +0.000 A 
ATOM      8  N   UNL     1      48.273   5.508  15.923  0.00  0.00    +0.000 NA
BRANCH   6   9
ATOM      9  O   UNL     1      50.398   3.935  18.413  0.00  0.00    +0.000 OA
BRANCH   9  10
ATOM     10  C   UNL     1      51.447   3.079  18.165  0.00  0.00    +0.000 A 
ATOM     11  C   UNL     1      51.140   1.886  17.522  0.00  0.00    +0.000 A 
ATOM     12  C   UNL     1      52.170   0.996  17.273  0.00  0.00    +0.000 A 
ATOM     13  N   UNL     1      53.456   1.222  17.614  0.00  0.00    +0.000 NA
ATOM     14  C   UNL     1      53.731   2.406  18.201  0.00  0.00    +0.000 A 
ATOM     15  C   UNL     1      52.775   3.368  18.471  0.00  0.00    +0.000 A 
ENDBRANCH   9  10
ENDBRANCH   6   9
ENDBRANCH   2   3
BRANCH   2  16
ATOM     16  N   UNL     1      47.263   6.935  13.894  0.00  0.00    +0.000 N 
ATOM     17  C   UNL     1      46.983   6.953  12.554  0.00  0.00    +0.000 C 
ATOM     18  O   UNL     1      47.780   7.430  11.744  0.00  0.00    +0.000 OA
ATOM     19  H   UNL     1      46.576   6.601  14.568  0.00  0.00    +0.000 HD
BRANCH  17  20
ATOM     20  C   UNL     1      45.704   6.378  12.112  0.00  0.00    +0.000 A 
ATOM     21  C   UNL     1      44.782   7.196  11.467  0.00  0.00    +0.000 A 
ATOM     22  S   UNL     1      43.341   6.404  11.024  0.00  0.00    +0.000 S 
ATOM     23  C   UNL     1      43.883   4.935  11.687  0.00  0.00    +0.000 A 
ATOM     24  N   UNL     1      43.088   3.831  11.668  0.00  0.00    +0.000 NA
ATOM     25  C   UNL     1      43.612   2.787  12.215  0.00  0.00    +0.000 A 
ATOM     26  N   UNL     1      44.869   2.741  12.761  0.00  0.00    +0.000 N 
ATOM     27  C   UNL     1      45.719   3.821  12.770  0.00  0.00    +0.000 A 
ATOM     28  O   UNL     1      46.856   3.724  13.219  0.00  0.00    +0.000 OA
ATOM     29  C   UNL     1      45.161   5.039  12.211  0.00  0.00    +0.000 A 
ATOM     30  H   UNL     1      45.230   1.887  13.160  0.00  0.00    +0.000 HD
ENDBRANCH  17  20
ENDBRANCH   2  16
TORSDOF 5
ENDMDL
MODEL 8
REMARK VINA RESULT:    -7.239      2.936      3.952
REMARK INTER + INTRA:          -9.873
REMARK INTER:                  -8.933
REMARK INTRA:                  -0.941
REMARK UNBOUND:                -0.518
REMARK  Name = 
REMARK  6 active torsions:
REMARK  status: ('A' for Active; 'I' for Inactive)
REMARK    1  A    between atoms: C_1  and  C_2
REMARK    2  A    between atoms: C_2  and  N_3
REMARK    3  A    between atoms: C_2  and  C_16
REMARK    4  A    between atoms: C_4  and  C_6
REMARK    5  A    between atoms: C_19  and  O_20
REMARK    6  A    between atoms: O_20  and  C_21
REMARK                            x       y       z     vdW  Elec       q    Type
REMARK                         _______ _______ _______ _____ _____    ______ ____
ROOT
ATOM      1  C   UNL     1      47.148   4.024  16.349  0.00  0.00    +0.000 C 
ATOM      2  C   UNL     1      47.698   4.856  15.188  0.00  0.00    +0.000 C 
ENDROOT
BRANCH   2   3
ATOM      3  C   UNL     1      46.858   4.668  13.930  0.00  0.00    +0.000 A 
ATOM      4  C   UNL     1      46.512   5.773  13.154  0.00  0.00    +0.000 A 
ATOM      5  C   UNL     1      45.738   5.583  12.008  0.00  0.00    +0.000 A 
ATOM      6  C   UNL     1      45.285   4.305  11.690  0.00  0.00    +0.000 A 
ATOM      7  C   UNL     1      45.673   3.261  12.515  0.00  0.00    +0.000 A 
ATOM      8  N   UNL     1      46.431   3.415  13.625  0.00  0.00    +0.000 NA
BRANCH   6   9
ATOM      9  O   UNL     1      44.530   3.996  10.586  0.00  0.00    +0.000 OA
BRANCH   9  10
ATOM     10  C   UNL     1      45.156   3.526   9.454  0.00  0.00    +0.000 A 
ATOM     11  C   UNL     1      45.228   2.145   9.308  0.00  0.00    +0.000 A 
ATOM     12  C   UNL     1      45.866   1.641   8.189  0.00  0.00    +0.000 A 
ATOM     13  N   UNL     1      46.417   2.412   7.228  0.00  0.00    +0.000 NA
ATOM     14  C   UNL     1      46.298   3.748   7.375  0.00  0.00    +0.000 A 
ATOM     15  C   UNL     1      45.659   4.346   8.446  0.00  0.00    +0.000 A 
ENDBRANCH   9  10
ENDBRANCH   6   9
ENDBRANCH   2   3
BRANCH   2  16
ATOM     16  N   UNL     1      47.761   6.265  15.544  0.00  0.00    +0.000 N 
ATOM     17  C   UNL     1      48.937   6.915  15.806  0.00  0.00    +0.000 C 
ATOM     18  O   UNL     1      50.020   6.329  15.729  0.00  0.00    +0.000 OA
ATOM     19  H   UNL     1      46.865   6.732  15.672  0.00  0.00    +0.000 HD
BRANCH  17  20
ATOM     20  C   UNL     1      48.869   8.337  16.173  0.00  0.00    +0.000 A 
ATOM     21  C   UNL     1      49.377   9.287  15.292  0.00  0.00    +0.000 A 
ATOM     22  S   UNL     1      49.248  10.891  15.850  0.00  0.00    +0.000 S 
ATOM     23  C   UNL     1      48.519  10.383  17.299  0.00  0.00    +0.000 A 
ATOM     24  N   UNL     1      48.179  11.287  18.257  0.00  0.00    +0.000 NA
ATOM     25  C   UNL     1      47.646  10.771  19.313  0.00  0.00    +0.000 A 
ATOM     26  N   UNL     1      47.405   9.433  19.489  0.00  0.00    +0.000 N 
ATOM     27  C   UNL     1      47.699   8.489  18.534  0.00  0.00    +0.000 A 
ATOM     28  O   UNL     1      47.417   7.309  18.708  0.00  0.00    +0.000 OA
ATOM     29  C   UNL     1      48.346   9.009  17.344  0.00  0.00    +0.000 A 
ATOM     30  H   UNL     1      46.970   9.092  20.333  0.00  0.00    +0.000 HD
ENDBRANCH  17  20
ENDBRANCH   2  16
TORSDOF 5
ENDMDL
MODEL 9
REMARK VINA RESULT:    -7.173      3.155      4.743
REMARK INTER + INTRA:          -9.788
REMARK INTER:                  -8.922
REMARK INTRA:                  -0.866
REMARK UNBOUND:                -0.518
REMARK  Name = 
REMARK  6 active torsions:
REMARK  status: ('A' for Active; 'I' for Inactive)
REMARK    1  A    between atoms: C_1  and  C_2
REMARK    2  A    between atoms: C_2  and  N_3
REMARK    3  A    between atoms: C_2  and  C_16
REMARK    4  A    between atoms: C_4  and  C_6
REMARK    5  A    between atoms: C_19  and  O_20
REMARK    6  A    between atoms: O_20  and  C_21
REMARK                            x       y       z     vdW  Elec       q    Type
REMARK                         _______ _______ _______ _____ _____    ______ ____
ROOT
ATOM      1  C   UNL     1      47.521   3.396  16.539  0.00  0.00    +0.000 C 
ATOM      2  C   UNL     1      47.928   4.705  15.858  0.00  0.00    +0.000 C 
ENDROOT
BRANCH   2   3
ATOM      3  C   UNL     1      47.130   4.932  14.580  0.00  0.00    +0.000 A 
ATOM      4  C   UNL     1      47.523   5.923  13.681  0.00  0.00    +0.000 A 
ATOM      5  C   UNL     1      46.777   6.119  12.518  0.00  0.00    +0.000 A 
ATOM      6  C   UNL     1      45.629   5.362  12.303  0.00  0.00    +0.000 A 
ATOM      7  C   UNL     1      45.307   4.399  13.246  0.00  0.00    +0.000 A 
ATOM      8  N   UNL     1      46.017   4.179  14.377  0.00  0.00    +0.000 NA
BRANCH   6   9
ATOM      9  O   UNL     1      44.825   5.459  11.194  0.00  0.00    +0.000 OA
BRANCH   9  10
ATOM     10  C   UNL     1      44.953   4.530  10.188  0.00  0.00    +0.000 A 
ATOM     11  C   UNL     1      45.736   4.893   9.098  0.00  0.00    +0.000 A 
ATOM     12  C   UNL     1      45.871   3.986   8.061  0.00  0.00    +0.000 A 
ATOM     13  N   UNL     1      45.290   2.768   8.050  0.00  0.00    +0.000 NA
ATOM     14  C   UNL     1      44.568   2.426   9.137  0.00  0.00    +0.000 A 
ATOM     15  C   UNL     1      44.394   3.254  10.232  0.00  0.00    +0.000 A 
ENDBRANCH   9  10
ENDBRANCH   6   9
ENDBRANCH   2   3
BRANCH   2  16
ATOM     16  N   UNL     1      47.762   5.833  16.761  0.00  0.00    +0.000 N 
ATOM     17  C   UNL     1      48.686   6.167  17.714  0.00  0.00    +0.000 C 
ATOM     18  O   UNL     1      49.733   5.527  17.838  0.00  0.00    +0.000 OA
ATOM     19  H   UNL     1      46.869   6.320  16.704  0.00  0.00    +0.000 HD
BRANCH  17  20
ATOM     20  C   UNL     1      48.395   7.319  18.580  0.00  0.00    +0.000 A 
ATOM     21  C   UNL     1      48.341   7.133  19.957  0.00  0.00    +0.000 A 
ATOM     22  S   UNL     1      47.980   8.546  20.836  0.00  0.00    +0.000 S 
ATOM     23  C   UNL     1      47.868   9.466  19.411  0.00  0.00    +0.000 A 
ATOM     24  N   UNL     1      47.543  10.786  19.462  0.00  0.00    +0.000 NA
ATOM     25  C   UNL     1      47.478  11.365  18.310  0.00  0.00    +0.000 A 
ATOM     26  N   UNL     1      47.728  10.747  17.113  0.00  0.00    +0.000 N 
ATOM     27  C   UNL     1      48.094   9.425  17.017  0.00  0.00    +0.000 A 
ATOM     28  O   UNL     1      48.362   8.924  15.931  0.00  0.00    +0.000 OA
ATOM     29  C   UNL     1      48.135   8.712  18.280  0.00  0.00    +0.000 A 
ATOM     30  H   UNL     1      47.676  11.259  16.244  0.00  0.00    +0.000 HD
ENDBRANCH  17  20
ENDBRANCH   2  16
TORSDOF 5
ENDMDL
