MODEL 1
REMARK VINA RESULT:    -9.138      0.000      0.000
REMARK INTER + INTRA:         -13.219
REMARK INTER:                 -12.076
REMARK INTRA:                  -1.142
REMARK UNBOUND:                -1.142
REMARK  Name = 
REMARK  9 active torsions:
REMARK  status: ('A' for Active; 'I' for Inactive)
REMARK    1  A    between atoms: C_1  and  C_2
REMARK    2  A    between atoms: C_4  and  C_5
REMARK    3  A    between atoms: C_5  and  C_6
REMARK    4  A    between atoms: C_5  and  C_7
REMARK    5  A    between atoms: C_5  and  C_8
REMARK    6  A    between atoms: C_8  and  N_9
REMARK    7  A    between atoms: C_14  and  C_15
REMARK    8  A    between atoms: C_18  and  O_19
REMARK    9  A    between atoms: C_25  and  C_26
REMARK                            x       y       z     vdW  Elec       q    Type
REMARK                         _______ _______ _______ _____ _____    ______ ____
ROOT
ATOM      1  C   UNL     1      45.246   4.567  12.096  0.00  0.00    +0.000 C 
ENDROOT
BRANCH   1   2
ATOM      2  N   UNL     1      46.033   5.745  11.677  0.00  0.00    +0.000 N 
ATOM      3  C   UNL     1      47.001   6.143  12.626  0.00  0.00    +0.000 A 
ATOM      4  C   UNL     1      47.801   7.240  12.320  0.00  0.00    +0.000 A 
ATOM      5  C   UNL     1      48.748   7.673  13.239  0.00  0.00    +0.000 A 
ATOM      6  C   UNL     1      48.868   7.002  14.450  0.00  0.00    +0.000 A 
ATOM      7  C   UNL     1      48.043   5.907  14.705  0.00  0.00    +0.000 A 
ATOM      8  N   UNL     1      47.130   5.484  13.795  0.00  0.00    +0.000 NA
ATOM      9  H   UNL     1      45.449   6.556  11.498  0.00  0.00    +0.000 HD
BRANCH   7  10
ATOM     10  C   UNL     1      48.052   5.188  15.999  0.00  0.00    +0.000 A 
ATOM     11  C   UNL     1      48.902   5.598  17.046  0.00  0.00    +0.000 A 
ATOM     12  C   UNL     1      49.000   4.874  18.240  0.00  0.00    +0.000 A 
ATOM     13  C   UNL     1      48.234   3.728  18.406  0.00  0.00    +0.000 A 
ATOM     14  C   UNL     1      47.354   3.318  17.416  0.00  0.00    +0.000 A 
ATOM     15  C   UNL     1      47.257   4.048  16.228  0.00  0.00    +0.000 A 
BRANCH  13  16
ATOM     16  O   UNL     1      48.318   2.970  19.535  0.00  0.00    +0.000 OA
ATOM     17  H   UNL     1      49.222   3.032  19.879  0.00  0.00    +0.000 HD
ENDBRANCH  13  16
ENDBRANCH   7  10
ENDBRANCH   1   2
BRANCH   1  18
ATOM     18  C   UNL     1      44.260   4.069  10.989  0.00  0.00    +0.000 C 
ATOM     19  C   UNL     1      43.256   5.192  10.650  0.00  0.00    +0.000 C 
ATOM     20  C   UNL     1      43.496   2.825  11.499  0.00  0.00    +0.000 C 
BRANCH  18  24
ATOM     21  C   UNL     1      46.301   0.555   7.961  0.00  0.00    +0.000 C 
ATOM     22  C   UNL     1      46.034   2.007   8.246  0.00  0.00    +0.000 A 
ATOM     23  C   UNL     1      45.300   2.346   9.399  0.00  0.00    +0.000 A 
ATOM     24  C   UNL     1      45.040   3.683   9.712  0.00  0.00    +0.000 A 
ATOM     25  N   UNL     1      45.485   4.679   8.911  0.00  0.00    +0.000 NA
ATOM     26  C   UNL     1      46.191   4.342   7.799  0.00  0.00    +0.000 A 
ATOM     27  C   UNL     1      46.487   3.040   7.414  0.00  0.00    +0.000 A 
BRANCH  27  28
ATOM     28  C   UNL     1      47.292   2.788   6.186  0.00  0.00    +0.000 C 
ATOM     29  N   UNL     1      48.622   2.504   6.339  0.00  0.00    +0.000 N 
ATOM     30  O   UNL     1      46.811   2.837   5.063  0.00  0.00    +0.000 OA
ATOM     31  H   UNL     1      49.134   2.628   7.201  0.00  0.00    +0.000 HD
ATOM     32  H   UNL     1      49.160   2.422   5.484  0.00  0.00    +0.000 HD
ENDBRANCH  27  28
ENDBRANCH  18  24
ENDBRANCH   1  18
TORSDOF 6
ENDMDL
MODEL 2
REMARK VINA RESULT:    -8.821      1.632      8.284
REMARK INTER + INTRA:         -12.800
REMARK INTER:                 -11.559
REMARK INTRA:                  -1.240
REMARK UNBOUND:                -1.142
REMARK  Name = 
REMARK  9 active torsions:
REMARK  status: ('A' for Active; 'I' for Inactive)
REMARK    1  A    between atoms: C_1  and  C_2
REMARK    2  A    between atoms: C_4  and  C_5
REMARK    3  A    between atoms: C_5  and  C_6
REMARK    4  A    between atoms: C_5  and  C_7
REMARK    5  A    between atoms: C_5  and  C_8
REMARK    6  A    between atoms: C_8  and  N_9
REMARK    7  A    between atoms: C_14  and  C_15
REMARK    8  A    between atoms: C_18  and  O_19
REMARK    9  A    between atoms: C_25  and  C_26
REMARK                            x       y       z     vdW  Elec       q    Type
REMARK                         _______ _______ _______ _____ _____    ______ ____
ROOT
ATOM      1  C   UNL     1      47.191   7.175  11.653  0.00  0.00    +0.000 C 
ENDROOT
BRANCH   1   2
ATOM      2  N   UNL     1      45.764   7.160  12.036  0.00  0.00    +0.000 N 
ATOM      3  C   UNL     1      45.021   6.136  11.408  0.00  0.00    +0.000 A 
ATOM      4  C   UNL     1      43.667   6.033  11.711  0.00  0.00    +0.000 A 
ATOM      5  C   UNL     1      42.901   5.051  11.095  0.00  0.00    +0.000 A 
ATOM      6  C   UNL     1      43.508   4.198  10.182  0.00  0.00    +0.000 A 
ATOM      7  C   UNL     1      44.869   4.343   9.917  0.00  0.00    +0.000 A 
ATOM      8  N   UNL     1      45.612   5.297  10.533  0.00  0.00    +0.000 NA
ATOM      9  H   UNL     1      45.297   8.035  11.818  0.00  0.00    +0.000 HD
BRANCH   7  10
ATOM     10  C   UNL     1      45.573   3.528   8.900  0.00  0.00    +0.000 A 
ATOM     11  C   UNL     1      45.538   2.120   8.953  0.00  0.00    +0.000 A 
ATOM     12  C   UNL     1      46.277   1.332   8.064  0.00  0.00    +0.000 A 
ATOM     13  C   UNL     1      47.058   1.948   7.095  0.00  0.00    +0.000 A 
ATOM     14  C   UNL     1      47.083   3.330   6.983  0.00  0.00    +0.000 A 
ATOM     15  C   UNL     1      46.339   4.112   7.872  0.00  0.00    +0.000 A 
BRANCH  13  16
ATOM     16  O   UNL     1      47.822   1.227   6.228  0.00  0.00    +0.000 OA
ATOM     17  H   UNL     1      47.710   1.599   5.339  0.00  0.00    +0.000 HD
ENDBRANCH  13  16
ENDBRANCH   7  10
ENDBRANCH   1   2
BRANCH   1  18
ATOM     18  C   UNL     1      48.141   7.490  12.855  0.00  0.00    +0.000 C 
ATOM     19  C   UNL     1      47.786   8.872  13.443  0.00  0.00    +0.000 C 
ATOM     20  C   UNL     1      49.608   7.493  12.367  0.00  0.00    +0.000 C 
BRANCH  18  24
ATOM     21  C   UNL     1      48.912   5.896  17.603  0.00  0.00    +0.000 C 
ATOM     22  C   UNL     1      48.354   5.629  16.233  0.00  0.00    +0.000 A 
ATOM     23  C   UNL     1      48.477   6.625  15.246  0.00  0.00    +0.000 A 
ATOM     24  C   UNL     1      47.986   6.416  13.954  0.00  0.00    +0.000 A 
ATOM     25  N   UNL     1      47.378   5.251  13.628  0.00  0.00    +0.000 NA
ATOM     26  C   UNL     1      47.262   4.296  14.588  0.00  0.00    +0.000 A 
ATOM     27  C   UNL     1      47.716   4.427  15.894  0.00  0.00    +0.000 A 
BRANCH  27  28
ATOM     28  C   UNL     1      47.558   3.303  16.858  0.00  0.00    +0.000 C 
ATOM     29  N   UNL     1      48.630   2.475  17.060  0.00  0.00    +0.000 N 
ATOM     30  O   UNL     1      46.512   3.092  17.457  0.00  0.00    +0.000 OA
ATOM     31  H   UNL     1      49.454   2.461  16.476  0.00  0.00    +0.000 HD
ATOM     32  H   UNL     1      48.464   1.671  17.654  0.00  0.00    +0.000 HD
ENDBRANCH  27  28
ENDBRANCH  18  24
ENDBRANCH   1  18
TORSDOF 6
ENDMDL
MODEL 3
REMARK VINA RESULT:    -8.106      1.623      8.689
REMARK INTER + INTRA:         -11.855
REMARK INTER:                 -10.664
REMARK INTRA:                  -1.192
REMARK UNBOUND:                -1.142
REMARK  Name = 
REMARK  9 active torsions:
REMARK  status: ('A' for Active; 'I' for Inactive)
REMARK    1  A    between atoms: C_1  and  C_2
REMARK    2  A    between atoms: C_4  and  C_5
REMARK    3  A    between atoms: C_5  and  C_6
REMARK    4  A    between atoms: C_5  and  C_7
REMARK    5  A    between atoms: C_5  and  C_8
REMARK    6  A    between atoms: C_8  and  N_9
REMARK    7  A    between atoms: C_14  and  C_15
REMARK    8  A    between atoms: C_18  and  O_19
REMARK    9  A    between atoms: C_25  and  C_26
REMARK                            x       y       z     vdW  Elec       q    Type
REMARK                         _______ _______ _______ _____ _____    ______ ____
ROOT
ATOM      1  C   UNL     1      47.212   6.622  12.559  0.00  0.00    +0.000 C 
ENDROOT
BRANCH   1   2
ATOM      2  N   UNL     1      45.794   6.662  12.971  0.00  0.00    +0.000 N 
ATOM      3  C   UNL     1      44.964   5.800  12.221  0.00  0.00    +0.000 A 
ATOM      4  C   UNL     1      43.610   5.759  12.539  0.00  0.00    +0.000 A 
ATOM      5  C   UNL     1      42.760   4.939  11.808  0.00  0.00    +0.000 A 
ATOM      6  C   UNL     1      43.285   4.183  10.767  0.00  0.00    +0.000 A 
ATOM      7  C   UNL     1      44.649   4.260  10.492  0.00  0.00    +0.000 A 
ATOM      8  N   UNL     1      45.474   5.054  11.221  0.00  0.00    +0.000 NA
ATOM      9  H   UNL     1      45.395   7.593  12.893  0.00  0.00    +0.000 HD
BRANCH   7  10
ATOM     10  C   UNL     1      45.273   3.549   9.352  0.00  0.00    +0.000 A 
ATOM     11  C   UNL     1      45.299   2.141   9.307  0.00  0.00    +0.000 A 
ATOM     12  C   UNL     1      45.969   1.450   8.292  0.00  0.00    +0.000 A 
ATOM     13  C   UNL     1      46.618   2.166   7.294  0.00  0.00    +0.000 A 
ATOM     14  C   UNL     1      46.577   3.552   7.280  0.00  0.00    +0.000 A 
ATOM     15  C   UNL     1      45.901   4.236   8.295  0.00  0.00    +0.000 A 
BRANCH  13  16
ATOM     16  O   UNL     1      47.314   1.542   6.303  0.00  0.00    +0.000 OA
ATOM     17  H   UNL     1      48.149   2.016   6.170  0.00  0.00    +0.000 HD
ENDBRANCH  13  16
ENDBRANCH   7  10
ENDBRANCH   1   2
BRANCH   1  18
ATOM     18  C   UNL     1      48.169   7.279  13.608  0.00  0.00    +0.000 C 
ATOM     19  C   UNL     1      47.582   8.631  14.066  0.00  0.00    +0.000 C 
ATOM     20  C   UNL     1      49.559   7.505  12.969  0.00  0.00    +0.000 C 
BRANCH  18  24
ATOM     21  C   UNL     1      50.394   6.161  18.022  0.00  0.00    +0.000 C 
ATOM     22  C   UNL     1      49.397   5.797  16.957  0.00  0.00    +0.000 A 
ATOM     23  C   UNL     1      49.237   6.659  15.856  0.00  0.00    +0.000 A 
ATOM     24  C   UNL     1      48.333   6.355  14.835  0.00  0.00    +0.000 A 
ATOM     25  N   UNL     1      47.589   5.225  14.887  0.00  0.00    +0.000 NA
ATOM     26  C   UNL     1      47.749   4.399  15.955  0.00  0.00    +0.000 A 
ATOM     27  C   UNL     1      48.619   4.631  17.012  0.00  0.00    +0.000 A 
BRANCH  27  28
ATOM     28  C   UNL     1      48.731   3.643  18.121  0.00  0.00    +0.000 C 
ATOM     29  N   UNL     1      47.967   3.844  19.239  0.00  0.00    +0.000 N 
ATOM     30  O   UNL     1      49.483   2.679  18.069  0.00  0.00    +0.000 OA
ATOM     31  H   UNL     1      47.471   4.700  19.442  0.00  0.00    +0.000 HD
ATOM     32  H   UNL     1      48.130   3.204  20.008  0.00  0.00    +0.000 HD
ENDBRANCH  27  28
ENDBRANCH  18  24
ENDBRANCH   1  18
TORSDOF 6
ENDMDL
MODEL 4
REMARK VINA RESULT:    -7.771      2.156      8.997
REMARK INTER + INTRA:         -11.412
REMARK INTER:                 -10.314
REMARK INTRA:                  -1.098
REMARK UNBOUND:                -1.142
REMARK  Name = 
REMARK  9 active torsions:
REMARK  status: ('A' for Active; 'I' for Inactive)
REMARK    1  A    between atoms: C_1  and  C_2
REMARK    2  A    between atoms: C_4  and  C_5
REMARK    3  A    between atoms: C_5  and  C_6
REMARK    4  A    between atoms: C_5  and  C_7
REMARK    5  A    between atoms: C_5  and  C_8
REMARK    6  A    between atoms: C_8  and  N_9
REMARK    7  A    between atoms: C_14  and  C_15
REMARK    8  A    between atoms: C_18  and  O_19
REMARK    9  A    between atoms: C_25  and  C_26
REMARK                            x       y       z     vdW  Elec       q    Type
REMARK                         _______ _______ _______ _____ _____    ______ ____
ROOT
ATOM      1  C   UNL     1      47.482   7.141  11.639  0.00  0.00    +0.000 C 
ENDROOT
BRANCH   1   2
ATOM      2  N   UNL     1      46.072   7.243  12.069  0.00  0.00    +0.000 N 
ATOM      3  C   UNL     1      45.230   6.278  11.476  0.00  0.00    +0.000 A 
ATOM      4  C   UNL     1      43.883   6.285  11.825  0.00  0.00    +0.000 A 
ATOM      5  C   UNL     1      43.021   5.364  11.243  0.00  0.00    +0.000 A 
ATOM      6  C   UNL     1      43.526   4.459  10.318  0.00  0.00    +0.000 A 
ATOM      7  C   UNL     1      44.885   4.493  10.007  0.00  0.00    +0.000 A 
ATOM      8  N   UNL     1      45.722   5.388  10.590  0.00  0.00    +0.000 NA
ATOM      9  H   UNL     1      45.669   8.151  11.859  0.00  0.00    +0.000 HD
BRANCH   7  10
ATOM     10  C   UNL     1      45.487   3.618   8.975  0.00  0.00    +0.000 A 
ATOM     11  C   UNL     1      45.444   2.215   9.104  0.00  0.00    +0.000 A 
ATOM     12  C   UNL     1      46.093   1.373   8.194  0.00  0.00    +0.000 A 
ATOM     13  C   UNL     1      46.789   1.928   7.129  0.00  0.00    +0.000 A 
ATOM     14  C   UNL     1      46.816   3.302   6.943  0.00  0.00    +0.000 A 
ATOM     15  C   UNL     1      46.162   4.138   7.854  0.00  0.00    +0.000 A 
BRANCH  13  16
ATOM     16  O   UNL     1      47.465   1.154   6.235  0.00  0.00    +0.000 OA
ATOM     17  H   UNL     1      47.662   0.302   6.654  0.00  0.00    +0.000 HD
ENDBRANCH  13  16
ENDBRANCH   7  10
ENDBRANCH   1   2
BRANCH   1  18
ATOM     18  C   UNL     1      48.410   8.188  12.339  0.00  0.00    +0.000 C 
ATOM     19  C   UNL     1      47.864   9.610  12.086  0.00  0.00    +0.000 C 
ATOM     20  C   UNL     1      49.842   8.072  11.770  0.00  0.00    +0.000 C 
BRANCH  18  24
ATOM     21  C   UNL     1      48.282   9.884  17.113  0.00  0.00    +0.000 C 
ATOM     22  C   UNL     1      48.406   8.724  16.165  0.00  0.00    +0.000 A 
ATOM     23  C   UNL     1      48.334   8.971  14.780  0.00  0.00    +0.000 A 
ATOM     24  C   UNL     1      48.458   7.926  13.861  0.00  0.00    +0.000 A 
ATOM     25  N   UNL     1      48.647   6.654  14.284  0.00  0.00    +0.000 NA
ATOM     26  C   UNL     1      48.712   6.425  15.622  0.00  0.00    +0.000 A 
ATOM     27  C   UNL     1      48.592   7.404  16.599  0.00  0.00    +0.000 A 
BRANCH  27  28
ATOM     28  C   UNL     1      48.706   7.042  18.040  0.00  0.00    +0.000 C 
ATOM     29  N   UNL     1      47.556   6.738  18.718  0.00  0.00    +0.000 N 
ATOM     30  O   UNL     1      49.778   7.021  18.630  0.00  0.00    +0.000 OA
ATOM     31  H   UNL     1      46.626   6.913  18.365  0.00  0.00    +0.000 HD
ATOM     32  H   UNL     1      47.656   6.581  19.714  0.00  0.00    +0.000 HD
ENDBRANCH  27  28
ENDBRANCH  18  24
ENDBRANCH   1  18
TORSDOF 6
ENDMDL
MODEL 5
REMARK VINA RESULT:    -7.695      2.382      3.919
REMARK INTER + INTRA:         -11.311
REMARK INTER:                 -10.333
REMARK INTRA:                  -0.978
REMARK UNBOUND:                -1.142
REMARK  Name = 
REMARK  9 active torsions:
REMARK  status: ('A' for Active; 'I' for Inactive)
REMARK    1  A    between atoms: C_1  and  C_2
REMARK    2  A    between atoms: C_4  and  C_5
REMARK    3  A    between atoms: C_5  and  C_6
REMARK    4  A    between atoms: C_5  and  C_7
REMARK    5  A    between atoms: C_5  and  C_8
REMARK    6  A    between atoms: C_8  and  N_9
REMARK    7  A    between atoms: C_14  and  C_15
REMARK    8  A    between atoms: C_18  and  O_19
REMARK    9  A    between atoms: C_25  and  C_26
REMARK                            x       y       z     vdW  Elec       q    Type
REMARK                         _______ _______ _______ _____ _____    ______ ____
ROOT
ATOM      1  C   UNL     1      45.308   5.007  11.978  0.00  0.00    +0.000 C 
ENDROOT
BRANCH   1   2
ATOM      2  N   UNL     1      45.485   4.356  13.293  0.00  0.00    +0.000 N 
ATOM      3  C   UNL     1      46.542   4.901  14.054  0.00  0.00    +0.000 A 
ATOM      4  C   UNL     1      46.784   4.362  15.314  0.00  0.00    +0.000 A 
ATOM      5  C   UNL     1      47.830   4.858  16.082  0.00  0.00    +0.000 A 
ATOM      6  C   UNL     1      48.617   5.881  15.567  0.00  0.00    +0.000 A 
ATOM      7  C   UNL     1      48.329   6.388  14.300  0.00  0.00    +0.000 A 
ATOM      8  N   UNL     1      47.297   5.904  13.563  0.00  0.00    +0.000 NA
ATOM      9  H   UNL     1      45.668   3.361  13.209  0.00  0.00    +0.000 HD
BRANCH   7  10
ATOM     10  C   UNL     1      49.166   7.420  13.647  0.00  0.00    +0.000 A 
ATOM     11  C   UNL     1      49.240   7.506  12.242  0.00  0.00    +0.000 A 
ATOM     12  C   UNL     1      50.101   8.407  11.605  0.00  0.00    +0.000 A 
ATOM     13  C   UNL     1      50.897   9.247  12.372  0.00  0.00    +0.000 A 
ATOM     14  C   UNL     1      50.819   9.222  13.756  0.00  0.00    +0.000 A 
ATOM     15  C   UNL     1      49.954   8.323  14.387  0.00  0.00    +0.000 A 
BRANCH  13  16
ATOM     16  O   UNL     1      51.776  10.117  11.801  0.00  0.00    +0.000 OA
ATOM     17  H   UNL     1      51.280  10.884  11.474  0.00  0.00    +0.000 HD
ENDBRANCH  13  16
ENDBRANCH   7  10
ENDBRANCH   1   2
BRANCH   1  18
ATOM     18  C   UNL     1      44.358   4.208  11.026  0.00  0.00    +0.000 C 
ATOM     19  C   UNL     1      43.149   5.088  10.647  0.00  0.00    +0.000 C 
ATOM     20  C   UNL     1      43.867   2.929  11.742  0.00  0.00    +0.000 C 
BRANCH  18  24
ATOM     21  C   UNL     1      46.276   0.635   7.987  0.00  0.00    +0.000 C 
ATOM     22  C   UNL     1      46.046   2.093   8.269  0.00  0.00    +0.000 A 
ATOM     23  C   UNL     1      45.336   2.455   9.430  0.00  0.00    +0.000 A 
ATOM     24  C   UNL     1      45.111   3.798   9.741  0.00  0.00    +0.000 A 
ATOM     25  N   UNL     1      45.567   4.780   8.928  0.00  0.00    +0.000 NA
ATOM     26  C   UNL     1      46.249   4.422   7.808  0.00  0.00    +0.000 A 
ATOM     27  C   UNL     1      46.510   3.113   7.425  0.00  0.00    +0.000 A 
BRANCH  27  28
ATOM     28  C   UNL     1      47.292   2.836   6.187  0.00  0.00    +0.000 C 
ATOM     29  N   UNL     1      48.631   2.587   6.318  0.00  0.00    +0.000 N 
ATOM     30  O   UNL     1      46.783   2.836   5.075  0.00  0.00    +0.000 OA
ATOM     31  H   UNL     1      49.161   2.752   7.162  0.00  0.00    +0.000 HD
ATOM     32  H   UNL     1      49.151   2.489   5.453  0.00  0.00    +0.000 HD
ENDBRANCH  27  28
ENDBRANCH  18  24
ENDBRANCH   1  18
TORSDOF 6
ENDMDL
MODEL 6
REMARK VINA RESULT:    -7.476      3.172      3.881
REMARK INTER + INTRA:         -11.022
REMARK INTER:                  -9.966
REMARK INTRA:                  -1.056
REMARK UNBOUND:                -1.142
REMARK  Name = 
REMARK  9 active torsions:
REMARK  status: ('A' for Active; 'I' for Inactive)
REMARK    1  A    between atoms: C_1  and  C_2
REMARK    2  A    between atoms: C_4  and  C_5
REMARK    3  A    between atoms: C_5  and  C_6
REMARK    4  A    between atoms: C_5  and  C_7
REMARK    5  A    between atoms: C_5  and  C_8
REMARK    6  A    between atoms: C_8  and  N_9
REMARK    7  A    between atoms: C_14  and  C_15
REMARK    8  A    between atoms: C_18  and  O_19
REMARK    9  A    between atoms: C_25  and  C_26
REMARK                            x       y       z     vdW  Elec       q    Type
REMARK                         _______ _______ _______ _____ _____    ______ ____
ROOT
ATOM      1  C   UNL     1      45.223   5.550  11.602  0.00  0.00    +0.000 C 
ENDROOT
BRANCH   1   2
ATOM      2  N   UNL     1      44.462   6.806  11.441  0.00  0.00    +0.000 N 
ATOM      3  C   UNL     1      45.243   7.968  11.628  0.00  0.00    +0.000 A 
ATOM      4  C   UNL     1      44.619   9.204  11.487  0.00  0.00    +0.000 A 
ATOM      5  C   UNL     1      45.352  10.367  11.686  0.00  0.00    +0.000 A 
ATOM      6  C   UNL     1      46.695  10.266  12.028  0.00  0.00    +0.000 A 
ATOM      7  C   UNL     1      47.272   9.003  12.153  0.00  0.00    +0.000 A 
ATOM      8  N   UNL     1      46.550   7.873  11.944  0.00  0.00    +0.000 NA
ATOM      9  H   UNL     1      43.683   6.871  12.088  0.00  0.00    +0.000 HD
BRANCH   7  10
ATOM     10  C   UNL     1      48.673   8.808  12.592  0.00  0.00    +0.000 A 
ATOM     11  C   UNL     1      49.722   8.752  11.652  0.00  0.00    +0.000 A 
ATOM     12  C   UNL     1      51.037   8.469  12.035  0.00  0.00    +0.000 A 
ATOM     13  C   UNL     1      51.324   8.247  13.375  0.00  0.00    +0.000 A 
ATOM     14  C   UNL     1      50.326   8.337  14.334  0.00  0.00    +0.000 A 
ATOM     15  C   UNL     1      49.014   8.625  13.946  0.00  0.00    +0.000 A 
BRANCH  13  16
ATOM     16  O   UNL     1      52.581   7.934  13.796  0.00  0.00    +0.000 OA
ATOM     17  H   UNL     1      52.771   7.018  13.539  0.00  0.00    +0.000 HD
ENDBRANCH  13  16
ENDBRANCH   7  10
ENDBRANCH   1   2
BRANCH   1  18
ATOM     18  C   UNL     1      44.487   4.310  10.997  0.00  0.00    +0.000 C 
ATOM     19  C   UNL     1      43.025   4.687  10.672  0.00  0.00    +0.000 C 
ATOM     20  C   UNL     1      44.510   3.147  12.015  0.00  0.00    +0.000 C 
BRANCH  18  24
ATOM     21  C   UNL     1      46.267   0.616   8.019  0.00  0.00    +0.000 C 
ATOM     22  C   UNL     1      46.061   2.086   8.259  0.00  0.00    +0.000 A 
ATOM     23  C   UNL     1      45.394   2.494   9.429  0.00  0.00    +0.000 A 
ATOM     24  C   UNL     1      45.192   3.849   9.701  0.00  0.00    +0.000 A 
ATOM     25  N   UNL     1      45.630   4.799   8.841  0.00  0.00    +0.000 NA
ATOM     26  C   UNL     1      46.271   4.395   7.712  0.00  0.00    +0.000 A 
ATOM     27  C   UNL     1      46.506   3.071   7.366  0.00  0.00    +0.000 A 
BRANCH  27  28
ATOM     28  C   UNL     1      47.243   2.744   6.113  0.00  0.00    +0.000 C 
ATOM     29  N   UNL     1      48.593   2.535   6.200  0.00  0.00    +0.000 N 
ATOM     30  O   UNL     1      46.689   2.671   5.024  0.00  0.00    +0.000 OA
ATOM     31  H   UNL     1      49.152   2.759   7.010  0.00  0.00    +0.000 HD
ATOM     32  H   UNL     1      49.079   2.400   5.320  0.00  0.00    +0.000 HD
ENDBRANCH  27  28
ENDBRANCH  18  24
ENDBRANCH   1  18
TORSDOF 6
ENDMDL
MODEL 7
REMARK VINA RESULT:    -7.384      3.591      5.442
REMARK INTER + INTRA:         -10.901
REMARK INTER:                  -9.525
REMARK INTRA:                  -1.376
REMARK UNBOUND:                -1.142
REMARK  Name = 
REMARK  9 active torsions:
REMARK  status: ('A' for Active; 'I' for Inactive)
REMARK    1  A    between atoms: C_1  and  C_2
REMARK    2  A    between atoms: C_4  and  C_5
REMARK    3  A    between atoms: C_5  and  C_6
REMARK    4  A    between atoms: C_5  and  C_7
REMARK    5  A    between atoms: C_5  and  C_8
REMARK    6  A    between atoms: C_8  and  N_9
REMARK    7  A    between atoms: C_14  and  C_15
REMARK    8  A    between atoms: C_18  and  O_19
REMARK    9  A    between atoms: C_25  and  C_26
REMARK                            x       y       z     vdW  Elec       q    Type
REMARK                         _______ _______ _______ _____ _____    ______ ____
ROOT
ATOM      1  C   UNL     1      49.873   7.849  14.145  0.00  0.00    +0.000 C 
ENDROOT
BRANCH   1   2
ATOM      2  N   UNL     1      49.142   8.533  15.232  0.00  0.00    +0.000 N 
ATOM      3  C   UNL     1      49.063   7.777  16.422  0.00  0.00    +0.000 A 
ATOM      4  C   UNL     1      48.402   8.339  17.509  0.00  0.00    +0.000 A 
ATOM      5  C   UNL     1      48.286   7.615  18.689  0.00  0.00    +0.000 A 
ATOM      6  C   UNL     1      48.830   6.338  18.751  0.00  0.00    +0.000 A 
ATOM      7  C   UNL     1      49.486   5.823  17.634  0.00  0.00    +0.000 A 
ATOM      8  N   UNL     1      49.605   6.544  16.490  0.00  0.00    +0.000 NA
ATOM      9  H   UNL     1      48.189   8.765  14.969  0.00  0.00    +0.000 HD
BRANCH   7  10
ATOM     10  C   UNL     1      50.022   4.444  17.591  0.00  0.00    +0.000 A 
ATOM     11  C   UNL     1      51.379   4.189  17.874  0.00  0.00    +0.000 A 
ATOM     12  C   UNL     1      51.930   2.909  17.742  0.00  0.00    +0.000 A 
ATOM     13  C   UNL     1      51.120   1.858  17.333  0.00  0.00    +0.000 A 
ATOM     14  C   UNL     1      49.770   2.061  17.088  0.00  0.00    +0.000 A 
ATOM     15  C   UNL     1      49.225   3.342  17.226  0.00  0.00    +0.000 A 
BRANCH  13  16
ATOM     16  O   UNL     1      51.615   0.601  17.156  0.00  0.00    +0.000 OA
ATOM     17  H   UNL     1      51.454   0.092  17.965  0.00  0.00    +0.000 HD
ENDBRANCH  13  16
ENDBRANCH   7  10
ENDBRANCH   1   2
BRANCH   1  18
ATOM     18  C   UNL     1      49.112   7.892  12.779  0.00  0.00    +0.000 C 
ATOM     19  C   UNL     1      50.104   7.620  11.628  0.00  0.00    +0.000 C 
ATOM     20  C   UNL     1      48.467   9.284  12.591  0.00  0.00    +0.000 C 
BRANCH  18  24
ATOM     21  C   UNL     1      44.966   5.892  10.658  0.00  0.00    +0.000 C 
ATOM     22  C   UNL     1      45.999   5.849  11.751  0.00  0.00    +0.000 A 
ATOM     23  C   UNL     1      47.025   6.814  11.750  0.00  0.00    +0.000 A 
ATOM     24  C   UNL     1      47.998   6.822  12.753  0.00  0.00    +0.000 A 
ATOM     25  N   UNL     1      47.976   5.899  13.743  0.00  0.00    +0.000 NA
ATOM     26  C   UNL     1      46.983   4.971  13.734  0.00  0.00    +0.000 A 
ATOM     27  C   UNL     1      45.984   4.890  12.773  0.00  0.00    +0.000 A 
BRANCH  27  28
ATOM     28  C   UNL     1      44.928   3.844  12.877  0.00  0.00    +0.000 C 
ATOM     29  N   UNL     1      45.199   2.607  12.358  0.00  0.00    +0.000 N 
ATOM     30  O   UNL     1      43.839   4.058  13.392  0.00  0.00    +0.000 OA
ATOM     31  H   UNL     1      45.983   2.402  11.756  0.00  0.00    +0.000 HD
ATOM     32  H   UNL     1      44.431   1.945  12.366  0.00  0.00    +0.000 HD
ENDBRANCH  27  28
ENDBRANCH  18  24
ENDBRANCH   1  18
TORSDOF 6
ENDMDL
MODEL 8
REMARK VINA RESULT:    -7.276      3.373      8.585
REMARK INTER + INTRA:         -10.758
REMARK INTER:                  -9.820
REMARK INTRA:                  -0.938
REMARK UNBOUND:                -1.142
REMARK  Name = 
REMARK  9 active torsions:
REMARK  status: ('A' for Active; 'I' for Inactive)
REMARK    1  A    between atoms: C_1  and  C_2
REMARK    2  A    between atoms: C_4  and  C_5
REMARK    3  A    between atoms: C_5  and  C_6
REMARK    4  A    between atoms: C_5  and  C_7
REMARK    5  A    between atoms: C_5  and  C_8
REMARK    6  A    between atoms: C_8  and  N_9
REMARK    7  A    between atoms: C_14  and  C_15
REMARK    8  A    between atoms: C_18  and  O_19
REMARK    9  A    between atoms: C_25  and  C_26
REMARK                            x       y       z     vdW  Elec       q    Type
REMARK                         _______ _______ _______ _____ _____    ______ ____
ROOT
ATOM      1  C   UNL     1      48.337   5.698  16.228  0.00  0.00    +0.000 C 
ENDROOT
BRANCH   1   2
ATOM      2  N   UNL     1      49.042   6.644  15.338  0.00  0.00    +0.000 N 
ATOM      3  C   UNL     1      48.443   6.773  14.065  0.00  0.00    +0.000 A 
ATOM      4  C   UNL     1      49.027   7.649  13.156  0.00  0.00    +0.000 A 
ATOM      5  C   UNL     1      48.478   7.785  11.887  0.00  0.00    +0.000 A 
ATOM      6  C   UNL     1      47.357   7.034  11.555  0.00  0.00    +0.000 A 
ATOM      7  C   UNL     1      46.809   6.174  12.505  0.00  0.00    +0.000 A 
ATOM      8  N   UNL     1      47.346   6.057  13.746  0.00  0.00    +0.000 NA
ATOM      9  H   UNL     1      50.009   6.377  15.179  0.00  0.00    +0.000 HD
BRANCH   7  10
ATOM     10  C   UNL     1      45.667   5.281  12.205  0.00  0.00    +0.000 A 
ATOM     11  C   UNL     1      44.861   4.768  13.242  0.00  0.00    +0.000 A 
ATOM     12  C   UNL     1      43.840   3.844  12.991  0.00  0.00    +0.000 A 
ATOM     13  C   UNL     1      43.603   3.428  11.688  0.00  0.00    +0.000 A 
ATOM     14  C   UNL     1      44.346   3.943  10.636  0.00  0.00    +0.000 A 
ATOM     15  C   UNL     1      45.362   4.869  10.893  0.00  0.00    +0.000 A 
BRANCH  13  16
ATOM     16  O   UNL     1      42.645   2.505  11.394  0.00  0.00    +0.000 OA
ATOM     17  H   UNL     1      43.031   1.839  10.804  0.00  0.00    +0.000 HD
ENDBRANCH  13  16
ENDBRANCH   7  10
ENDBRANCH   1   2
BRANCH   1  18
ATOM     18  C   UNL     1      49.002   5.581  17.639  0.00  0.00    +0.000 C 
ATOM     19  C   UNL     1      47.905   5.422  18.714  0.00  0.00    +0.000 C 
ATOM     20  C   UNL     1      49.831   6.854  17.927  0.00  0.00    +0.000 C 
BRANCH  18  24
ATOM     21  C   UNL     1      53.317   3.389  19.144  0.00  0.00    +0.000 C 
ATOM     22  C   UNL     1      52.016   3.286  18.397  0.00  0.00    +0.000 A 
ATOM     23  C   UNL     1      51.155   4.400  18.381  0.00  0.00    +0.000 A 
ATOM     24  C   UNL     1      49.942   4.356  17.688  0.00  0.00    +0.000 A 
ATOM     25  N   UNL     1      49.569   3.238  17.021  0.00  0.00    +0.000 NA
ATOM     26  C   UNL     1      50.406   2.167  17.043  0.00  0.00    +0.000 A 
ATOM     27  C   UNL     1      51.623   2.128  17.712  0.00  0.00    +0.000 A 
BRANCH  27  28
ATOM     28  C   UNL     1      52.473   0.906  17.647  0.00  0.00    +0.000 C 
ATOM     29  N   UNL     1      52.111  -0.168  18.415  0.00  0.00    +0.000 N 
ATOM     30  O   UNL     1      53.476   0.839  16.950  0.00  0.00    +0.000 OA
ATOM     31  H   UNL     1      51.420  -0.134  19.151  0.00  0.00    +0.000 HD
ATOM     32  H   UNL     1      52.755  -0.951  18.416  0.00  0.00    +0.000 HD
ENDBRANCH  27  28
ENDBRANCH  18  24
ENDBRANCH   1  18
TORSDOF 6
ENDMDL
MODEL 9
REMARK VINA RESULT:    -7.144      3.209      7.512
REMARK INTER + INTRA:         -10.583
REMARK INTER:                  -8.870
REMARK INTRA:                  -1.714
REMARK UNBOUND:                -1.142
REMARK  Name = 
REMARK  9 active torsions:
REMARK  status: ('A' for Active; 'I' for Inactive)
REMARK    1  A    between atoms: C_1  and  C_2
REMARK    2  A    between atoms: C_4  and  C_5
REMARK    3  A    between atoms: C_5  and  C_6
REMARK    4  A    between atoms: C_5  and  C_7
REMARK    5  A    between atoms: C_5  and  C_8
REMARK    6  A    between atoms: C_8  and  N_9
REMARK    7  A    between atoms: C_14  and  C_15
REMARK    8  A    between atoms: C_18  and  O_19
REMARK    9  A    between atoms: C_25  and  C_26
REMARK                            x       y       z     vdW  Elec       q    Type
REMARK                         _______ _______ _______ _____ _____    ______ ____
ROOT
ATOM      1  C   UNL     1      48.754   8.318  12.873  0.00  0.00    +0.000 C 
ENDROOT
BRANCH   1   2
ATOM      2  N   UNL     1      47.974   9.494  12.434  0.00  0.00    +0.000 N 
ATOM      3  C   UNL     1      46.640   9.188  12.083  0.00  0.00    +0.000 A 
ATOM      4  C   UNL     1      45.820  10.231  11.665  0.00  0.00    +0.000 A 
ATOM      5  C   UNL     1      44.509   9.963  11.291  0.00  0.00    +0.000 A 
ATOM      6  C   UNL     1      44.050   8.652  11.338  0.00  0.00    +0.000 A 
ATOM      7  C   UNL     1      44.913   7.645  11.767  0.00  0.00    +0.000 A 
ATOM      8  N   UNL     1      46.189   7.919  12.143  0.00  0.00    +0.000 NA
ATOM      9  H   UNL     1      48.389   9.954  11.630  0.00  0.00    +0.000 HD
BRANCH   7  10
ATOM     10  C   UNL     1      44.529   6.215  11.770  0.00  0.00    +0.000 A 
ATOM     11  C   UNL     1      44.839   5.383  10.675  0.00  0.00    +0.000 A 
ATOM     12  C   UNL     1      44.398   4.056  10.612  0.00  0.00    +0.000 A 
ATOM     13  C   UNL     1      43.645   3.538  11.657  0.00  0.00    +0.000 A 
ATOM     14  C   UNL     1      43.357   4.313  12.770  0.00  0.00    +0.000 A 
ATOM     15  C   UNL     1      43.804   5.636  12.830  0.00  0.00    +0.000 A 
BRANCH  13  16
ATOM     16  O   UNL     1      43.163   2.264  11.628  0.00  0.00    +0.000 OA
ATOM     17  H   UNL     1      43.603   1.786  10.909  0.00  0.00    +0.000 HD
ENDBRANCH  13  16
ENDBRANCH   7  10
ENDBRANCH   1   2
BRANCH   1  18
ATOM     18  C   UNL     1      49.040   8.317  14.411  0.00  0.00    +0.000 C 
ATOM     19  C   UNL     1      48.223   9.438  15.087  0.00  0.00    +0.000 C 
ATOM     20  C   UNL     1      50.548   8.553  14.655  0.00  0.00    +0.000 C 
BRANCH  18  24
ATOM     21  C   UNL     1      46.825   3.776  14.022  0.00  0.00    +0.000 C 
ATOM     22  C   UNL     1      47.578   4.771  14.861  0.00  0.00    +0.000 A 
ATOM     23  C   UNL     1      47.956   5.997  14.282  0.00  0.00    +0.000 A 
ATOM     24  C   UNL     1      48.645   6.957  15.027  0.00  0.00    +0.000 A 
ATOM     25  N   UNL     1      48.966   6.726  16.322  0.00  0.00    +0.000 NA
ATOM     26  C   UNL     1      48.598   5.539  16.873  0.00  0.00    +0.000 A 
ATOM     27  C   UNL     1      47.919   4.531  16.200  0.00  0.00    +0.000 A 
BRANCH  27  28
ATOM     28  C   UNL     1      47.543   3.277  16.912  0.00  0.00    +0.000 C 
ATOM     29  N   UNL     1      48.479   2.282  16.994  0.00  0.00    +0.000 N 
ATOM     30  O   UNL     1      46.437   3.108  17.406  0.00  0.00    +0.000 OA
ATOM     31  H   UNL     1      49.335   2.261  16.459  0.00  0.00    +0.000 HD
ATOM     32  H   UNL     1      48.166   1.411  17.407  0.00  0.00    +0.000 HD
ENDBRANCH  27  28
ENDBRANCH  18  24
ENDBRANCH   1  18
TORSDOF 6
ENDMDL
