MODEL 1
REMARK VINA RESULT:    -9.739      0.000      0.000
REMARK INTER + INTRA:         -12.912
REMARK INTER:                 -12.016
REMARK INTRA:                  -0.895
REMARK UNBOUND:                -0.895
REMARK  Name = 
REMARK  4 active torsions:
REMARK  status: ('A' for Active; 'I' for Inactive)
REMARK    1  A    between atoms: C_2  and  C_4
REMARK    2  A    between atoms: N_8  and  C_9
REMARK    3  A    between atoms: C_9  and  C_10
REMARK    4  A    between atoms: C_14  and  C_15
REMARK                            x       y       z     vdW  Elec       q    Type
REMARK                         _______ _______ _______ _____ _____    ______ ____
ROOT
ATOM      1  C   UNL     1      43.902   4.867  11.478  0.00  0.00    +0.000 C 
ATOM      2  C   UNL     1      42.659   5.017  12.350  0.00  0.00    +0.000 C 
ATOM      3  C   UNL     1      42.919   6.000  11.258  0.00  0.00    +0.000 C 
ENDROOT
BRANCH   1   8
ATOM      4  C   UNL     1      46.492   2.746   7.506  0.00  0.00    +0.000 A 
ATOM      5  C   UNL     1      46.093   4.066   7.672  0.00  0.00    +0.000 A 
ATOM      6  C   UNL     1      45.262   4.399   8.744  0.00  0.00    +0.000 A 
ATOM      7  C   UNL     1      44.837   3.408   9.619  0.00  0.00    +0.000 A 
ATOM      8  N   UNL     1      43.921   3.645  10.651  0.00  0.00    +0.000 N 
ATOM      9  N   UNL     1      45.211   2.120   9.465  0.00  0.00    +0.000 NA
ATOM     10  C   UNL     1      46.023   1.813   8.418  0.00  0.00    +0.000 A 
ATOM     11  H   UNL     1      43.861   2.766  11.163  0.00  0.00    +0.000 HD
BRANCH   4  13
ATOM     12  N   UNL     1      47.232   2.968   5.203  0.00  0.00    +0.000 N 
ATOM     13  C   UNL     1      47.346   2.294   6.388  0.00  0.00    +0.000 C 
ATOM     14  O   UNL     1      48.141   1.375   6.518  0.00  0.00    +0.000 OA
ATOM     15  H   UNL     1      47.879   2.704   4.469  0.00  0.00    +0.000 HD
ATOM     16  H   UNL     1      46.773   3.864   5.122  0.00  0.00    +0.000 HD
ENDBRANCH   4  13
ENDBRANCH   1   8
BRANCH   1  17
ATOM     17  C   UNL     1      45.261   5.198  12.092  0.00  0.00    +0.000 A 
ATOM     18  C   UNL     1      46.045   6.257  11.606  0.00  0.00    +0.000 A 
ATOM     19  C   UNL     1      47.254   6.603  12.207  0.00  0.00    +0.000 A 
ATOM     20  C   UNL     1      47.684   5.919  13.343  0.00  0.00    +0.000 A 
ATOM     21  C   UNL     1      46.920   4.878  13.897  0.00  0.00    +0.000 A 
ATOM     22  C   UNL     1      45.739   4.509  13.226  0.00  0.00    +0.000 A 
BRANCH  21  23
ATOM     23  C   UNL     1      47.291   4.249  15.181  0.00  0.00    +0.000 A 
ATOM     24  C   UNL     1      46.869   4.782  16.404  0.00  0.00    +0.000 A 
ATOM     25  C   UNL     1      47.197   4.127  17.586  0.00  0.00    +0.000 A 
ATOM     26  C   UNL     1      47.936   2.959  17.526  0.00  0.00    +0.000 A 
ATOM     27  C   UNL     1      48.314   2.494  16.280  0.00  0.00    +0.000 A 
ATOM     28  F   UNL     1      49.018   1.354  16.218  0.00  0.00    +0.000 F 
ATOM     29  N   UNL     1      48.008   3.101  15.113  0.00  0.00    +0.000 NA
ENDBRANCH  21  23
ENDBRANCH   1  17
TORSDOF 4
ENDMDL
MODEL 2
REMARK VINA RESULT:    -9.448      2.842      4.159
REMARK INTER + INTRA:         -12.553
REMARK INTER:                 -11.365
REMARK INTRA:                  -1.188
REMARK UNBOUND:                -0.895
REMARK  Name = 
REMARK  4 active torsions:
REMARK  status: ('A' for Active; 'I' for Inactive)
REMARK    1  A    between atoms: C_2  and  C_4
REMARK    2  A    between atoms: N_8  and  C_9
REMARK    3  A    between atoms: C_9  and  C_10
REMARK    4  A    between atoms: C_14  and  C_15
REMARK                            x       y       z     vdW  Elec       q    Type
REMARK                         _______ _______ _______ _____ _____    ______ ____
ROOT
ATOM      1  C   UNL     1      43.839   4.887  11.364  0.00  0.00    +0.000 C 
ATOM      2  C   UNL     1      42.511   5.133  12.075  0.00  0.00    +0.000 C 
ATOM      3  C   UNL     1      43.000   6.114  11.063  0.00  0.00    +0.000 C 
ENDROOT
BRANCH   1   8
ATOM      4  C   UNL     1      46.582   2.758   7.501  0.00  0.00    +0.000 A 
ATOM      5  C   UNL     1      46.236   4.091   7.684  0.00  0.00    +0.000 A 
ATOM      6  C   UNL     1      45.353   4.433   8.710  0.00  0.00    +0.000 A 
ATOM      7  C   UNL     1      44.823   3.439   9.523  0.00  0.00    +0.000 A 
ATOM      8  N   UNL     1      43.853   3.690  10.500  0.00  0.00    +0.000 N 
ATOM      9  N   UNL     1      45.146   2.139   9.351  0.00  0.00    +0.000 NA
ATOM     10  C   UNL     1      46.009   1.823   8.350  0.00  0.00    +0.000 A 
ATOM     11  H   UNL     1      43.717   2.801  10.978  0.00  0.00    +0.000 HD
BRANCH   4  13
ATOM     12  N   UNL     1      47.432   2.968   5.235  0.00  0.00    +0.000 N 
ATOM     13  C   UNL     1      47.486   2.297   6.426  0.00  0.00    +0.000 C 
ATOM     14  O   UNL     1      48.268   1.373   6.597  0.00  0.00    +0.000 OA
ATOM     15  H   UNL     1      48.113   2.698   4.535  0.00  0.00    +0.000 HD
ATOM     16  H   UNL     1      46.984   3.866   5.130  0.00  0.00    +0.000 HD
ENDBRANCH   4  13
ENDBRANCH   1   8
BRANCH   1  17
ATOM     17  C   UNL     1      45.129   5.071  12.159  0.00  0.00    +0.000 A 
ATOM     18  C   UNL     1      45.605   4.072  13.025  0.00  0.00    +0.000 A 
ATOM     19  C   UNL     1      46.816   4.211  13.700  0.00  0.00    +0.000 A 
ATOM     20  C   UNL     1      47.604   5.340  13.486  0.00  0.00    +0.000 A 
ATOM     21  C   UNL     1      47.198   6.352  12.600  0.00  0.00    +0.000 A 
ATOM     22  C   UNL     1      45.938   6.213  11.986  0.00  0.00    +0.000 A 
BRANCH  21  23
ATOM     23  C   UNL     1      48.091   7.476  12.254  0.00  0.00    +0.000 A 
ATOM     24  C   UNL     1      49.458   7.281  12.032  0.00  0.00    +0.000 A 
ATOM     25  C   UNL     1      50.252   8.360  11.655  0.00  0.00    +0.000 A 
ATOM     26  C   UNL     1      49.668   9.606  11.508  0.00  0.00    +0.000 A 
ATOM     27  C   UNL     1      48.310   9.719  11.743  0.00  0.00    +0.000 A 
ATOM     28  F   UNL     1      47.739  10.922  11.587  0.00  0.00    +0.000 F 
ATOM     29  N   UNL     1      47.510   8.692  12.103  0.00  0.00    +0.000 NA
ENDBRANCH  21  23
ENDBRANCH   1  17
TORSDOF 4
ENDMDL
MODEL 3
REMARK VINA RESULT:    -7.945      1.968      2.710
REMARK INTER + INTRA:         -10.698
REMARK INTER:                  -9.820
REMARK INTRA:                  -0.878
REMARK UNBOUND:                -0.895
REMARK  Name = 
REMARK  4 active torsions:
REMARK  status: ('A' for Active; 'I' for Inactive)
REMARK    1  A    between atoms: C_2  and  C_4
REMARK    2  A    between atoms: N_8  and  C_9
REMARK    3  A    between atoms: C_9  and  C_10
REMARK    4  A    between atoms: C_14  and  C_15
REMARK                            x       y       z     vdW  Elec       q    Type
REMARK                         _______ _______ _______ _____ _____    ______ ____
ROOT
ATOM      1  C   UNL     1      44.081   5.540  11.070  0.00  0.00    +0.000 C 
ATOM      2  C   UNL     1      42.845   6.273  11.585  0.00  0.00    +0.000 C 
ATOM      3  C   UNL     1      43.929   7.040  10.905  0.00  0.00    +0.000 C 
ENDROOT
BRANCH   1   8
ATOM      4  C   UNL     1      46.538   2.939   7.304  0.00  0.00    +0.000 A 
ATOM      5  C   UNL     1      46.727   4.254   7.713  0.00  0.00    +0.000 A 
ATOM      6  C   UNL     1      45.847   4.814   8.642  0.00  0.00    +0.000 A 
ATOM      7  C   UNL     1      44.791   4.056   9.134  0.00  0.00    +0.000 A 
ATOM      8  N   UNL     1      43.809   4.579   9.984  0.00  0.00    +0.000 N 
ATOM      9  N   UNL     1      44.592   2.780   8.740  0.00  0.00    +0.000 NA
ATOM     10  C   UNL     1      45.460   2.250   7.837  0.00  0.00    +0.000 A 
ATOM     11  H   UNL     1      43.222   3.786  10.234  0.00  0.00    +0.000 HD
BRANCH   4  13
ATOM     12  N   UNL     1      47.873   3.039   5.277  0.00  0.00    +0.000 N 
ATOM     13  C   UNL     1      47.399   2.272   6.306  0.00  0.00    +0.000 C 
ATOM     14  O   UNL     1      47.699   1.091   6.405  0.00  0.00    +0.000 OA
ATOM     15  H   UNL     1      48.527   2.592   4.646  0.00  0.00    +0.000 HD
ATOM     16  H   UNL     1      47.846   4.048   5.287  0.00  0.00    +0.000 HD
ENDBRANCH   4  13
ENDBRANCH   1   8
BRANCH   1  17
ATOM     17  C   UNL     1      45.093   5.024  12.091  0.00  0.00    +0.000 A 
ATOM     18  C   UNL     1      45.247   3.650  12.339  0.00  0.00    +0.000 A 
ATOM     19  C   UNL     1      46.215   3.174  13.221  0.00  0.00    +0.000 A 
ATOM     20  C   UNL     1      47.086   4.067  13.843  0.00  0.00    +0.000 A 
ATOM     21  C   UNL     1      47.005   5.448  13.600  0.00  0.00    +0.000 A 
ATOM     22  C   UNL     1      45.972   5.902  12.757  0.00  0.00    +0.000 A 
BRANCH  21  23
ATOM     23  C   UNL     1      48.014   6.385  14.135  0.00  0.00    +0.000 A 
ATOM     24  C   UNL     1      48.178   7.667  13.598  0.00  0.00    +0.000 A 
ATOM     25  C   UNL     1      49.103   8.535  14.168  0.00  0.00    +0.000 A 
ATOM     26  C   UNL     1      49.844   8.109  15.257  0.00  0.00    +0.000 A 
ATOM     27  C   UNL     1      49.624   6.829  15.731  0.00  0.00    +0.000 A 
ATOM     28  F   UNL     1      50.330   6.419  16.795  0.00  0.00    +0.000 F 
ATOM     29  N   UNL     1      48.730   5.964  15.206  0.00  0.00    +0.000 NA
ENDBRANCH  21  23
ENDBRANCH   1  17
TORSDOF 4
ENDMDL
MODEL 4
REMARK VINA RESULT:    -7.502      3.876      7.218
REMARK INTER + INTRA:         -10.151
REMARK INTER:                  -9.099
REMARK INTRA:                  -1.052
REMARK UNBOUND:                -0.895
REMARK  Name = 
REMARK  4 active torsions:
REMARK  status: ('A' for Active; 'I' for Inactive)
REMARK    1  A    between atoms: C_2  and  C_4
REMARK    2  A    between atoms: N_8  and  C_9
REMARK    3  A    between atoms: C_9  and  C_10
REMARK    4  A    between atoms: C_14  and  C_15
REMARK                            x       y       z     vdW  Elec       q    Type
REMARK                         _______ _______ _______ _____ _____    ______ ____
ROOT
ATOM      1  C   UNL     1      46.143   5.125  13.298  0.00  0.00    +0.000 C 
ATOM      2  C   UNL     1      46.051   4.208  14.514  0.00  0.00    +0.000 C 
ATOM      3  C   UNL     1      47.271   4.176  13.656  0.00  0.00    +0.000 C 
ENDROOT
BRANCH   1   8
ATOM      4  C   UNL     1      48.246   9.578  11.643  0.00  0.00    +0.000 A 
ATOM      5  C   UNL     1      48.837   8.324  11.738  0.00  0.00    +0.000 A 
ATOM      6  C   UNL     1      48.143   7.286  12.363  0.00  0.00    +0.000 A 
ATOM      7  C   UNL     1      46.880   7.522  12.891  0.00  0.00    +0.000 A 
ATOM      8  N   UNL     1      46.169   6.565  13.623  0.00  0.00    +0.000 N 
ATOM      9  N   UNL     1      46.297   8.738  12.812  0.00  0.00    +0.000 NA
ATOM     10  C   UNL     1      46.985   9.737  12.198  0.00  0.00    +0.000 A 
ATOM     11  H   UNL     1      45.263   6.990  13.811  0.00  0.00    +0.000 HD
BRANCH   4  13
ATOM     12  N   UNL     1      50.184  11.029  11.446  0.00  0.00    +0.000 N 
ATOM     13  C   UNL     1      48.914  10.742  11.025  0.00  0.00    +0.000 C 
ATOM     14  O   UNL     1      48.370  11.408  10.157  0.00  0.00    +0.000 OA
ATOM     15  H   UNL     1      50.662  11.778  10.958  0.00  0.00    +0.000 HD
ATOM     16  H   UNL     1      50.748  10.380  11.974  0.00  0.00    +0.000 HD
ENDBRANCH   4  13
ENDBRANCH   1   8
BRANCH   1  17
ATOM     17  C   UNL     1      45.284   4.799  12.079  0.00  0.00    +0.000 A 
ATOM     18  C   UNL     1      44.009   5.365  11.909  0.00  0.00    +0.000 A 
ATOM     19  C   UNL     1      43.251   5.121  10.766  0.00  0.00    +0.000 A 
ATOM     20  C   UNL     1      43.775   4.335   9.741  0.00  0.00    +0.000 A 
ATOM     21  C   UNL     1      45.061   3.777   9.839  0.00  0.00    +0.000 A 
ATOM     22  C   UNL     1      45.773   3.987  11.035  0.00  0.00    +0.000 A 
BRANCH  21  23
ATOM     23  C   UNL     1      45.682   3.071   8.700  0.00  0.00    +0.000 A 
ATOM     24  C   UNL     1      46.141   3.763   7.574  0.00  0.00    +0.000 A 
ATOM     25  C   UNL     1      46.768   3.063   6.549  0.00  0.00    +0.000 A 
ATOM     26  C   UNL     1      46.924   1.693   6.666  0.00  0.00    +0.000 A 
ATOM     27  C   UNL     1      46.447   1.081   7.810  0.00  0.00    +0.000 A 
ATOM     28  F   UNL     1      46.610  -0.245   7.933  0.00  0.00    +0.000 F 
ATOM     29  N   UNL     1      45.839   1.730   8.826  0.00  0.00    +0.000 NA
ENDBRANCH  21  23
ENDBRANCH   1  17
TORSDOF 4
ENDMDL
MODEL 5
REMARK VINA RESULT:    -7.320      4.104      8.333
REMARK INTER + INTRA:          -9.927
REMARK INTER:                  -8.875
REMARK INTRA:                  -1.052
REMARK UNBOUND:                -0.895
REMARK  Name = 
REMARK  4 active torsions:
REMARK  status: ('A' for Active; 'I' for Inactive)
REMARK    1  A    between atoms: C_2  and  C_4
REMARK    2  A    between atoms: N_8  and  C_9
REMARK    3  A    between atoms: C_9  and  C_10
REMARK    4  A    between atoms: C_14  and  C_15
REMARK                            x       y       z     vdW  Elec       q    Type
REMARK                         _______ _______ _______ _____ _____    ______ ____
ROOT
ATOM      1  C   UNL     1      49.040   7.944  12.711  0.00  0.00    +0.000 C 
ATOM      2  C   UNL     1      50.011   8.162  11.554  0.00  0.00    +0.000 C 
ATOM      3  C   UNL     1      49.690   9.293  12.472  0.00  0.00    +0.000 C 
ENDROOT
BRANCH   1   8
ATOM      4  C   UNL     1      48.411   6.803  17.740  0.00  0.00    +0.000 A 
ATOM      5  C   UNL     1      48.504   8.053  17.141  0.00  0.00    +0.000 A 
ATOM      6  C   UNL     1      48.834   8.140  15.787  0.00  0.00    +0.000 A 
ATOM      7  C   UNL     1      49.077   6.980  15.061  0.00  0.00    +0.000 A 
ATOM      8  N   UNL     1      49.516   6.991  13.732  0.00  0.00    +0.000 N 
ATOM      9  N   UNL     1      48.997   5.759  15.633  0.00  0.00    +0.000 NA
ATOM     10  C   UNL     1      48.671   5.693  16.951  0.00  0.00    +0.000 A 
ATOM     11  H   UNL     1      49.533   6.013  13.448  0.00  0.00    +0.000 HD
BRANCH   4  13
ATOM     12  N   UNL     1      47.178   5.647  19.484  0.00  0.00    +0.000 N 
ATOM     13  C   UNL     1      48.094   6.613  19.170  0.00  0.00    +0.000 C 
ATOM     14  O   UNL     1      48.644   7.271  20.042  0.00  0.00    +0.000 OA
ATOM     15  H   UNL     1      47.030   5.471  20.471  0.00  0.00    +0.000 HD
ATOM     16  H   UNL     1      46.884   4.936  18.832  0.00  0.00    +0.000 HD
ENDBRANCH   4  13
ENDBRANCH   1   8
BRANCH   1  17
ATOM     17  C   UNL     1      47.556   7.789  12.389  0.00  0.00    +0.000 A 
ATOM     18  C   UNL     1      46.646   8.836  12.611  0.00  0.00    +0.000 A 
ATOM     19  C   UNL     1      45.303   8.721  12.256  0.00  0.00    +0.000 A 
ATOM     20  C   UNL     1      44.849   7.563  11.627  0.00  0.00    +0.000 A 
ATOM     21  C   UNL     1      45.723   6.500  11.343  0.00  0.00    +0.000 A 
ATOM     22  C   UNL     1      47.058   6.621  11.776  0.00  0.00    +0.000 A 
BRANCH  21  23
ATOM     23  C   UNL     1      45.287   5.336  10.546  0.00  0.00    +0.000 A 
ATOM     24  C   UNL     1      45.695   5.165   9.219  0.00  0.00    +0.000 A 
ATOM     25  C   UNL     1      45.304   4.027   8.522  0.00  0.00    +0.000 A 
ATOM     26  C   UNL     1      44.516   3.085   9.161  0.00  0.00    +0.000 A 
ATOM     27  C   UNL     1      44.155   3.323  10.474  0.00  0.00    +0.000 A 
ATOM     28  F   UNL     1      43.405   2.405  11.100  0.00  0.00    +0.000 F 
ATOM     29  N   UNL     1      44.523   4.414  11.181  0.00  0.00    +0.000 NA
ENDBRANCH  21  23
ENDBRANCH   1  17
TORSDOF 4
ENDMDL
MODEL 6
REMARK VINA RESULT:    -7.255      3.592      7.671
REMARK INTER + INTRA:          -9.847
REMARK INTER:                  -9.785
REMARK INTRA:                  -0.062
REMARK UNBOUND:                -0.895
REMARK  Name = 
REMARK  4 active torsions:
REMARK  status: ('A' for Active; 'I' for Inactive)
REMARK    1  A    between atoms: C_2  and  C_4
REMARK    2  A    between atoms: N_8  and  C_9
REMARK    3  A    between atoms: C_9  and  C_10
REMARK    4  A    between atoms: C_14  and  C_15
REMARK                            x       y       z     vdW  Elec       q    Type
REMARK                         _______ _______ _______ _____ _____    ______ ____
ROOT
ATOM      1  C   UNL     1      48.252   7.850  12.686  0.00  0.00    +0.000 C 
ATOM      2  C   UNL     1      49.477   7.322  11.945  0.00  0.00    +0.000 C 
ATOM      3  C   UNL     1      49.129   8.770  11.859  0.00  0.00    +0.000 C 
ENDROOT
BRANCH   1   8
ATOM      4  C   UNL     1      47.940   4.352  16.514  0.00  0.00    +0.000 A 
ATOM      5  C   UNL     1      47.155   4.458  15.373  0.00  0.00    +0.000 A 
ATOM      6  C   UNL     1      47.300   5.573  14.544  0.00  0.00    +0.000 A 
ATOM      7  C   UNL     1      48.215   6.564  14.876  0.00  0.00    +0.000 A 
ATOM      8  N   UNL     1      48.342   7.757  14.156  0.00  0.00    +0.000 N 
ATOM      9  N   UNL     1      48.980   6.476  15.986  0.00  0.00    +0.000 NA
ATOM     10  C   UNL     1      48.828   5.383  16.780  0.00  0.00    +0.000 A 
ATOM     11  H   UNL     1      49.130   8.244  14.580  0.00  0.00    +0.000 HD
BRANCH   4  13
ATOM     12  N   UNL     1      48.972   2.878  18.146  0.00  0.00    +0.000 N 
ATOM     13  C   UNL     1      47.837   3.225  17.464  0.00  0.00    +0.000 C 
ATOM     14  O   UNL     1      46.781   2.641  17.656  0.00  0.00    +0.000 OA
ATOM     15  H   UNL     1      48.870   2.159  18.853  0.00  0.00    +0.000 HD
ATOM     16  H   UNL     1      49.787   3.471  18.195  0.00  0.00    +0.000 HD
ENDBRANCH   4  13
ENDBRANCH   1   8
BRANCH   1  17
ATOM     17  C   UNL     1      46.870   7.491  12.145  0.00  0.00    +0.000 A 
ATOM     18  C   UNL     1      45.799   8.399  12.210  0.00  0.00    +0.000 A 
ATOM     19  C   UNL     1      44.556   8.098  11.657  0.00  0.00    +0.000 A 
ATOM     20  C   UNL     1      44.369   6.892  10.984  0.00  0.00    +0.000 A 
ATOM     21  C   UNL     1      45.416   5.964  10.852  0.00  0.00    +0.000 A 
ATOM     22  C   UNL     1      46.639   6.268  11.481  0.00  0.00    +0.000 A 
BRANCH  21  23
ATOM     23  C   UNL     1      45.273   4.755  10.016  0.00  0.00    +0.000 A 
ATOM     24  C   UNL     1      44.626   3.610  10.493  0.00  0.00    +0.000 A 
ATOM     25  C   UNL     1      44.467   2.513   9.652  0.00  0.00    +0.000 A 
ATOM     26  C   UNL     1      44.954   2.581   8.358  0.00  0.00    +0.000 A 
ATOM     27  C   UNL     1      45.579   3.748   7.960  0.00  0.00    +0.000 A 
ATOM     28  F   UNL     1      46.039   3.821   6.702  0.00  0.00    +0.000 F 
ATOM     29  N   UNL     1      45.744   4.832   8.748  0.00  0.00    +0.000 NA
ENDBRANCH  21  23
ENDBRANCH   1  17
TORSDOF 4
ENDMDL
MODEL 7
REMARK VINA RESULT:    -7.225      3.589      8.264
REMARK INTER + INTRA:          -9.809
REMARK INTER:                 -10.270
REMARK INTRA:                   0.461
REMARK UNBOUND:                -0.895
REMARK  Name = 
REMARK  4 active torsions:
REMARK  status: ('A' for Active; 'I' for Inactive)
REMARK    1  A    between atoms: C_2  and  C_4
REMARK    2  A    between atoms: N_8  and  C_9
REMARK    3  A    between atoms: C_9  and  C_10
REMARK    4  A    between atoms: C_14  and  C_15
REMARK                            x       y       z     vdW  Elec       q    Type
REMARK                         _______ _______ _______ _____ _____    ______ ____
ROOT
ATOM      1  C   UNL     1      46.382   5.260  13.118  0.00  0.00    +0.000 C 
ATOM      2  C   UNL     1      47.549   6.168  12.743  0.00  0.00    +0.000 C 
ATOM      3  C   UNL     1      46.384   6.732  13.483  0.00  0.00    +0.000 C 
ENDROOT
BRANCH   1   8
ATOM      4  C   UNL     1      48.223   4.631  17.935  0.00  0.00    +0.000 A 
ATOM      5  C   UNL     1      48.631   5.537  16.964  0.00  0.00    +0.000 A 
ATOM      6  C   UNL     1      48.112   5.434  15.672  0.00  0.00    +0.000 A 
ATOM      7  C   UNL     1      47.206   4.424  15.371  0.00  0.00    +0.000 A 
ATOM      8  N   UNL     1      46.725   4.193  14.078  0.00  0.00    +0.000 N 
ATOM      9  N   UNL     1      46.806   3.533  16.304  0.00  0.00    +0.000 NA
ATOM     10  C   UNL     1      47.319   3.649  17.557  0.00  0.00    +0.000 A 
ATOM     11  H   UNL     1      46.033   3.452  14.178  0.00  0.00    +0.000 HD
BRANCH   4  13
ATOM     12  N   UNL     1      48.519   3.525  20.077  0.00  0.00    +0.000 N 
ATOM     13  C   UNL     1      48.738   4.643  19.320  0.00  0.00    +0.000 C 
ATOM     14  O   UNL     1      49.355   5.599  19.766  0.00  0.00    +0.000 OA
ATOM     15  H   UNL     1      48.947   3.512  20.996  0.00  0.00    +0.000 HD
ATOM     16  H   UNL     1      48.231   2.641  19.683  0.00  0.00    +0.000 HD
ENDBRANCH   4  13
ENDBRANCH   1   8
BRANCH   1  17
ATOM     17  C   UNL     1      45.444   4.792  12.008  0.00  0.00    +0.000 A 
ATOM     18  C   UNL     1      44.103   5.210  11.957  0.00  0.00    +0.000 A 
ATOM     19  C   UNL     1      43.265   4.837  10.908  0.00  0.00    +0.000 A 
ATOM     20  C   UNL     1      43.766   4.070   9.858  0.00  0.00    +0.000 A 
ATOM     21  C   UNL     1      45.109   3.658   9.836  0.00  0.00    +0.000 A 
ATOM     22  C   UNL     1      45.911   3.994  10.944  0.00  0.00    +0.000 A 
BRANCH  21  23
ATOM     23  C   UNL     1      45.686   2.975   8.660  0.00  0.00    +0.000 A 
ATOM     24  C   UNL     1      46.042   3.683   7.507  0.00  0.00    +0.000 A 
ATOM     25  C   UNL     1      46.632   3.007   6.444  0.00  0.00    +0.000 A 
ATOM     26  C   UNL     1      46.854   1.646   6.552  0.00  0.00    +0.000 A 
ATOM     27  C   UNL     1      46.476   1.017   7.724  0.00  0.00    +0.000 A 
ATOM     28  F   UNL     1      46.704  -0.300   7.837  0.00  0.00    +0.000 F 
ATOM     29  N   UNL     1      45.908   1.643   8.777  0.00  0.00    +0.000 NA
ENDBRANCH  21  23
ENDBRANCH   1  17
TORSDOF 4
ENDMDL
MODEL 8
REMARK VINA RESULT:    -6.981      2.961      4.575
REMARK INTER + INTRA:          -9.509
REMARK INTER:                  -9.009
REMARK INTRA:                  -0.499
REMARK UNBOUND:                -0.895
REMARK  Name = 
REMARK  4 active torsions:
REMARK  status: ('A' for Active; 'I' for Inactive)
REMARK    1  A    between atoms: C_2  and  C_4
REMARK    2  A    between atoms: N_8  and  C_9
REMARK    3  A    between atoms: C_9  and  C_10
REMARK    4  A    between atoms: C_14  and  C_15
REMARK                            x       y       z     vdW  Elec       q    Type
REMARK                         _______ _______ _______ _____ _____    ______ ____
ROOT
ATOM      1  C   UNL     1      47.251   8.387  13.190  0.00  0.00    +0.000 C 
ATOM      2  C   UNL     1      47.424   9.754  12.535  0.00  0.00    +0.000 C 
ATOM      3  C   UNL     1      48.092   8.561  11.940  0.00  0.00    +0.000 C 
ENDROOT
BRANCH   1   8
ATOM      4  C   UNL     1      44.538   4.251  11.602  0.00  0.00    +0.000 A 
ATOM      5  C   UNL     1      45.578   4.905  10.953  0.00  0.00    +0.000 A 
ATOM      6  C   UNL     1      46.069   6.101  11.480  0.00  0.00    +0.000 A 
ATOM      7  C   UNL     1      45.504   6.627  12.636  0.00  0.00    +0.000 A 
ATOM      8  N   UNL     1      45.869   7.871  13.164  0.00  0.00    +0.000 N 
ATOM      9  N   UNL     1      44.488   6.005  13.273  0.00  0.00    +0.000 NA
ATOM     10  C   UNL     1      44.025   4.840  12.747  0.00  0.00    +0.000 A 
ATOM     11  H   UNL     1      45.352   7.953  14.038  0.00  0.00    +0.000 HD
BRANCH   4  13
ATOM     12  N   UNL     1      44.536   2.399  10.030  0.00  0.00    +0.000 N 
ATOM     13  C   UNL     1      43.936   2.997  11.104  0.00  0.00    +0.000 C 
ATOM     14  O   UNL     1      42.959   2.497  11.641  0.00  0.00    +0.000 OA
ATOM     15  H   UNL     1      44.165   1.499   9.749  0.00  0.00    +0.000 HD
ATOM     16  H   UNL     1      45.463   2.644   9.712  0.00  0.00    +0.000 HD
ENDBRANCH   4  13
ENDBRANCH   1   8
BRANCH   1  17
ATOM     17  C   UNL     1      47.967   8.122  14.512  0.00  0.00    +0.000 A 
ATOM     18  C   UNL     1      48.257   9.164  15.409  0.00  0.00    +0.000 A 
ATOM     19  C   UNL     1      48.851   8.916  16.645  0.00  0.00    +0.000 A 
ATOM     20  C   UNL     1      49.129   7.605  17.030  0.00  0.00    +0.000 A 
ATOM     21  C   UNL     1      48.823   6.521  16.191  0.00  0.00    +0.000 A 
ATOM     22  C   UNL     1      48.286   6.811  14.922  0.00  0.00    +0.000 A 
BRANCH  21  23
ATOM     23  C   UNL     1      48.974   5.125  16.650  0.00  0.00    +0.000 A 
ATOM     24  C   UNL     1      47.897   4.232  16.639  0.00  0.00    +0.000 A 
ATOM     25  C   UNL     1      48.097   2.913  17.029  0.00  0.00    +0.000 A 
ATOM     26  C   UNL     1      49.362   2.511  17.420  0.00  0.00    +0.000 A 
ATOM     27  C   UNL     1      50.377   3.451  17.402  0.00  0.00    +0.000 A 
ATOM     28  F   UNL     1      51.607   3.061  17.766  0.00  0.00    +0.000 F 
ATOM     29  N   UNL     1      50.218   4.737  17.023  0.00  0.00    +0.000 NA
ENDBRANCH  21  23
ENDBRANCH   1  17
TORSDOF 4
ENDMDL
MODEL 9
REMARK VINA RESULT:    -6.953      3.041      7.383
REMARK INTER + INTRA:          -9.474
REMARK INTER:                  -9.399
REMARK INTRA:                  -0.075
REMARK UNBOUND:                -0.895
REMARK  Name = 
REMARK  4 active torsions:
REMARK  status: ('A' for Active; 'I' for Inactive)
REMARK    1  A    between atoms: C_2  and  C_4
REMARK    2  A    between atoms: N_8  and  C_9
REMARK    3  A    between atoms: C_9  and  C_10
REMARK    4  A    between atoms: C_14  and  C_15
REMARK                            x       y       z     vdW  Elec       q    Type
REMARK                         _______ _______ _______ _____ _____    ______ ____
ROOT
ATOM      1  C   UNL     1      45.656   6.373  12.210  0.00  0.00    +0.000 C 
ATOM      2  C   UNL     1      46.805   7.058  11.477  0.00  0.00    +0.000 C 
ATOM      3  C   UNL     1      45.455   7.691  11.486  0.00  0.00    +0.000 C 
ENDROOT
BRANCH   1   8
ATOM      4  C   UNL     1      48.100   3.486  15.770  0.00  0.00    +0.000 A 
ATOM      5  C   UNL     1      47.440   3.068  14.621  0.00  0.00    +0.000 A 
ATOM      6  C   UNL     1      46.707   3.995  13.878  0.00  0.00    +0.000 A 
ATOM      7  C   UNL     1      46.637   5.316  14.302  0.00  0.00    +0.000 A 
ATOM      8  N   UNL     1      45.838   6.277  13.671  0.00  0.00    +0.000 N 
ATOM      9  N   UNL     1      47.268   5.734  15.420  0.00  0.00    +0.000 NA
ATOM     10  C   UNL     1      47.980   4.819  16.130  0.00  0.00    +0.000 A 
ATOM     11  H   UNL     1      46.046   7.153  14.147  0.00  0.00    +0.000 HD
BRANCH   4  13
ATOM     12  N   UNL     1      48.834   2.802  17.982  0.00  0.00    +0.000 N 
ATOM     13  C   UNL     1      48.876   2.572  16.634  0.00  0.00    +0.000 C 
ATOM     14  O   UNL     1      49.510   1.635  16.172  0.00  0.00    +0.000 OA
ATOM     15  H   UNL     1      49.303   2.122  18.570  0.00  0.00    +0.000 HD
ATOM     16  H   UNL     1      48.150   3.404  18.416  0.00  0.00    +0.000 HD
ENDBRANCH   4  13
ENDBRANCH   1   8
BRANCH   1  17
ATOM     17  C   UNL     1      45.055   5.112  11.595  0.00  0.00    +0.000 A 
ATOM     18  C   UNL     1      43.800   4.626  11.998  0.00  0.00    +0.000 A 
ATOM     19  C   UNL     1      43.220   3.514  11.391  0.00  0.00    +0.000 A 
ATOM     20  C   UNL     1      43.870   2.886  10.330  0.00  0.00    +0.000 A 
ATOM     21  C   UNL     1      45.108   3.352   9.858  0.00  0.00    +0.000 A 
ATOM     22  C   UNL     1      45.698   4.436  10.537  0.00  0.00    +0.000 A 
BRANCH  21  23
ATOM     23  C   UNL     1      45.731   2.789   8.643  0.00  0.00    +0.000 A 
ATOM     24  C   UNL     1      46.088   3.602   7.561  0.00  0.00    +0.000 A 
ATOM     25  C   UNL     1      46.721   3.037   6.459  0.00  0.00    +0.000 A 
ATOM     26  C   UNL     1      46.984   1.679   6.458  0.00  0.00    +0.000 A 
ATOM     27  C   UNL     1      46.604   0.942   7.565  0.00  0.00    +0.000 A 
ATOM     28  F   UNL     1      46.872  -0.372   7.572  0.00  0.00    +0.000 F 
ATOM     29  N   UNL     1      45.994   1.460   8.652  0.00  0.00    +0.000 NA
ENDBRANCH  21  23
ENDBRANCH   1  17
TORSDOF 4
ENDMDL
