MODEL 1
REMARK VINA RESULT:    -9.553      0.000      0.000
REMARK INTER + INTRA:         -13.162
REMARK INTER:                 -12.625
REMARK INTRA:                  -0.538
REMARK UNBOUND:                -0.538
REMARK  Name = 
REMARK  6 active torsions:
REMARK  status: ('A' for Active; 'I' for Inactive)
REMARK    1  A    between atoms: C_2  and  C_4
REMARK    2  A    between atoms: C_7  and  N_8
REMARK    3  A    between atoms: N_8  and  C_9
REMARK    4  A    between atoms: C_9  and  C_10
REMARK    5  A    between atoms: C_14  and  C_15
REMARK    6  A    between atoms: C_19  and  O_20
REMARK                            x       y       z     vdW  Elec       q    Type
REMARK                         _______ _______ _______ _____ _____    ______ ____
ROOT
ATOM      1  C   UNL     1      44.096   4.771  11.533  0.00  0.00    +0.000 C 
ATOM      2  C   UNL     1      43.353   3.737  12.367  0.00  0.00    +0.000 C 
ATOM      3  C   UNL     1      42.891   5.153  12.388  0.00  0.00    +0.000 C 
ENDROOT
BRANCH   1   4
ATOM      4  C   UNL     1      45.431   5.313  12.033  0.00  0.00    +0.000 A 
ATOM      5  C   UNL     1      46.100   6.347  11.359  0.00  0.00    +0.000 A 
ATOM      6  C   UNL     1      47.234   6.948  11.902  0.00  0.00    +0.000 A 
ATOM      7  C   UNL     1      47.713   6.531  13.144  0.00  0.00    +0.000 A 
ATOM      8  C   UNL     1      47.089   5.488  13.848  0.00  0.00    +0.000 A 
ATOM      9  C   UNL     1      45.983   4.865  13.246  0.00  0.00    +0.000 A 
BRANCH   8  10
ATOM     10  C   UNL     1      47.492   5.131  15.220  0.00  0.00    +0.000 A 
ATOM     11  C   UNL     1      48.562   5.745  15.880  0.00  0.00    +0.000 A 
ATOM     12  N   UNL     1      49.028   5.390  17.107  0.00  0.00    +0.000 NA
ATOM     13  C   UNL     1      48.391   4.368  17.718  0.00  0.00    +0.000 A 
ATOM     14  C   UNL     1      47.313   3.700  17.164  0.00  0.00    +0.000 A 
ATOM     15  C   UNL     1      46.864   4.083  15.908  0.00  0.00    +0.000 A 
BRANCH  14  16
ATOM     16  O   UNL     1      46.676   2.666  17.781  0.00  0.00    +0.000 OA
ATOM     17  H   UNL     1      45.783   2.950  18.033  0.00  0.00    +0.000 HD
ENDBRANCH  14  16
ENDBRANCH   8  10
ENDBRANCH   1   4
BRANCH   1  18
ATOM     18  N   UNL     1      43.949   4.774  10.061  0.00  0.00    +0.000 N 
ATOM     19  H   UNL     1      42.997   4.656   9.730  0.00  0.00    +0.000 HD
BRANCH  18  23
ATOM     20  C   UNL     1      46.433   2.361   7.818  0.00  0.00    +0.000 A 
ATOM     21  C   UNL     1      46.407   3.729   7.607  0.00  0.00    +0.000 A 
ATOM     22  N   UNL     1      45.604   4.562   8.321  0.00  0.00    +0.000 NA
ATOM     23  C   UNL     1      44.830   3.994   9.274  0.00  0.00    +0.000 A 
ATOM     24  C   UNL     1      44.871   2.606   9.467  0.00  0.00    +0.000 A 
ATOM     25  N   UNL     1      45.661   1.754   8.760  0.00  0.00    +0.000 NA
BRANCH  20  27
ATOM     26  N   UNL     1      48.325   2.150   6.325  0.00  0.00    +0.000 N 
ATOM     27  C   UNL     1      47.316   1.501   6.986  0.00  0.00    +0.000 C 
ATOM     28  O   UNL     1      47.171   0.286   6.906  0.00  0.00    +0.000 OA
ATOM     29  H   UNL     1      48.983   1.616   5.773  0.00  0.00    +0.000 HD
ATOM     30  H   UNL     1      48.444   3.151   6.436  0.00  0.00    +0.000 HD
ENDBRANCH  20  27
ENDBRANCH  18  23
ENDBRANCH   1  18
TORSDOF 6
ENDMDL
MODEL 2
REMARK VINA RESULT:    -8.720      2.876      3.902
REMARK INTER + INTRA:         -12.061
REMARK INTER:                 -11.443
REMARK INTRA:                  -0.618
REMARK UNBOUND:                -0.538
REMARK  Name = 
REMARK  6 active torsions:
REMARK  status: ('A' for Active; 'I' for Inactive)
REMARK    1  A    between atoms: C_2  and  C_4
REMARK    2  A    between atoms: C_7  and  N_8
REMARK    3  A    between atoms: N_8  and  C_9
REMARK    4  A    between atoms: C_9  and  C_10
REMARK    5  A    between atoms: C_14  and  C_15
REMARK    6  A    between atoms: C_19  and  O_20
REMARK                            x       y       z     vdW  Elec       q    Type
REMARK                         _______ _______ _______ _____ _____    ______ ____
ROOT
ATOM      1  C   UNL     1      43.804   4.996  11.213  0.00  0.00    +0.000 C 
ATOM      2  C   UNL     1      42.721   4.065  11.739  0.00  0.00    +0.000 C 
ATOM      3  C   UNL     1      42.491   5.537  11.773  0.00  0.00    +0.000 C 
ENDROOT
BRANCH   1   4
ATOM      4  C   UNL     1      45.030   5.277  12.076  0.00  0.00    +0.000 A 
ATOM      5  C   UNL     1      45.585   4.287  12.903  0.00  0.00    +0.000 A 
ATOM      6  C   UNL     1      46.793   4.495  13.565  0.00  0.00    +0.000 A 
ATOM      7  C   UNL     1      47.478   5.699  13.401  0.00  0.00    +0.000 A 
ATOM      8  C   UNL     1      46.954   6.726  12.599  0.00  0.00    +0.000 A 
ATOM      9  C   UNL     1      45.706   6.507  11.991  0.00  0.00    +0.000 A 
BRANCH   8  10
ATOM     10  C   UNL     1      47.727   7.944  12.299  0.00  0.00    +0.000 A 
ATOM     11  C   UNL     1      48.927   7.923  11.580  0.00  0.00    +0.000 A 
ATOM     12  N   UNL     1      49.720   9.004  11.354  0.00  0.00    +0.000 NA
ATOM     13  C   UNL     1      49.296  10.177  11.871  0.00  0.00    +0.000 A 
ATOM     14  C   UNL     1      48.119  10.316  12.586  0.00  0.00    +0.000 A 
ATOM     15  C   UNL     1      47.333   9.193  12.802  0.00  0.00    +0.000 A 
BRANCH  14  16
ATOM     16  O   UNL     1      47.696  11.500  13.110  0.00  0.00    +0.000 OA
ATOM     17  H   UNL     1      48.400  11.866  13.670  0.00  0.00    +0.000 HD
ENDBRANCH  14  16
ENDBRANCH   8  10
ENDBRANCH   1   4
BRANCH   1  18
ATOM     18  N   UNL     1      44.046   5.097   9.757  0.00  0.00    +0.000 N 
ATOM     19  H   UNL     1      43.215   5.261   9.199  0.00  0.00    +0.000 HD
BRANCH  18  23
ATOM     20  C   UNL     1      46.330   2.163   7.968  0.00  0.00    +0.000 A 
ATOM     21  C   UNL     1      46.479   3.488   7.600  0.00  0.00    +0.000 A 
ATOM     22  N   UNL     1      45.748   4.488   8.161  0.00  0.00    +0.000 NA
ATOM     23  C   UNL     1      44.865   4.132   9.123  0.00  0.00    +0.000 A 
ATOM     24  C   UNL     1      44.729   2.781   9.476  0.00  0.00    +0.000 A 
ATOM     25  N   UNL     1      45.446   1.766   8.923  0.00  0.00    +0.000 NA
BRANCH  20  27
ATOM     26  N   UNL     1      46.817  -0.180   7.607  0.00  0.00    +0.000 N 
ATOM     27  C   UNL     1      47.144   1.113   7.298  0.00  0.00    +0.000 C 
ATOM     28  O   UNL     1      48.041   1.379   6.506  0.00  0.00    +0.000 OA
ATOM     29  H   UNL     1      47.308  -0.940   7.156  0.00  0.00    +0.000 HD
ATOM     30  H   UNL     1      46.047  -0.373   8.240  0.00  0.00    +0.000 HD
ENDBRANCH  20  27
ENDBRANCH  18  23
ENDBRANCH   1  18
TORSDOF 6
ENDMDL
MODEL 3
REMARK VINA RESULT:    -8.485      2.206      2.722
REMARK INTER + INTRA:         -11.751
REMARK INTER:                 -11.141
REMARK INTRA:                  -0.610
REMARK UNBOUND:                -0.538
REMARK  Name = 
REMARK  6 active torsions:
REMARK  status: ('A' for Active; 'I' for Inactive)
REMARK    1  A    between atoms: C_2  and  C_4
REMARK    2  A    between atoms: C_7  and  N_8
REMARK    3  A    between atoms: N_8  and  C_9
REMARK    4  A    between atoms: C_9  and  C_10
REMARK    5  A    between atoms: C_14  and  C_15
REMARK    6  A    between atoms: C_19  and  O_20
REMARK                            x       y       z     vdW  Elec       q    Type
REMARK                         _______ _______ _______ _____ _____    ______ ____
ROOT
ATOM      1  C   UNL     1      44.161   5.050  11.431  0.00  0.00    +0.000 C 
ATOM      2  C   UNL     1      44.252   3.887  12.410  0.00  0.00    +0.000 C 
ATOM      3  C   UNL     1      43.070   4.793  12.468  0.00  0.00    +0.000 C 
ENDROOT
BRANCH   1   4
ATOM      4  C   UNL     1      44.997   6.301  11.681  0.00  0.00    +0.000 A 
ATOM      5  C   UNL     1      44.507   7.581  11.377  0.00  0.00    +0.000 A 
ATOM      6  C   UNL     1      45.203   8.728  11.751  0.00  0.00    +0.000 A 
ATOM      7  C   UNL     1      46.403   8.614  12.454  0.00  0.00    +0.000 A 
ATOM      8  C   UNL     1      46.943   7.356  12.765  0.00  0.00    +0.000 A 
ATOM      9  C   UNL     1      46.245   6.219  12.322  0.00  0.00    +0.000 A 
BRANCH   8  10
ATOM     10  C   UNL     1      48.130   7.214  13.626  0.00  0.00    +0.000 A 
ATOM     11  C   UNL     1      48.173   6.345  14.721  0.00  0.00    +0.000 A 
ATOM     12  N   UNL     1      49.208   6.244  15.596  0.00  0.00    +0.000 NA
ATOM     13  C   UNL     1      50.267   7.052  15.370  0.00  0.00    +0.000 A 
ATOM     14  C   UNL     1      50.337   7.939  14.309  0.00  0.00    +0.000 A 
ATOM     15  C   UNL     1      49.262   8.021  13.436  0.00  0.00    +0.000 A 
BRANCH  14  16
ATOM     16  O   UNL     1      51.404   8.756  14.087  0.00  0.00    +0.000 OA
ATOM     17  H   UNL     1      51.085   9.604  13.739  0.00  0.00    +0.000 HD
ENDBRANCH  14  16
ENDBRANCH   8  10
ENDBRANCH   1   4
BRANCH   1  18
ATOM     18  N   UNL     1      43.858   4.792  10.007  0.00  0.00    +0.000 N 
ATOM     19  H   UNL     1      42.923   4.439   9.829  0.00  0.00    +0.000 HD
BRANCH  18  23
ATOM     20  C   UNL     1      46.501   2.591   7.728  0.00  0.00    +0.000 A 
ATOM     21  C   UNL     1      46.492   3.973   7.652  0.00  0.00    +0.000 A 
ATOM     22  N   UNL     1      45.639   4.738   8.382  0.00  0.00    +0.000 NA
ATOM     23  C   UNL     1      44.795   4.086   9.215  0.00  0.00    +0.000 A 
ATOM     24  C   UNL     1      44.820   2.685   9.272  0.00  0.00    +0.000 A 
ATOM     25  N   UNL     1      45.661   1.900   8.546  0.00  0.00    +0.000 NA
BRANCH  20  27
ATOM     26  N   UNL     1      48.539   2.494   6.428  0.00  0.00    +0.000 N 
ATOM     27  C   UNL     1      47.444   1.810   6.884  0.00  0.00    +0.000 C 
ATOM     28  O   UNL     1      47.270   0.625   6.623  0.00  0.00    +0.000 OA
ATOM     29  H   UNL     1      49.237   2.009   5.881  0.00  0.00    +0.000 HD
ATOM     30  H   UNL     1      48.677   3.465   6.688  0.00  0.00    +0.000 HD
ENDBRANCH  20  27
ENDBRANCH  18  23
ENDBRANCH   1  18
TORSDOF 6
ENDMDL
MODEL 4
REMARK VINA RESULT:    -8.226      2.041      2.505
REMARK INTER + INTRA:         -11.408
REMARK INTER:                 -10.786
REMARK INTRA:                  -0.622
REMARK UNBOUND:                -0.538
REMARK  Name = 
REMARK  6 active torsions:
REMARK  status: ('A' for Active; 'I' for Inactive)
REMARK    1  A    between atoms: C_2  and  C_4
REMARK    2  A    between atoms: C_7  and  N_8
REMARK    3  A    between atoms: N_8  and  C_9
REMARK    4  A    between atoms: C_9  and  C_10
REMARK    5  A    between atoms: C_14  and  C_15
REMARK    6  A    between atoms: C_19  and  O_20
REMARK                            x       y       z     vdW  Elec       q    Type
REMARK                         _______ _______ _______ _____ _____    ______ ____
ROOT
ATOM      1  C   UNL     1      44.183   5.094  11.463  0.00  0.00    +0.000 C 
ATOM      2  C   UNL     1      44.537   3.979  12.437  0.00  0.00    +0.000 C 
ATOM      3  C   UNL     1      43.230   4.680  12.582  0.00  0.00    +0.000 C 
ENDROOT
BRANCH   1   4
ATOM      4  C   UNL     1      44.818   6.469  11.642  0.00  0.00    +0.000 A 
ATOM      5  C   UNL     1      44.195   7.631  11.158  0.00  0.00    +0.000 A 
ATOM      6  C   UNL     1      44.694   8.897  11.461  0.00  0.00    +0.000 A 
ATOM      7  C   UNL     1      45.824   9.023  12.270  0.00  0.00    +0.000 A 
ATOM      8  C   UNL     1      46.492   7.890  12.762  0.00  0.00    +0.000 A 
ATOM      9  C   UNL     1      45.997   6.628  12.391  0.00  0.00    +0.000 A 
BRANCH   8  10
ATOM     10  C   UNL     1      47.596   8.003  13.730  0.00  0.00    +0.000 A 
ATOM     11  C   UNL     1      48.287   9.199  13.957  0.00  0.00    +0.000 A 
ATOM     12  N   UNL     1      49.367   9.333  14.771  0.00  0.00    +0.000 NA
ATOM     13  C   UNL     1      49.787   8.215  15.401  0.00  0.00    +0.000 A 
ATOM     14  C   UNL     1      49.171   6.983  15.261  0.00  0.00    +0.000 A 
ATOM     15  C   UNL     1      48.072   6.878  14.420  0.00  0.00    +0.000 A 
BRANCH  14  16
ATOM     16  O   UNL     1      49.600   5.856  15.894  0.00  0.00    +0.000 OA
ATOM     17  H   UNL     1      49.185   5.083  15.478  0.00  0.00    +0.000 HD
ENDBRANCH  14  16
ENDBRANCH   8  10
ENDBRANCH   1   4
BRANCH   1  18
ATOM     18  N   UNL     1      43.820   4.766  10.067  0.00  0.00    +0.000 N 
ATOM     19  H   UNL     1      42.896   4.364   9.953  0.00  0.00    +0.000 HD
BRANCH  18  23
ATOM     20  C   UNL     1      46.442   2.600   7.731  0.00  0.00    +0.000 A 
ATOM     21  C   UNL     1      46.398   3.980   7.639  0.00  0.00    +0.000 A 
ATOM     22  N   UNL     1      45.550   4.734   8.387  0.00  0.00    +0.000 NA
ATOM     23  C   UNL     1      44.749   4.073   9.254  0.00  0.00    +0.000 A 
ATOM     24  C   UNL     1      44.809   2.674   9.327  0.00  0.00    +0.000 A 
ATOM     25  N   UNL     1      45.645   1.900   8.583  0.00  0.00    +0.000 NA
BRANCH  20  27
ATOM     26  N   UNL     1      48.466   2.523   6.407  0.00  0.00    +0.000 N 
ATOM     27  C   UNL     1      47.377   1.832   6.866  0.00  0.00    +0.000 C 
ATOM     28  O   UNL     1      47.201   0.650   6.592  0.00  0.00    +0.000 OA
ATOM     29  H   UNL     1      49.158   2.046   5.845  0.00  0.00    +0.000 HD
ATOM     30  H   UNL     1      48.605   3.491   6.678  0.00  0.00    +0.000 HD
ENDBRANCH  20  27
ENDBRANCH  18  23
ENDBRANCH   1  18
TORSDOF 6
ENDMDL
MODEL 5
REMARK VINA RESULT:    -7.575      1.801      7.602
REMARK INTER + INTRA:         -10.548
REMARK INTER:                 -10.956
REMARK INTRA:                   0.408
REMARK UNBOUND:                -0.538
REMARK  Name = 
REMARK  6 active torsions:
REMARK  status: ('A' for Active; 'I' for Inactive)
REMARK    1  A    between atoms: C_2  and  C_4
REMARK    2  A    between atoms: C_7  and  N_8
REMARK    3  A    between atoms: N_8  and  C_9
REMARK    4  A    between atoms: C_9  and  C_10
REMARK    5  A    between atoms: C_14  and  C_15
REMARK    6  A    between atoms: C_19  and  O_20
REMARK                            x       y       z     vdW  Elec       q    Type
REMARK                         _______ _______ _______ _____ _____    ______ ____
ROOT
ATOM      1  C   UNL     1      46.319   7.300  12.249  0.00  0.00    +0.000 C 
ATOM      2  C   UNL     1      46.289   8.747  11.777  0.00  0.00    +0.000 C 
ATOM      3  C   UNL     1      45.677   8.400  13.090  0.00  0.00    +0.000 C 
ENDROOT
BRANCH   1   4
ATOM      4  C   UNL     1      45.335   6.301  11.648  0.00  0.00    +0.000 A 
ATOM      5  C   UNL     1      43.949   6.443  11.823  0.00  0.00    +0.000 A 
ATOM      6  C   UNL     1      43.049   5.624  11.144  0.00  0.00    +0.000 A 
ATOM      7  C   UNL     1      43.522   4.651  10.263  0.00  0.00    +0.000 A 
ATOM      8  C   UNL     1      44.900   4.459  10.069  0.00  0.00    +0.000 A 
ATOM      9  C   UNL     1      45.782   5.262  10.812  0.00  0.00    +0.000 A 
BRANCH   8  10
ATOM     10  C   UNL     1      45.416   3.538   9.041  0.00  0.00    +0.000 A 
ATOM     11  C   UNL     1      45.437   2.149   9.208  0.00  0.00    +0.000 A 
ATOM     12  N   UNL     1      45.982   1.267   8.330  0.00  0.00    +0.000 NA
ATOM     13  C   UNL     1      46.537   1.792   7.217  0.00  0.00    +0.000 A 
ATOM     14  C   UNL     1      46.559   3.149   6.943  0.00  0.00    +0.000 A 
ATOM     15  C   UNL     1      45.997   4.025   7.861  0.00  0.00    +0.000 A 
BRANCH  14  16
ATOM     16  O   UNL     1      47.124   3.677   5.822  0.00  0.00    +0.000 OA
ATOM     17  H   UNL     1      48.085   3.739   5.951  0.00  0.00    +0.000 HD
ENDBRANCH  14  16
ENDBRANCH   8  10
ENDBRANCH   1   4
BRANCH   1  18
ATOM     18  N   UNL     1      47.589   6.703  12.715  0.00  0.00    +0.000 N 
ATOM     19  H   UNL     1      48.127   6.235  11.993  0.00  0.00    +0.000 HD
BRANCH  18  23
ATOM     20  C   UNL     1      47.540   4.306  16.073  0.00  0.00    +0.000 A 
ATOM     21  C   UNL     1      48.295   5.466  16.051  0.00  0.00    +0.000 A 
ATOM     22  N   UNL     1      48.343   6.284  14.966  0.00  0.00    +0.000 NA
ATOM     23  C   UNL     1      47.595   5.925  13.898  0.00  0.00    +0.000 A 
ATOM     24  C   UNL     1      46.841   4.743  13.943  0.00  0.00    +0.000 A 
ATOM     25  N   UNL     1      46.785   3.907  15.014  0.00  0.00    +0.000 NA
BRANCH  20  27
ATOM     26  N   UNL     1      48.716   3.438  18.001  0.00  0.00    +0.000 N 
ATOM     27  C   UNL     1      47.550   3.441  17.283  0.00  0.00    +0.000 C 
ATOM     28  O   UNL     1      46.576   2.783  17.632  0.00  0.00    +0.000 OA
ATOM     29  H   UNL     1      48.774   2.899  18.855  0.00  0.00    +0.000 HD
ATOM     30  H   UNL     1      49.495   4.018  17.709  0.00  0.00    +0.000 HD
ENDBRANCH  20  27
ENDBRANCH  18  23
ENDBRANCH   1  18
TORSDOF 6
ENDMDL
MODEL 6
REMARK VINA RESULT:    -7.373      2.040      7.941
REMARK INTER + INTRA:         -10.281
REMARK INTER:                  -9.750
REMARK INTRA:                  -0.531
REMARK UNBOUND:                -0.538
REMARK  Name = 
REMARK  6 active torsions:
REMARK  status: ('A' for Active; 'I' for Inactive)
REMARK    1  A    between atoms: C_2  and  C_4
REMARK    2  A    between atoms: C_7  and  N_8
REMARK    3  A    between atoms: N_8  and  C_9
REMARK    4  A    between atoms: C_9  and  C_10
REMARK    5  A    between atoms: C_14  and  C_15
REMARK    6  A    between atoms: C_19  and  O_20
REMARK                            x       y       z     vdW  Elec       q    Type
REMARK                         _______ _______ _______ _____ _____    ______ ____
ROOT
ATOM      1  C   UNL     1      46.378   5.289  13.776  0.00  0.00    +0.000 C 
ATOM      2  C   UNL     1      47.745   5.698  13.246  0.00  0.00    +0.000 C 
ATOM      3  C   UNL     1      46.744   6.756  13.564  0.00  0.00    +0.000 C 
ENDROOT
BRANCH   1   4
ATOM      4  C   UNL     1      45.334   4.746  12.806  0.00  0.00    +0.000 A 
ATOM      5  C   UNL     1      43.968   5.027  12.968  0.00  0.00    +0.000 A 
ATOM      6  C   UNL     1      43.037   4.666  11.996  0.00  0.00    +0.000 A 
ATOM      7  C   UNL     1      43.461   4.025  10.832  0.00  0.00    +0.000 A 
ATOM      8  C   UNL     1      44.814   3.706  10.633  0.00  0.00    +0.000 A 
ATOM      9  C   UNL     1      45.718   4.032  11.657  0.00  0.00    +0.000 A 
BRANCH   8  10
ATOM     10  C   UNL     1      45.300   3.160   9.353  0.00  0.00    +0.000 A 
ATOM     11  C   UNL     1      45.392   1.787   9.101  0.00  0.00    +0.000 A 
ATOM     12  N   UNL     1      45.916   1.235   7.974  0.00  0.00    +0.000 NA
ATOM     13  C   UNL     1      46.373   2.096   7.040  0.00  0.00    +0.000 A 
ATOM     14  C   UNL     1      46.319   3.473   7.179  0.00  0.00    +0.000 A 
ATOM     15  C   UNL     1      45.781   4.005   8.343  0.00  0.00    +0.000 A 
BRANCH  14  16
ATOM     16  O   UNL     1      46.785   4.339   6.238  0.00  0.00    +0.000 OA
ATOM     17  H   UNL     1      47.740   4.461   6.366  0.00  0.00    +0.000 HD
ENDBRANCH  14  16
ENDBRANCH   8  10
ENDBRANCH   1   4
BRANCH   1  18
ATOM     18  N   UNL     1      46.245   4.786  15.161  0.00  0.00    +0.000 N 
ATOM     19  H   UNL     1      45.781   5.423  15.800  0.00  0.00    +0.000 HD
BRANCH  18  23
ATOM     20  C   UNL     1      49.516   2.960  16.891  0.00  0.00    +0.000 A 
ATOM     21  C   UNL     1      49.153   4.244  17.259  0.00  0.00    +0.000 A 
ATOM     22  N   UNL     1      48.085   4.885  16.715  0.00  0.00    +0.000 NA
ATOM     23  C   UNL     1      47.366   4.201  15.796  0.00  0.00    +0.000 A 
ATOM     24  C   UNL     1      47.755   2.902  15.436  0.00  0.00    +0.000 A 
ATOM     25  N   UNL     1      48.823   2.245  15.963  0.00  0.00    +0.000 NA
BRANCH  20  27
ATOM     26  N   UNL     1      51.395   3.093  18.409  0.00  0.00    +0.000 N 
ATOM     27  C   UNL     1      50.710   2.323  17.506  0.00  0.00    +0.000 C 
ATOM     28  O   UNL     1      51.057   1.177  17.243  0.00  0.00    +0.000 OA
ATOM     29  H   UNL     1      52.194   2.704  18.890  0.00  0.00    +0.000 HD
ATOM     30  H   UNL     1      51.066   4.026  18.634  0.00  0.00    +0.000 HD
ENDBRANCH  20  27
ENDBRANCH  18  23
ENDBRANCH   1  18
TORSDOF 6
ENDMDL
MODEL 7
REMARK VINA RESULT:    -7.252      2.014      7.806
REMARK INTER + INTRA:         -10.122
REMARK INTER:                  -9.980
REMARK INTRA:                  -0.142
REMARK UNBOUND:                -0.538
REMARK  Name = 
REMARK  6 active torsions:
REMARK  status: ('A' for Active; 'I' for Inactive)
REMARK    1  A    between atoms: C_2  and  C_4
REMARK    2  A    between atoms: C_7  and  N_8
REMARK    3  A    between atoms: N_8  and  C_9
REMARK    4  A    between atoms: C_9  and  C_10
REMARK    5  A    between atoms: C_14  and  C_15
REMARK    6  A    between atoms: C_19  and  O_20
REMARK                            x       y       z     vdW  Elec       q    Type
REMARK                         _______ _______ _______ _____ _____    ______ ____
ROOT
ATOM      1  C   UNL     1      48.614   7.817  12.796  0.00  0.00    +0.000 C 
ATOM      2  C   UNL     1      49.733   7.381  11.861  0.00  0.00    +0.000 C 
ATOM      3  C   UNL     1      49.345   8.819  11.908  0.00  0.00    +0.000 C 
ENDROOT
BRANCH   1   4
ATOM      4  C   UNL     1      47.165   7.551  12.399  0.00  0.00    +0.000 A 
ATOM      5  C   UNL     1      46.145   8.470  12.696  0.00  0.00    +0.000 A 
ATOM      6  C   UNL     1      44.856   8.302  12.195  0.00  0.00    +0.000 A 
ATOM      7  C   UNL     1      44.565   7.214  11.372  0.00  0.00    +0.000 A 
ATOM      8  C   UNL     1      45.547   6.258  11.063  0.00  0.00    +0.000 A 
ATOM      9  C   UNL     1      46.822   6.425  11.630  0.00  0.00    +0.000 A 
BRANCH   8  10
ATOM     10  C   UNL     1      45.301   5.184  10.085  0.00  0.00    +0.000 A 
ATOM     11  C   UNL     1      44.425   4.121  10.331  0.00  0.00    +0.000 A 
ATOM     12  N   UNL     1      44.232   3.062   9.501  0.00  0.00    +0.000 NA
ATOM     13  C   UNL     1      44.947   3.059   8.355  0.00  0.00    +0.000 A 
ATOM     14  C   UNL     1      45.831   4.065   8.004  0.00  0.00    +0.000 A 
ATOM     15  C   UNL     1      46.009   5.131   8.875  0.00  0.00    +0.000 A 
BRANCH  14  16
ATOM     16  O   UNL     1      46.555   4.056   6.851  0.00  0.00    +0.000 OA
ATOM     17  H   UNL     1      47.176   3.310   6.874  0.00  0.00    +0.000 HD
ENDBRANCH  14  16
ENDBRANCH   8  10
ENDBRANCH   1   4
BRANCH   1  18
ATOM     18  N   UNL     1      48.848   7.862  14.256  0.00  0.00    +0.000 N 
ATOM     19  H   UNL     1      49.766   8.199  14.527  0.00  0.00    +0.000 HD
BRANCH  18  23
ATOM     20  C   UNL     1      47.835   4.702  16.708  0.00  0.00    +0.000 A 
ATOM     21  C   UNL     1      47.576   4.646  15.350  0.00  0.00    +0.000 A 
ATOM     22  N   UNL     1      47.891   5.663  14.505  0.00  0.00    +0.000 NA
ATOM     23  C   UNL     1      48.494   6.744  15.049  0.00  0.00    +0.000 A 
ATOM     24  C   UNL     1      48.743   6.780  16.429  0.00  0.00    +0.000 A 
ATOM     25  N   UNL     1      48.431   5.777  17.294  0.00  0.00    +0.000 NA
BRANCH  20  27
ATOM     26  N   UNL     1      48.287   3.304  18.631  0.00  0.00    +0.000 N 
ATOM     27  C   UNL     1      47.444   3.565  17.583  0.00  0.00    +0.000 C 
ATOM     28  O   UNL     1      46.424   2.910  17.398  0.00  0.00    +0.000 OA
ATOM     29  H   UNL     1      48.057   2.567  19.284  0.00  0.00    +0.000 HD
ATOM     30  H   UNL     1      49.106   3.884  18.781  0.00  0.00    +0.000 HD
ENDBRANCH  20  27
ENDBRANCH  18  23
ENDBRANCH   1  18
TORSDOF 6
ENDMDL
MODEL 8
REMARK VINA RESULT:    -6.859      2.718      4.469
REMARK INTER + INTRA:          -9.603
REMARK INTER:                  -9.392
REMARK INTRA:                  -0.211
REMARK UNBOUND:                -0.538
REMARK  Name = 
REMARK  6 active torsions:
REMARK  status: ('A' for Active; 'I' for Inactive)
REMARK    1  A    between atoms: C_2  and  C_4
REMARK    2  A    between atoms: C_7  and  N_8
REMARK    3  A    between atoms: N_8  and  C_9
REMARK    4  A    between atoms: C_9  and  C_10
REMARK    5  A    between atoms: C_14  and  C_15
REMARK    6  A    between atoms: C_19  and  O_20
REMARK                            x       y       z     vdW  Elec       q    Type
REMARK                         _______ _______ _______ _____ _____    ______ ____
ROOT
ATOM      1  C   UNL     1      47.534   8.209  13.021  0.00  0.00    +0.000 C 
ATOM      2  C   UNL     1      48.014   9.183  11.955  0.00  0.00    +0.000 C 
ATOM      3  C   UNL     1      48.257   7.724  11.768  0.00  0.00    +0.000 C 
ENDROOT
BRANCH   1   4
ATOM      4  C   UNL     1      48.332   8.065  14.314  0.00  0.00    +0.000 A 
ATOM      5  C   UNL     1      48.849   9.186  14.982  0.00  0.00    +0.000 A 
ATOM      6  C   UNL     1      49.438   9.068  16.240  0.00  0.00    +0.000 A 
ATOM      7  C   UNL     1      49.507   7.821  16.860  0.00  0.00    +0.000 A 
ATOM      8  C   UNL     1      49.020   6.668  16.224  0.00  0.00    +0.000 A 
ATOM      9  C   UNL     1      48.485   6.812  14.932  0.00  0.00    +0.000 A 
BRANCH   8  10
ATOM     10  C   UNL     1      48.954   5.370  16.918  0.00  0.00    +0.000 A 
ATOM     11  C   UNL     1      50.087   4.719  17.419  0.00  0.00    +0.000 A 
ATOM     12  N   UNL     1      50.089   3.484  17.986  0.00  0.00    +0.000 NA
ATOM     13  C   UNL     1      48.896   2.856  18.063  0.00  0.00    +0.000 A 
ATOM     14  C   UNL     1      47.711   3.412  17.612  0.00  0.00    +0.000 A 
ATOM     15  C   UNL     1      47.742   4.673  17.035  0.00  0.00    +0.000 A 
BRANCH  14  16
ATOM     16  O   UNL     1      46.510   2.774  17.687  0.00  0.00    +0.000 OA
ATOM     17  H   UNL     1      46.078   3.010  18.524  0.00  0.00    +0.000 HD
ENDBRANCH  14  16
ENDBRANCH   8  10
ENDBRANCH   1   4
BRANCH   1  18
ATOM     18  N   UNL     1      46.089   7.922  13.161  0.00  0.00    +0.000 N 
ATOM     19  H   UNL     1      45.702   8.132  14.075  0.00  0.00    +0.000 HD
BRANCH  18  23
ATOM     20  C   UNL     1      44.584   4.387  11.656  0.00  0.00    +0.000 A 
ATOM     21  C   UNL     1      45.274   4.401  12.856  0.00  0.00    +0.000 A 
ATOM     22  N   UNL     1      45.788   5.541  13.389  0.00  0.00    +0.000 NA
ATOM     23  C   UNL     1      45.581   6.685  12.698  0.00  0.00    +0.000 A 
ATOM     24  C   UNL     1      44.882   6.645  11.482  0.00  0.00    +0.000 A 
ATOM     25  N   UNL     1      44.365   5.516  10.928  0.00  0.00    +0.000 NA
BRANCH  20  27
ATOM     26  N   UNL     1      44.875   2.471  10.207  0.00  0.00    +0.000 N 
ATOM     27  C   UNL     1      44.067   3.102  11.115  0.00  0.00    +0.000 C 
ATOM     28  O   UNL     1      42.995   2.622  11.467  0.00  0.00    +0.000 OA
ATOM     29  H   UNL     1      44.597   1.575   9.831  0.00  0.00    +0.000 HD
ATOM     30  H   UNL     1      45.773   2.874   9.960  0.00  0.00    +0.000 HD
ENDBRANCH  20  27
ENDBRANCH  18  23
ENDBRANCH   1  18
TORSDOF 6
ENDMDL
MODEL 9
REMARK VINA RESULT:    -6.826      2.461      7.793
REMARK INTER + INTRA:          -9.559
REMARK INTER:                  -8.881
REMARK INTRA:                  -0.678
REMARK UNBOUND:                -0.538
REMARK  Name = 
REMARK  6 active torsions:
REMARK  status: ('A' for Active; 'I' for Inactive)
REMARK    1  A    between atoms: C_2  and  C_4
REMARK    2  A    between atoms: C_7  and  N_8
REMARK    3  A    between atoms: N_8  and  C_9
REMARK    4  A    between atoms: C_9  and  C_10
REMARK    5  A    between atoms: C_14  and  C_15
REMARK    6  A    between atoms: C_19  and  O_20
REMARK                            x       y       z     vdW  Elec       q    Type
REMARK                         _______ _______ _______ _____ _____    ______ ____
ROOT
ATOM      1  C   UNL     1      48.684   8.080  12.943  0.00  0.00    +0.000 C 
ATOM      2  C   UNL     1      49.795   7.398  12.157  0.00  0.00    +0.000 C 
ATOM      3  C   UNL     1      49.541   8.851  11.943  0.00  0.00    +0.000 C 
ENDROOT
BRANCH   1   4
ATOM      4  C   UNL     1      47.234   7.874  12.516  0.00  0.00    +0.000 A 
ATOM      5  C   UNL     1      46.310   8.931  12.529  0.00  0.00    +0.000 A 
ATOM      6  C   UNL     1      45.034   8.781  11.989  0.00  0.00    +0.000 A 
ATOM      7  C   UNL     1      44.663   7.568  11.411  0.00  0.00    +0.000 A 
ATOM      8  C   UNL     1      45.545   6.475  11.391  0.00  0.00    +0.000 A 
ATOM      9  C   UNL     1      46.803   6.642  11.994  0.00  0.00    +0.000 A 
BRANCH   8  10
ATOM     10  C   UNL     1      45.225   5.236  10.662  0.00  0.00    +0.000 A 
ATOM     11  C   UNL     1      45.564   5.037   9.318  0.00  0.00    +0.000 A 
ATOM     12  N   UNL     1      45.214   3.952   8.578  0.00  0.00    +0.000 NA
ATOM     13  C   UNL     1      44.487   3.004   9.209  0.00  0.00    +0.000 A 
ATOM     14  C   UNL     1      44.109   3.091  10.538  0.00  0.00    +0.000 A 
ATOM     15  C   UNL     1      44.479   4.213  11.266  0.00  0.00    +0.000 A 
BRANCH  14  16
ATOM     16  O   UNL     1      43.372   2.136  11.170  0.00  0.00    +0.000 OA
ATOM     17  H   UNL     1      42.461   2.168  10.836  0.00  0.00    +0.000 HD
ENDBRANCH  14  16
ENDBRANCH   8  10
ENDBRANCH   1   4
BRANCH   1  18
ATOM     18  N   UNL     1      48.862   8.353  14.386  0.00  0.00    +0.000 N 
ATOM     19  H   UNL     1      49.390   9.193  14.597  0.00  0.00    +0.000 HD
BRANCH  18  23
ATOM     20  C   UNL     1      49.918   5.200  16.829  0.00  0.00    +0.000 A 
ATOM     21  C   UNL     1      50.805   6.237  16.601  0.00  0.00    +0.000 A 
ATOM     22  N   UNL     1      50.501   7.295  15.803  0.00  0.00    +0.000 NA
ATOM     23  C   UNL     1      49.269   7.303  15.245  0.00  0.00    +0.000 A 
ATOM     24  C   UNL     1      48.389   6.239  15.488  0.00  0.00    +0.000 A 
ATOM     25  N   UNL     1      48.675   5.168  16.277  0.00  0.00    +0.000 NA
BRANCH  20  27
ATOM     26  N   UNL     1      49.894   4.119  18.994  0.00  0.00    +0.000 N 
ATOM     27  C   UNL     1      50.321   4.059  17.694  0.00  0.00    +0.000 C 
ATOM     28  O   UNL     1      50.978   3.112  17.275  0.00  0.00    +0.000 OA
ATOM     29  H   UNL     1      50.104   3.356  19.624  0.00  0.00    +0.000 HD
ATOM     30  H   UNL     1      49.323   4.898  19.306  0.00  0.00    +0.000 HD
ENDBRANCH  20  27
ENDBRANCH  18  23
ENDBRANCH   1  18
TORSDOF 6
ENDMDL
