MODEL 1
REMARK VINA RESULT:    -9.406      0.000      0.000
REMARK INTER + INTRA:         -11.666
REMARK INTER:                 -12.155
REMARK INTRA:                   0.489
REMARK UNBOUND:                 0.489
REMARK  Name = 
REMARK  7 active torsions:
REMARK  status: ('A' for Active; 'I' for Inactive)
REMARK    1  A    between atoms: C_1  and  C_2
REMARK    2  A    between atoms: N_7  and  C_8
REMARK    3  A    between atoms: C_8  and  C_9
REMARK    4  A    between atoms: C_8  and  C_10
REMARK    5  A    between atoms: C_13  and  C_14
REMARK    6  A    between atoms: C_14  and  N_15
REMARK    7  A    between atoms: C_16  and  C_18
REMARK                            x       y       z     vdW  Elec       q    Type
REMARK                         _______ _______ _______ _____ _____    ______ ____
ROOT
ATOM      1  C   UNL     1      44.609   5.388  10.923  0.00  0.00    +0.000 A 
ATOM      2  C   UNL     1      45.879   5.734  10.454  0.00  0.00    +0.000 A 
ATOM      3  C   UNL     1      46.670   6.604  11.204  0.00  0.00    +0.000 A 
ATOM      4  C   UNL     1      46.188   7.118  12.408  0.00  0.00    +0.000 A 
ATOM      5  C   UNL     1      44.904   6.747  12.784  0.00  0.00    +0.000 A 
ATOM      6  N   UNL     1      44.122   5.890  12.088  0.00  0.00    +0.000 NA
ENDROOT
BRANCH   1   7
ATOM      7  C   UNL     1      43.722   4.390  10.172  0.00  0.00    +0.000 C 
ATOM      8  C   UNL     1      43.862   2.995  10.795  0.00  0.00    +0.000 C 
BRANCH   7  15
ATOM      9  C   UNL     1      47.371   3.225   5.571  0.00  0.00    +0.000 C 
ATOM     10  C   UNL     1      46.576   2.823   6.775  0.00  0.00    +0.000 A 
ATOM     11  C   UNL     1      46.711   1.569   7.325  0.00  0.00    +0.000 A 
ATOM     12  C   UNL     1      45.920   1.315   8.422  0.00  0.00    +0.000 A 
ATOM     13  N   UNL     1      45.059   2.207   8.943  0.00  0.00    +0.000 NA
ATOM     14  C   UNL     1      44.978   3.397   8.335  0.00  0.00    +0.000 A 
ATOM     15  N   UNL     1      44.077   4.358   8.757  0.00  0.00    +0.000 N 
ATOM     16  N   UNL     1      45.718   3.741   7.271  0.00  0.00    +0.000 NA
ATOM     17  H   UNL     1      44.353   5.234   8.337  0.00  0.00    +0.000 HD
ENDBRANCH   7  15
ENDBRANCH   1   7
BRANCH   4  18
ATOM     18  C   UNL     1      46.990   8.068  13.247  0.00  0.00    +0.000 C 
BRANCH  18  19
ATOM     19  N   UNL     1      47.441   7.438  14.461  0.00  0.00    +0.000 N 
ATOM     20  C   UNL     1      48.683   6.861  14.545  0.00  0.00    +0.000 C 
ATOM     21  O   UNL     1      49.483   6.906  13.614  0.00  0.00    +0.000 OA
ATOM     22  H   UNL     1      46.734   7.194  15.147  0.00  0.00    +0.000 HD
BRANCH  20  23
ATOM     23  C   UNL     1      49.031   6.239  15.829  0.00  0.00    +0.000 A 
ATOM     24  C   UNL     1      50.083   6.750  16.578  0.00  0.00    +0.000 A 
ATOM     25  S   UNL     1      50.319   5.947  18.064  0.00  0.00    +0.000 S 
ATOM     26  C   UNL     1      49.058   4.854  17.736  0.00  0.00    +0.000 A 
ATOM     27  N   UNL     1      48.743   3.865  18.615  0.00  0.00    +0.000 NA
ATOM     28  C   UNL     1      47.786   3.091  18.226  0.00  0.00    +0.000 A 
ATOM     29  N   UNL     1      47.110   3.218  17.040  0.00  0.00    +0.000 N 
ATOM     30  C   UNL     1      47.378   4.215  16.133  0.00  0.00    +0.000 A 
ATOM     31  O   UNL     1      46.736   4.325  15.094  0.00  0.00    +0.000 OA
ATOM     32  C   UNL     1      48.453   5.108  16.518  0.00  0.00    +0.000 A 
ATOM     33  H   UNL     1      46.364   2.582  16.796  0.00  0.00    +0.000 HD
ENDBRANCH  20  23
ENDBRANCH  18  19
ENDBRANCH   4  18
TORSDOF 5
ENDMDL
MODEL 2
REMARK VINA RESULT:    -9.034      1.646      1.933
REMARK INTER + INTRA:         -11.185
REMARK INTER:                 -11.383
REMARK INTRA:                   0.198
REMARK UNBOUND:                 0.489
REMARK  Name = 
REMARK  7 active torsions:
REMARK  status: ('A' for Active; 'I' for Inactive)
REMARK    1  A    between atoms: C_1  and  C_2
REMARK    2  A    between atoms: N_7  and  C_8
REMARK    3  A    between atoms: C_8  and  C_9
REMARK    4  A    between atoms: C_8  and  C_10
REMARK    5  A    between atoms: C_13  and  C_14
REMARK    6  A    between atoms: C_14  and  N_15
REMARK    7  A    between atoms: C_16  and  C_18
REMARK                            x       y       z     vdW  Elec       q    Type
REMARK                         _______ _______ _______ _____ _____    ______ ____
ROOT
ATOM      1  C   UNL     1      45.009   5.173  11.508  0.00  0.00    +0.000 A 
ATOM      2  C   UNL     1      45.540   4.477  12.597  0.00  0.00    +0.000 A 
ATOM      3  C   UNL     1      46.640   5.005  13.274  0.00  0.00    +0.000 A 
ATOM      4  C   UNL     1      47.197   6.215  12.858  0.00  0.00    +0.000 A 
ATOM      5  C   UNL     1      46.626   6.824  11.748  0.00  0.00    +0.000 A 
ATOM      6  N   UNL     1      45.547   6.347  11.086  0.00  0.00    +0.000 NA
ENDROOT
BRANCH   1   7
ATOM      7  C   UNL     1      43.766   4.673  10.767  0.00  0.00    +0.000 C 
ATOM      8  C   UNL     1      43.388   3.272  11.265  0.00  0.00    +0.000 C 
BRANCH   7  15
ATOM      9  C   UNL     1      46.970   3.457   5.859  0.00  0.00    +0.000 C 
ATOM     10  C   UNL     1      46.257   3.061   7.115  0.00  0.00    +0.000 A 
ATOM     11  C   UNL     1      46.378   1.790   7.628  0.00  0.00    +0.000 A 
ATOM     12  C   UNL     1      45.668   1.546   8.780  0.00  0.00    +0.000 A 
ATOM     13  N   UNL     1      44.894   2.462   9.389  0.00  0.00    +0.000 NA
ATOM     14  C   UNL     1      44.820   3.669   8.813  0.00  0.00    +0.000 A 
ATOM     15  N   UNL     1      44.003   4.659   9.327  0.00  0.00    +0.000 N 
ATOM     16  N   UNL     1      45.486   4.005   7.699  0.00  0.00    +0.000 NA
ATOM     17  H   UNL     1      44.284   5.531   8.904  0.00  0.00    +0.000 HD
ENDBRANCH   7  15
ENDBRANCH   1   7
BRANCH   4  18
ATOM     18  C   UNL     1      48.387   6.820  13.540  0.00  0.00    +0.000 C 
BRANCH  18  19
ATOM     19  N   UNL     1      48.187   6.903  14.963  0.00  0.00    +0.000 N 
ATOM     20  C   UNL     1      49.235   6.772  15.839  0.00  0.00    +0.000 C 
ATOM     21  O   UNL     1      50.392   6.638  15.449  0.00  0.00    +0.000 OA
ATOM     22  H   UNL     1      47.238   6.788  15.306  0.00  0.00    +0.000 HD
BRANCH  20  23
ATOM     23  C   UNL     1      48.911   6.863  17.268  0.00  0.00    +0.000 A 
ATOM     24  C   UNL     1      48.565   8.091  17.818  0.00  0.00    +0.000 A 
ATOM     25  S   UNL     1      48.166   8.011  19.474  0.00  0.00    +0.000 S 
ATOM     26  C   UNL     1      48.493   6.343  19.529  0.00  0.00    +0.000 A 
ATOM     27  N   UNL     1      48.368   5.642  20.688  0.00  0.00    +0.000 NA
ATOM     28  C   UNL     1      48.676   4.392  20.592  0.00  0.00    +0.000 A 
ATOM     29  N   UNL     1      49.091   3.775  19.440  0.00  0.00    +0.000 N 
ATOM     30  C   UNL     1      49.208   4.437  18.241  0.00  0.00    +0.000 A 
ATOM     31  O   UNL     1      49.551   3.853  17.218  0.00  0.00    +0.000 OA
ATOM     32  C   UNL     1      48.883   5.849  18.297  0.00  0.00    +0.000 A 
ATOM     33  H   UNL     1      49.310   2.790  19.428  0.00  0.00    +0.000 HD
ENDBRANCH  20  23
ENDBRANCH  18  19
ENDBRANCH   4  18
TORSDOF 5
ENDMDL
MODEL 3
REMARK VINA RESULT:    -8.997      0.853      1.349
REMARK INTER + INTRA:         -11.138
REMARK INTER:                 -10.255
REMARK INTRA:                  -0.883
REMARK UNBOUND:                 0.489
REMARK  Name = 
REMARK  7 active torsions:
REMARK  status: ('A' for Active; 'I' for Inactive)
REMARK    1  A    between atoms: C_1  and  C_2
REMARK    2  A    between atoms: N_7  and  C_8
REMARK    3  A    between atoms: C_8  and  C_9
REMARK    4  A    between atoms: C_8  and  C_10
REMARK    5  A    between atoms: C_13  and  C_14
REMARK    6  A    between atoms: C_14  and  N_15
REMARK    7  A    between atoms: C_16  and  C_18
REMARK                            x       y       z     vdW  Elec       q    Type
REMARK                         _______ _______ _______ _____ _____    ______ ____
ROOT
ATOM      1  C   UNL     1      45.032   5.129  11.278  0.00  0.00    +0.000 A 
ATOM      2  C   UNL     1      45.995   5.890  10.610  0.00  0.00    +0.000 A 
ATOM      3  C   UNL     1      46.715   6.854  11.317  0.00  0.00    +0.000 A 
ATOM      4  C   UNL     1      46.467   7.048  12.676  0.00  0.00    +0.000 A 
ATOM      5  C   UNL     1      45.471   6.271  13.253  0.00  0.00    +0.000 A 
ATOM      6  N   UNL     1      44.772   5.315  12.598  0.00  0.00    +0.000 NA
ENDROOT
BRANCH   1   7
ATOM      7  C   UNL     1      44.257   4.017  10.567  0.00  0.00    +0.000 C 
ATOM      8  C   UNL     1      43.017   3.637  11.386  0.00  0.00    +0.000 C 
BRANCH   7  15
ATOM      9  C   UNL     1      46.717  -0.329   7.264  0.00  0.00    +0.000 C 
ATOM     10  C   UNL     1      46.445   1.109   7.583  0.00  0.00    +0.000 A 
ATOM     11  C   UNL     1      46.782   2.107   6.698  0.00  0.00    +0.000 A 
ATOM     12  C   UNL     1      46.490   3.387   7.108  0.00  0.00    +0.000 A 
ATOM     13  N   UNL     1      45.920   3.680   8.291  0.00  0.00    +0.000 NA
ATOM     14  C   UNL     1      45.641   2.650   9.099  0.00  0.00    +0.000 A 
ATOM     15  N   UNL     1      45.112   2.852  10.361  0.00  0.00    +0.000 N 
ATOM     16  N   UNL     1      45.874   1.368   8.781  0.00  0.00    +0.000 NA
ATOM     17  H   UNL     1      44.756   1.964  10.684  0.00  0.00    +0.000 HD
ENDBRANCH   7  15
ENDBRANCH   1   7
BRANCH   4  18
ATOM     18  C   UNL     1      47.200   8.078  13.482  0.00  0.00    +0.000 C 
BRANCH  18  19
ATOM     19  N   UNL     1      47.674   7.529  14.725  0.00  0.00    +0.000 N 
ATOM     20  C   UNL     1      48.949   7.036  14.846  0.00  0.00    +0.000 C 
ATOM     21  O   UNL     1      49.757   7.094  13.923  0.00  0.00    +0.000 OA
ATOM     22  H   UNL     1      46.975   7.268  15.414  0.00  0.00    +0.000 HD
BRANCH  20  23
ATOM     23  C   UNL     1      49.319   6.490  16.158  0.00  0.00    +0.000 A 
ATOM     24  C   UNL     1      50.249   7.158  16.944  0.00  0.00    +0.000 A 
ATOM     25  S   UNL     1      50.524   6.420  18.457  0.00  0.00    +0.000 S 
ATOM     26  C   UNL     1      49.449   5.153  18.095  0.00  0.00    +0.000 A 
ATOM     27  N   UNL     1      49.234   4.143  18.981  0.00  0.00    +0.000 NA
ATOM     28  C   UNL     1      48.417   3.233  18.565  0.00  0.00    +0.000 A 
ATOM     29  N   UNL     1      47.790   3.244  17.347  0.00  0.00    +0.000 N 
ATOM     30  C   UNL     1      47.957   4.255  16.431  0.00  0.00    +0.000 A 
ATOM     31  O   UNL     1      47.358   4.256  15.361  0.00  0.00    +0.000 OA
ATOM     32  C   UNL     1      48.874   5.299  16.845  0.00  0.00    +0.000 A 
ATOM     33  H   UNL     1      47.155   2.505  17.083  0.00  0.00    +0.000 HD
ENDBRANCH  20  23
ENDBRANCH  18  19
ENDBRANCH   4  18
TORSDOF 5
ENDMDL
MODEL 4
REMARK VINA RESULT:    -8.738      3.293      8.437
REMARK INTER + INTRA:         -10.803
REMARK INTER:                  -9.879
REMARK INTRA:                  -0.924
REMARK UNBOUND:                 0.489
REMARK  Name = 
REMARK  7 active torsions:
REMARK  status: ('A' for Active; 'I' for Inactive)
REMARK    1  A    between atoms: C_1  and  C_2
REMARK    2  A    between atoms: N_7  and  C_8
REMARK    3  A    between atoms: C_8  and  C_9
REMARK    4  A    between atoms: C_8  and  C_10
REMARK    5  A    between atoms: C_13  and  C_14
REMARK    6  A    between atoms: C_14  and  N_15
REMARK    7  A    between atoms: C_16  and  C_18
REMARK                            x       y       z     vdW  Elec       q    Type
REMARK                         _______ _______ _______ _____ _____    ______ ____
ROOT
ATOM      1  C   UNL     1      49.818   6.402  16.216  0.00  0.00    +0.000 A 
ATOM      2  C   UNL     1      50.543   7.366  15.511  0.00  0.00    +0.000 A 
ATOM      3  C   UNL     1      50.055   7.829  14.288  0.00  0.00    +0.000 A 
ATOM      4  C   UNL     1      48.855   7.326  13.784  0.00  0.00    +0.000 A 
ATOM      5  C   UNL     1      48.216   6.348  14.534  0.00  0.00    +0.000 A 
ATOM      6  N   UNL     1      48.654   5.895  15.731  0.00  0.00    +0.000 NA
ENDROOT
BRANCH   1   7
ATOM      7  C   UNL     1      50.273   5.903  17.590  0.00  0.00    +0.000 C 
ATOM      8  C   UNL     1      50.358   7.079  18.571  0.00  0.00    +0.000 C 
BRANCH   7  15
ATOM      9  C   UNL     1      54.075   1.387  18.587  0.00  0.00    +0.000 C 
ATOM     10  C   UNL     1      52.801   1.961  18.047  0.00  0.00    +0.000 A 
ATOM     11  C   UNL     1      51.799   1.142  17.578  0.00  0.00    +0.000 A 
ATOM     12  C   UNL     1      50.683   1.788  17.099  0.00  0.00    +0.000 A 
ATOM     13  N   UNL     1      50.549   3.125  17.071  0.00  0.00    +0.000 NA
ATOM     14  C   UNL     1      51.579   3.847  17.530  0.00  0.00    +0.000 A 
ATOM     15  N   UNL     1      51.564   5.229  17.485  0.00  0.00    +0.000 N 
ATOM     16  N   UNL     1      52.701   3.308  18.030  0.00  0.00    +0.000 NA
ATOM     17  H   UNL     1      52.300   5.558  18.091  0.00  0.00    +0.000 HD
ENDBRANCH   7  15
ENDBRANCH   1   7
BRANCH   4  18
ATOM     18  C   UNL     1      48.292   7.777  12.469  0.00  0.00    +0.000 C 
BRANCH  18  19
ATOM     19  N   UNL     1      47.577   6.713  11.816  0.00  0.00    +0.000 N 
ATOM     20  C   UNL     1      46.246   6.835  11.504  0.00  0.00    +0.000 C 
ATOM     21  O   UNL     1      45.623   7.872  11.716  0.00  0.00    +0.000 OA
ATOM     22  H   UNL     1      47.998   5.789  11.837  0.00  0.00    +0.000 HD
BRANCH  20  23
ATOM     23  C   UNL     1      45.617   5.681  10.848  0.00  0.00    +0.000 A 
ATOM     24  C   UNL     1      45.751   5.514   9.476  0.00  0.00    +0.000 A 
ATOM     25  S   UNL     1      45.009   4.097   8.884  0.00  0.00    +0.000 S 
ATOM     26  C   UNL     1      44.437   3.685  10.431  0.00  0.00    +0.000 A 
ATOM     27  N   UNL     1      43.688   2.566  10.626  0.00  0.00    +0.000 NA
ATOM     28  C   UNL     1      43.296   2.390  11.844  0.00  0.00    +0.000 A 
ATOM     29  N   UNL     1      43.591   3.228  12.887  0.00  0.00    +0.000 N 
ATOM     30  C   UNL     1      44.364   4.355  12.744  0.00  0.00    +0.000 A 
ATOM     31  O   UNL     1      44.639   5.070  13.701  0.00  0.00    +0.000 OA
ATOM     32  C   UNL     1      44.822   4.605  11.390  0.00  0.00    +0.000 A 
ATOM     33  H   UNL     1      43.260   3.031  13.821  0.00  0.00    +0.000 HD
ENDBRANCH  20  23
ENDBRANCH  18  19
ENDBRANCH   4  18
TORSDOF 5
ENDMDL
MODEL 5
REMARK VINA RESULT:    -8.735      2.209      2.623
REMARK INTER + INTRA:         -10.799
REMARK INTER:                 -10.845
REMARK INTRA:                   0.046
REMARK UNBOUND:                 0.489
REMARK  Name = 
REMARK  7 active torsions:
REMARK  status: ('A' for Active; 'I' for Inactive)
REMARK    1  A    between atoms: C_1  and  C_2
REMARK    2  A    between atoms: N_7  and  C_8
REMARK    3  A    between atoms: C_8  and  C_9
REMARK    4  A    between atoms: C_8  and  C_10
REMARK    5  A    between atoms: C_13  and  C_14
REMARK    6  A    between atoms: C_14  and  N_15
REMARK    7  A    between atoms: C_16  and  C_18
REMARK                            x       y       z     vdW  Elec       q    Type
REMARK                         _______ _______ _______ _____ _____    ______ ____
ROOT
ATOM      1  C   UNL     1      44.837   5.327  11.586  0.00  0.00    +0.000 A 
ATOM      2  C   UNL     1      45.463   4.547  12.562  0.00  0.00    +0.000 A 
ATOM      3  C   UNL     1      46.524   5.086  13.290  0.00  0.00    +0.000 A 
ATOM      4  C   UNL     1      46.948   6.390  13.037  0.00  0.00    +0.000 A 
ATOM      5  C   UNL     1      46.292   7.084  12.029  0.00  0.00    +0.000 A 
ATOM      6  N   UNL     1      45.247   6.595  11.322  0.00  0.00    +0.000 NA
ENDROOT
BRANCH   1   7
ATOM      7  C   UNL     1      43.629   4.810  10.800  0.00  0.00    +0.000 C 
ATOM      8  C   UNL     1      43.249   3.407  11.289  0.00  0.00    +0.000 C 
BRANCH   7  15
ATOM      9  C   UNL     1      47.011   3.562   6.020  0.00  0.00    +0.000 C 
ATOM     10  C   UNL     1      46.247   3.174   7.248  0.00  0.00    +0.000 A 
ATOM     11  C   UNL     1      46.337   1.902   7.765  0.00  0.00    +0.000 A 
ATOM     12  C   UNL     1      45.580   1.664   8.890  0.00  0.00    +0.000 A 
ATOM     13  N   UNL     1      44.792   2.588   9.467  0.00  0.00    +0.000 NA
ATOM     14  C   UNL     1      44.750   3.795   8.888  0.00  0.00    +0.000 A 
ATOM     15  N   UNL     1      43.922   4.793   9.370  0.00  0.00    +0.000 N 
ATOM     16  N   UNL     1      45.462   4.125   7.801  0.00  0.00    +0.000 NA
ATOM     17  H   UNL     1      44.227   5.662   8.958  0.00  0.00    +0.000 HD
ENDBRANCH   7  15
ENDBRANCH   1   7
BRANCH   4  18
ATOM     18  C   UNL     1      48.092   7.015  13.780  0.00  0.00    +0.000 C 
BRANCH  18  19
ATOM     19  N   UNL     1      47.985   6.779  15.196  0.00  0.00    +0.000 N 
ATOM     20  C   UNL     1      49.090   6.484  15.955  0.00  0.00    +0.000 C 
ATOM     21  O   UNL     1      50.220   6.466  15.474  0.00  0.00    +0.000 OA
ATOM     22  H   UNL     1      47.062   6.569  15.563  0.00  0.00    +0.000 HD
BRANCH  20  23
ATOM     23  C   UNL     1      48.859   6.252  17.387  0.00  0.00    +0.000 A 
ATOM     24  C   UNL     1      49.143   5.008  17.935  0.00  0.00    +0.000 A 
ATOM     25  S   UNL     1      48.871   4.924  19.617  0.00  0.00    +0.000 S 
ATOM     26  C   UNL     1      48.315   6.531  19.663  0.00  0.00    +0.000 A 
ATOM     27  N   UNL     1      47.893   7.093  20.827  0.00  0.00    +0.000 NA
ATOM     28  C   UNL     1      47.470   8.307  20.711  0.00  0.00    +0.000 A 
ATOM     29  N   UNL     1      47.437   9.015  19.538  0.00  0.00    +0.000 N 
ATOM     30  C   UNL     1      47.876   8.498  18.343  0.00  0.00    +0.000 A 
ATOM     31  O   UNL     1      47.865   9.164  17.314  0.00  0.00    +0.000 OA
ATOM     32  C   UNL     1      48.353   7.130  18.416  0.00  0.00    +0.000 A 
ATOM     33  H   UNL     1      47.101   9.967  19.515  0.00  0.00    +0.000 HD
ENDBRANCH  20  23
ENDBRANCH  18  19
ENDBRANCH   4  18
TORSDOF 5
ENDMDL
MODEL 6
REMARK VINA RESULT:    -8.332      3.246      8.754
REMARK INTER + INTRA:         -10.279
REMARK INTER:                  -9.372
REMARK INTRA:                  -0.907
REMARK UNBOUND:                 0.489
REMARK  Name = 
REMARK  7 active torsions:
REMARK  status: ('A' for Active; 'I' for Inactive)
REMARK    1  A    between atoms: C_1  and  C_2
REMARK    2  A    between atoms: N_7  and  C_8
REMARK    3  A    between atoms: C_8  and  C_9
REMARK    4  A    between atoms: C_8  and  C_10
REMARK    5  A    between atoms: C_13  and  C_14
REMARK    6  A    between atoms: C_14  and  N_15
REMARK    7  A    between atoms: C_16  and  C_18
REMARK                            x       y       z     vdW  Elec       q    Type
REMARK                         _______ _______ _______ _____ _____    ______ ____
ROOT
ATOM      1  C   UNL     1      49.286   6.258  16.337  0.00  0.00    +0.000 A 
ATOM      2  C   UNL     1      49.669   7.447  15.711  0.00  0.00    +0.000 A 
ATOM      3  C   UNL     1      49.037   7.830  14.527  0.00  0.00    +0.000 A 
ATOM      4  C   UNL     1      48.036   7.026  13.982  0.00  0.00    +0.000 A 
ATOM      5  C   UNL     1      47.740   5.846  14.652  0.00  0.00    +0.000 A 
ATOM      6  N   UNL     1      48.321   5.459  15.811  0.00  0.00    +0.000 NA
ENDROOT
BRANCH   1   7
ATOM      7  C   UNL     1      49.901   5.820  17.668  0.00  0.00    +0.000 C 
ATOM      8  C   UNL     1      49.928   7.001  18.646  0.00  0.00    +0.000 C 
BRANCH   7  15
ATOM      9  C   UNL     1      54.281   1.804  18.401  0.00  0.00    +0.000 C 
ATOM     10  C   UNL     1      52.906   2.211  17.968  0.00  0.00    +0.000 A 
ATOM     11  C   UNL     1      51.970   1.269  17.607  0.00  0.00    +0.000 A 
ATOM     12  C   UNL     1      50.748   1.766  17.219  0.00  0.00    +0.000 A 
ATOM     13  N   UNL     1      50.455   3.078  17.178  0.00  0.00    +0.000 NA
ATOM     14  C   UNL     1      51.430   3.927  17.529  0.00  0.00    +0.000 A 
ATOM     15  N   UNL     1      51.248   5.296  17.459  0.00  0.00    +0.000 N 
ATOM     16  N   UNL     1      52.647   3.537  17.935  0.00  0.00    +0.000 NA
ATOM     17  H   UNL     1      51.990   5.726  17.991  0.00  0.00    +0.000 HD
ENDBRANCH   7  15
ENDBRANCH   1   7
BRANCH   4  18
ATOM     18  C   UNL     1      47.334   7.382  12.705  0.00  0.00    +0.000 C 
BRANCH  18  19
ATOM     19  N   UNL     1      46.690   6.232  12.126  0.00  0.00    +0.000 N 
ATOM     20  C   UNL     1      45.336   6.042  12.237  0.00  0.00    +0.000 C 
ATOM     21  O   UNL     1      44.609   6.868  12.782  0.00  0.00    +0.000 OA
ATOM     22  H   UNL     1      47.282   5.445  11.877  0.00  0.00    +0.000 HD
BRANCH  20  23
ATOM     23  C   UNL     1      44.791   4.828  11.616  0.00  0.00    +0.000 A 
ATOM     24  C   UNL     1      44.000   3.968  12.367  0.00  0.00    +0.000 A 
ATOM     25  S   UNL     1      43.404   2.638  11.481  0.00  0.00    +0.000 S 
ATOM     26  C   UNL     1      44.224   3.136  10.077  0.00  0.00    +0.000 A 
ATOM     27  N   UNL     1      44.153   2.409   8.930  0.00  0.00    +0.000 NA
ATOM     28  C   UNL     1      44.847   2.886   7.951  0.00  0.00    +0.000 A 
ATOM     29  N   UNL     1      45.601   4.029   8.012  0.00  0.00    +0.000 N 
ATOM     30  C   UNL     1      45.683   4.808   9.141  0.00  0.00    +0.000 A 
ATOM     31  O   UNL     1      46.340   5.844   9.159  0.00  0.00    +0.000 OA
ATOM     32  C   UNL     1      44.929   4.310  10.275  0.00  0.00    +0.000 A 
ATOM     33  H   UNL     1      46.117   4.355   7.208  0.00  0.00    +0.000 HD
ENDBRANCH  20  23
ENDBRANCH  18  19
ENDBRANCH   4  18
TORSDOF 5
ENDMDL
MODEL 7
REMARK VINA RESULT:    -7.964      3.561      4.617
REMARK INTER + INTRA:          -9.802
REMARK INTER:                  -8.753
REMARK INTRA:                  -1.049
REMARK UNBOUND:                 0.489
REMARK  Name = 
REMARK  7 active torsions:
REMARK  status: ('A' for Active; 'I' for Inactive)
REMARK    1  A    between atoms: C_1  and  C_2
REMARK    2  A    between atoms: N_7  and  C_8
REMARK    3  A    between atoms: C_8  and  C_9
REMARK    4  A    between atoms: C_8  and  C_10
REMARK    5  A    between atoms: C_13  and  C_14
REMARK    6  A    between atoms: C_14  and  N_15
REMARK    7  A    between atoms: C_16  and  C_18
REMARK                            x       y       z     vdW  Elec       q    Type
REMARK                         _______ _______ _______ _____ _____    ______ ____
ROOT
ATOM      1  C   UNL     1      44.891   5.735  11.331  0.00  0.00    +0.000 A 
ATOM      2  C   UNL     1      46.113   5.508  11.970  0.00  0.00    +0.000 A 
ATOM      3  C   UNL     1      46.730   6.555  12.657  0.00  0.00    +0.000 A 
ATOM      4  C   UNL     1      46.124   7.811  12.697  0.00  0.00    +0.000 A 
ATOM      5  C   UNL     1      44.927   7.957  12.009  0.00  0.00    +0.000 A 
ATOM      6  N   UNL     1      44.296   6.956  11.353  0.00  0.00    +0.000 NA
ENDROOT
BRANCH   1   7
ATOM      7  C   UNL     1      44.140   4.608  10.616  0.00  0.00    +0.000 C 
ATOM      8  C   UNL     1      42.862   4.259  11.389  0.00  0.00    +0.000 C 
BRANCH   7  15
ATOM      9  C   UNL     1      46.653   0.113   7.564  0.00  0.00    +0.000 C 
ATOM     10  C   UNL     1      46.380   1.564   7.813  0.00  0.00    +0.000 A 
ATOM     11  C   UNL     1      46.740   2.521   6.891  0.00  0.00    +0.000 A 
ATOM     12  C   UNL     1      46.445   3.819   7.238  0.00  0.00    +0.000 A 
ATOM     13  N   UNL     1      45.851   4.165   8.394  0.00  0.00    +0.000 NA
ATOM     14  C   UNL     1      45.550   3.173   9.241  0.00  0.00    +0.000 A 
ATOM     15  N   UNL     1      44.995   3.433  10.481  0.00  0.00    +0.000 N 
ATOM     16  N   UNL     1      45.785   1.878   8.985  0.00  0.00    +0.000 NA
ATOM     17  H   UNL     1      44.629   2.561  10.836  0.00  0.00    +0.000 HD
ENDBRANCH   7  15
ENDBRANCH   1   7
BRANCH   4  18
ATOM     18  C   UNL     1      46.749   8.975  13.408  0.00  0.00    +0.000 C 
BRANCH  18  19
ATOM     19  N   UNL     1      48.184   8.940  13.304  0.00  0.00    +0.000 N 
ATOM     20  C   UNL     1      48.918  10.092  13.179  0.00  0.00    +0.000 C 
ATOM     21  O   UNL     1      48.392  11.202  13.209  0.00  0.00    +0.000 OA
ATOM     22  H   UNL     1      48.610   8.052  13.055  0.00  0.00    +0.000 HD
BRANCH  20  23
ATOM     23  C   UNL     1      50.374   9.934  13.071  0.00  0.00    +0.000 A 
ATOM     24  C   UNL     1      51.212  10.761  13.809  0.00  0.00    +0.000 A 
ATOM     25  S   UNL     1      52.869  10.409  13.609  0.00  0.00    +0.000 S 
ATOM     26  C   UNL     1      52.528   9.176  12.489  0.00  0.00    +0.000 A 
ATOM     27  N   UNL     1      53.530   8.469  11.900  0.00  0.00    +0.000 NA
ATOM     28  C   UNL     1      53.130   7.584  11.049  0.00  0.00    +0.000 A 
ATOM     29  N   UNL     1      51.818   7.335  10.738  0.00  0.00    +0.000 N 
ATOM     30  C   UNL     1      50.773   8.007  11.325  0.00  0.00    +0.000 A 
ATOM     31  O   UNL     1      49.607   7.742  11.052  0.00  0.00    +0.000 OA
ATOM     32  C   UNL     1      51.169   9.021  12.283  0.00  0.00    +0.000 A 
ATOM     33  H   UNL     1      51.569   6.622  10.068  0.00  0.00    +0.000 HD
ENDBRANCH  20  23
ENDBRANCH  18  19
ENDBRANCH   4  18
TORSDOF 5
ENDMDL
MODEL 8
REMARK VINA RESULT:    -7.943      2.696      3.524
REMARK INTER + INTRA:          -9.776
REMARK INTER:                  -8.958
REMARK INTRA:                  -0.818
REMARK UNBOUND:                 0.489
REMARK  Name = 
REMARK  7 active torsions:
REMARK  status: ('A' for Active; 'I' for Inactive)
REMARK    1  A    between atoms: C_1  and  C_2
REMARK    2  A    between atoms: N_7  and  C_8
REMARK    3  A    between atoms: C_8  and  C_9
REMARK    4  A    between atoms: C_8  and  C_10
REMARK    5  A    between atoms: C_13  and  C_14
REMARK    6  A    between atoms: C_14  and  N_15
REMARK    7  A    between atoms: C_16  and  C_18
REMARK                            x       y       z     vdW  Elec       q    Type
REMARK                         _______ _______ _______ _____ _____    ______ ____
ROOT
ATOM      1  C   UNL     1      44.996   5.708  11.319  0.00  0.00    +0.000 A 
ATOM      2  C   UNL     1      46.173   5.474  12.036  0.00  0.00    +0.000 A 
ATOM      3  C   UNL     1      46.781   6.531  12.715  0.00  0.00    +0.000 A 
ATOM      4  C   UNL     1      46.212   7.804  12.671  0.00  0.00    +0.000 A 
ATOM      5  C   UNL     1      45.060   7.954  11.910  0.00  0.00    +0.000 A 
ATOM      6  N   UNL     1      44.437   6.945  11.259  0.00  0.00    +0.000 NA
ENDROOT
BRANCH   1   7
ATOM      7  C   UNL     1      44.254   4.574  10.607  0.00  0.00    +0.000 C 
ATOM      8  C   UNL     1      42.998   4.192  11.401  0.00  0.00    +0.000 C 
BRANCH   7  15
ATOM      9  C   UNL     1      46.723   0.106   7.480  0.00  0.00    +0.000 C 
ATOM     10  C   UNL     1      46.427   1.554   7.728  0.00  0.00    +0.000 A 
ATOM     11  C   UNL     1      46.719   2.508   6.780  0.00  0.00    +0.000 A 
ATOM     12  C   UNL     1      46.410   3.803   7.129  0.00  0.00    +0.000 A 
ATOM     13  N   UNL     1      45.864   4.148   8.308  0.00  0.00    +0.000 NA
ATOM     14  C   UNL     1      45.629   3.158   9.179  0.00  0.00    +0.000 A 
ATOM     15  N   UNL     1      45.129   3.418  10.442  0.00  0.00    +0.000 N 
ATOM     16  N   UNL     1      45.882   1.866   8.924  0.00  0.00    +0.000 NA
ATOM     17  H   UNL     1      44.802   2.542  10.822  0.00  0.00    +0.000 HD
ENDBRANCH   7  15
ENDBRANCH   1   7
BRANCH   4  18
ATOM     18  C   UNL     1      46.830   8.978  13.370  0.00  0.00    +0.000 C 
BRANCH  18  19
ATOM     19  N   UNL     1      47.176   8.653  14.729  0.00  0.00    +0.000 N 
ATOM     20  C   UNL     1      48.430   8.904  15.225  0.00  0.00    +0.000 C 
ATOM     21  O   UNL     1      49.291   9.467  14.553  0.00  0.00    +0.000 OA
ATOM     22  H   UNL     1      46.572   7.999  15.218  0.00  0.00    +0.000 HD
BRANCH  20  23
ATOM     23  C   UNL     1      48.673   8.521  16.621  0.00  0.00    +0.000 A 
ATOM     24  C   UNL     1      49.015   7.209  16.924  0.00  0.00    +0.000 A 
ATOM     25  S   UNL     1      49.315   6.946  18.583  0.00  0.00    +0.000 S 
ATOM     26  C   UNL     1      48.947   8.563  18.962  0.00  0.00    +0.000 A 
ATOM     27  N   UNL     1      48.989   9.008  20.246  0.00  0.00    +0.000 NA
ATOM     28  C   UNL     1      48.659  10.247  20.393  0.00  0.00    +0.000 A 
ATOM     29  N   UNL     1      48.296  11.086  19.371  0.00  0.00    +0.000 N 
ATOM     30  C   UNL     1      48.264  10.688  18.056  0.00  0.00    +0.000 A 
ATOM     31  O   UNL     1      47.967  11.468  17.158  0.00  0.00    +0.000 OA
ATOM     32  C   UNL     1      48.618   9.298  17.837  0.00  0.00    +0.000 A 
ATOM     33  H   UNL     1      48.055  12.050  19.551  0.00  0.00    +0.000 HD
ENDBRANCH  20  23
ENDBRANCH  18  19
ENDBRANCH   4  18
TORSDOF 5
ENDMDL
MODEL 9
REMARK VINA RESULT:    -7.813      3.706      9.310
REMARK INTER + INTRA:          -9.608
REMARK INTER:                  -8.665
REMARK INTRA:                  -0.943
REMARK UNBOUND:                 0.489
REMARK  Name = 
REMARK  7 active torsions:
REMARK  status: ('A' for Active; 'I' for Inactive)
REMARK    1  A    between atoms: C_1  and  C_2
REMARK    2  A    between atoms: N_7  and  C_8
REMARK    3  A    between atoms: C_8  and  C_9
REMARK    4  A    between atoms: C_8  and  C_10
REMARK    5  A    between atoms: C_13  and  C_14
REMARK    6  A    between atoms: C_14  and  N_15
REMARK    7  A    between atoms: C_16  and  C_18
REMARK                            x       y       z     vdW  Elec       q    Type
REMARK                         _______ _______ _______ _____ _____    ______ ____
ROOT
ATOM      1  C   UNL     1      51.070   4.503  18.078  0.00  0.00    +0.000 A 
ATOM      2  C   UNL     1      50.834   3.192  17.656  0.00  0.00    +0.000 A 
ATOM      3  C   UNL     1      49.558   2.836  17.215  0.00  0.00    +0.000 A 
ATOM      4  C   UNL     1      48.538   3.787  17.201  0.00  0.00    +0.000 A 
ATOM      5  C   UNL     1      48.851   5.057  17.667  0.00  0.00    +0.000 A 
ATOM      6  N   UNL     1      50.082   5.436  18.081  0.00  0.00    +0.000 NA
ENDROOT
BRANCH   1   7
ATOM      7  C   UNL     1      52.463   4.965  18.513  0.00  0.00    +0.000 C 
ATOM      8  C   UNL     1      52.712   4.573  19.975  0.00  0.00    +0.000 C 
BRANCH   7  15
ATOM      9  C   UNL     1      55.353   9.927  16.819  0.00  0.00    +0.000 C 
ATOM     10  C   UNL     1      54.745   8.584  16.554  0.00  0.00    +0.000 A 
ATOM     11  C   UNL     1      54.944   7.941  15.354  0.00  0.00    +0.000 A 
ATOM     12  C   UNL     1      54.326   6.718  15.227  0.00  0.00    +0.000 A 
ATOM     13  N   UNL     1      53.567   6.163  16.187  0.00  0.00    +0.000 NA
ATOM     14  C   UNL     1      53.411   6.865  17.317  0.00  0.00    +0.000 A 
ATOM     15  N   UNL     1      52.599   6.408  18.339  0.00  0.00    +0.000 N 
ATOM     16  N   UNL     1      53.985   8.057  17.539  0.00  0.00    +0.000 NA
ATOM     17  H   UNL     1      52.819   6.947  19.163  0.00  0.00    +0.000 HD
ENDBRANCH   7  15
ENDBRANCH   1   7
BRANCH   4  18
ATOM     18  C   UNL     1      47.146   3.456  16.751  0.00  0.00    +0.000 C 
BRANCH  18  19
ATOM     19  N   UNL     1      46.664   4.419  15.796  0.00  0.00    +0.000 N 
ATOM     20  C   UNL     1      46.804   4.216  14.447  0.00  0.00    +0.000 C 
ATOM     21  O   UNL     1      47.292   3.183  13.994  0.00  0.00    +0.000 OA
ATOM     22  H   UNL     1      46.470   5.355  16.138  0.00  0.00    +0.000 HD
BRANCH  20  23
ATOM     23  C   UNL     1      46.284   5.270  13.567  0.00  0.00    +0.000 A 
ATOM     24  C   UNL     1      47.055   6.398  13.317  0.00  0.00    +0.000 A 
ATOM     25  S   UNL     1      46.328   7.497  12.233  0.00  0.00    +0.000 S 
ATOM     26  C   UNL     1      44.935   6.530  12.101  0.00  0.00    +0.000 A 
ATOM     27  N   UNL     1      43.887   6.915  11.325  0.00  0.00    +0.000 NA
ATOM     28  C   UNL     1      42.885   6.101  11.340  0.00  0.00    +0.000 A 
ATOM     29  N   UNL     1      42.837   4.933  12.055  0.00  0.00    +0.000 N 
ATOM     30  C   UNL     1      43.881   4.492  12.832  0.00  0.00    +0.000 A 
ATOM     31  O   UNL     1      43.824   3.426  13.436  0.00  0.00    +0.000 OA
ATOM     32  C   UNL     1      45.030   5.376  12.858  0.00  0.00    +0.000 A 
ATOM     33  H   UNL     1      42.025   4.334  12.018  0.00  0.00    +0.000 HD
ENDBRANCH  20  23
ENDBRANCH  18  19
ENDBRANCH   4  18
TORSDOF 5
ENDMDL
