MODEL 1
REMARK VINA RESULT:    -9.267      0.000      0.000
REMARK INTER + INTRA:         -12.173
REMARK INTER:                 -12.246
REMARK INTRA:                   0.073
REMARK UNBOUND:                 0.073
REMARK  Name = 
REMARK  6 active torsions:
REMARK  status: ('A' for Active; 'I' for Inactive)
REMARK    1  A    between atoms: N_1  and  C_2
REMARK    2  A    between atoms: C_5  and  C_6
REMARK    3  A    between atoms: C_6  and  C_7
REMARK    4  A    between atoms: C_10  and  C_11
REMARK    5  A    between atoms: C_11  and  N_12
REMARK    6  A    between atoms: C_13  and  C_15
REMARK                            x       y       z     vdW  Elec       q    Type
REMARK                         _______ _______ _______ _____ _____    ______ ____
ROOT
ATOM      1  C   UNL     1      44.961   4.059  10.353  0.00  0.00    +0.000 A 
ATOM      2  C   UNL     1      45.172   3.833  11.711  0.00  0.00    +0.000 A 
ATOM      3  C   UNL     1      45.692   4.860  12.499  0.00  0.00    +0.000 A 
ATOM      4  C   UNL     1      46.008   6.088  11.921  0.00  0.00    +0.000 A 
ATOM      5  C   UNL     1      45.764   6.227  10.560  0.00  0.00    +0.000 A 
ATOM      6  N   UNL     1      45.250   5.249   9.771  0.00  0.00    +0.000 NA
ENDROOT
BRANCH   1   7
ATOM      7  C   UNL     1      44.352   2.980   9.483  0.00  0.00    +0.000 C 
BRANCH   7  11
ATOM      8  C   UNL     1      47.736   2.192   6.756  0.00  0.00    +0.000 C 
ATOM      9  C   UNL     1      46.848   3.415   6.517  0.00  0.00    +0.000 C 
ATOM     10  C   UNL     1      46.073   3.792   7.780  0.00  0.00    +0.000 C 
ATOM     11  C   UNL     1      45.203   2.616   8.251  0.00  0.00    +0.000 C 
ATOM     12  C   UNL     1      46.109   1.404   8.542  0.00  0.00    +0.000 C 
ATOM     13  C   UNL     1      46.929   1.010   7.309  0.00  0.00    +0.000 C 
BRANCH   8  14
ATOM     14  N   UNL     1      48.405   1.803   5.514  0.00  0.00    +0.000 NA
ATOM     15  H   UNL     1      47.837   1.110   5.025  0.00  0.00    +0.000 HD
ATOM     16  H   UNL     1      49.283   1.331   5.732  0.00  0.00    +0.000 HD
ENDBRANCH   8  14
ENDBRANCH   7  11
ENDBRANCH   1   7
BRANCH   4  17
ATOM     17  C   UNL     1      46.542   7.224  12.743  0.00  0.00    +0.000 C 
BRANCH  17  18
ATOM     18  N   UNL     1      46.953   6.785  14.055  0.00  0.00    +0.000 N 
ATOM     19  C   UNL     1      48.278   6.583  14.349  0.00  0.00    +0.000 C 
ATOM     20  O   UNL     1      49.162   6.791  13.521  0.00  0.00    +0.000 OA
ATOM     21  H   UNL     1      46.241   6.392  14.664  0.00  0.00    +0.000 HD
BRANCH  19  22
ATOM     22  C   UNL     1      48.600   6.164  15.721  0.00  0.00    +0.000 A 
ATOM     23  C   UNL     1      49.400   6.975  16.514  0.00  0.00    +0.000 A 
ATOM     24  S   UNL     1      49.636   6.375  18.093  0.00  0.00    +0.000 S 
ATOM     25  C   UNL     1      48.721   4.982  17.759  0.00  0.00    +0.000 A 
ATOM     26  N   UNL     1      48.547   4.016  18.701  0.00  0.00    +0.000 NA
ATOM     27  C   UNL     1      47.855   3.001  18.305  0.00  0.00    +0.000 A 
ATOM     28  N   UNL     1      47.316   2.866  17.053  0.00  0.00    +0.000 N 
ATOM     29  C   UNL     1      47.443   3.827  16.076  0.00  0.00    +0.000 A 
ATOM     30  O   UNL     1      46.916   3.696  14.978  0.00  0.00    +0.000 OA
ATOM     31  C   UNL     1      48.223   4.985  16.467  0.00  0.00    +0.000 A 
ATOM     32  H   UNL     1      46.776   2.049  16.809  0.00  0.00    +0.000 HD
ENDBRANCH  19  22
ENDBRANCH  17  18
ENDBRANCH   4  17
TORSDOF 6
ENDMDL
MODEL 2
REMARK VINA RESULT:    -9.012      1.597      2.165
REMARK INTER + INTRA:         -11.837
REMARK INTER:                 -11.481
REMARK INTRA:                  -0.356
REMARK UNBOUND:                 0.073
REMARK  Name = 
REMARK  6 active torsions:
REMARK  status: ('A' for Active; 'I' for Inactive)
REMARK    1  A    between atoms: N_1  and  C_2
REMARK    2  A    between atoms: C_5  and  C_6
REMARK    3  A    between atoms: C_6  and  C_7
REMARK    4  A    between atoms: C_10  and  C_11
REMARK    5  A    between atoms: C_11  and  N_12
REMARK    6  A    between atoms: C_13  and  C_15
REMARK                            x       y       z     vdW  Elec       q    Type
REMARK                         _______ _______ _______ _____ _____    ______ ____
ROOT
ATOM      1  C   UNL     1      44.970   4.253  10.442  0.00  0.00    +0.000 A 
ATOM      2  C   UNL     1      45.189   3.673  11.689  0.00  0.00    +0.000 A 
ATOM      3  C   UNL     1      45.857   4.404  12.672  0.00  0.00    +0.000 A 
ATOM      4  C   UNL     1      46.310   5.693  12.392  0.00  0.00    +0.000 A 
ATOM      5  C   UNL     1      46.047   6.193  11.122  0.00  0.00    +0.000 A 
ATOM      6  N   UNL     1      45.391   5.508  10.151  0.00  0.00    +0.000 NA
ENDROOT
BRANCH   1   7
ATOM      7  C   UNL     1      44.205   3.501   9.372  0.00  0.00    +0.000 C 
BRANCH   7  11
ATOM      8  C   UNL     1      47.665   2.185   6.963  0.00  0.00    +0.000 C 
ATOM      9  C   UNL     1      46.891   3.440   6.546  0.00  0.00    +0.000 C 
ATOM     10  C   UNL     1      46.079   4.002   7.711  0.00  0.00    +0.000 C 
ATOM     11  C   UNL     1      45.093   2.949   8.241  0.00  0.00    +0.000 C 
ATOM     12  C   UNL     1      45.881   1.711   8.709  0.00  0.00    +0.000 C 
ATOM     13  C   UNL     1      46.735   1.131   7.577  0.00  0.00    +0.000 C 
BRANCH   8  14
ATOM     14  N   UNL     1      48.369   1.620   5.811  0.00  0.00    +0.000 NA
ATOM     15  H   UNL     1      48.758   0.712   6.063  0.00  0.00    +0.000 HD
ATOM     16  H   UNL     1      49.171   2.206   5.580  0.00  0.00    +0.000 HD
ENDBRANCH   8  14
ENDBRANCH   7  11
ENDBRANCH   1   7
BRANCH   4  17
ATOM     17  C   UNL     1      47.006   6.519  13.434  0.00  0.00    +0.000 C 
BRANCH  17  18
ATOM     18  N   UNL     1      47.140   5.803  14.679  0.00  0.00    +0.000 N 
ATOM     19  C   UNL     1      48.314   5.837  15.391  0.00  0.00    +0.000 C 
ATOM     20  O   UNL     1      49.280   6.495  15.012  0.00  0.00    +0.000 OA
ATOM     21  H   UNL     1      46.453   5.083  14.885  0.00  0.00    +0.000 HD
BRANCH  19  22
ATOM     22  C   UNL     1      48.343   5.100  16.663  0.00  0.00    +0.000 A 
ATOM     23  C   UNL     1      48.226   3.717  16.654  0.00  0.00    +0.000 A 
ATOM     24  S   UNL     1      48.331   3.009  18.201  0.00  0.00    +0.000 S 
ATOM     25  C   UNL     1      48.484   4.529  18.947  0.00  0.00    +0.000 A 
ATOM     26  N   UNL     1      48.591   4.638  20.299  0.00  0.00    +0.000 NA
ATOM     27  C   UNL     1      48.673   5.851  20.732  0.00  0.00    +0.000 A 
ATOM     28  N   UNL     1      48.663   6.966  19.936  0.00  0.00    +0.000 N 
ATOM     29  C   UNL     1      48.584   6.903  18.563  0.00  0.00    +0.000 A 
ATOM     30  O   UNL     1      48.618   7.917  17.875  0.00  0.00    +0.000 OA
ATOM     31  C   UNL     1      48.478   5.562  18.025  0.00  0.00    +0.000 A 
ATOM     32  H   UNL     1      48.740   7.888  20.338  0.00  0.00    +0.000 HD
ENDBRANCH  19  22
ENDBRANCH  17  18
ENDBRANCH   4  17
TORSDOF 6
ENDMDL
MODEL 3
REMARK VINA RESULT:    -9.007      2.468      4.293
REMARK INTER + INTRA:         -11.830
REMARK INTER:                 -11.047
REMARK INTRA:                  -0.783
REMARK UNBOUND:                 0.073
REMARK  Name = 
REMARK  6 active torsions:
REMARK  status: ('A' for Active; 'I' for Inactive)
REMARK    1  A    between atoms: N_1  and  C_2
REMARK    2  A    between atoms: C_5  and  C_6
REMARK    3  A    between atoms: C_6  and  C_7
REMARK    4  A    between atoms: C_10  and  C_11
REMARK    5  A    between atoms: C_11  and  N_12
REMARK    6  A    between atoms: C_13  and  C_15
REMARK                            x       y       z     vdW  Elec       q    Type
REMARK                         _______ _______ _______ _____ _____    ______ ____
ROOT
ATOM      1  C   UNL     1      44.794   4.005  10.388  0.00  0.00    +0.000 A 
ATOM      2  C   UNL     1      45.300   5.298  10.505  0.00  0.00    +0.000 A 
ATOM      3  C   UNL     1      45.967   5.665  11.674  0.00  0.00    +0.000 A 
ATOM      4  C   UNL     1      46.105   4.746  12.713  0.00  0.00    +0.000 A 
ATOM      5  C   UNL     1      45.571   3.479  12.511  0.00  0.00    +0.000 A 
ATOM      6  N   UNL     1      44.926   3.091  11.381  0.00  0.00    +0.000 NA
ENDROOT
BRANCH   1   7
ATOM      7  C   UNL     1      44.109   3.564   9.112  0.00  0.00    +0.000 C 
BRANCH   7  11
ATOM      8  C   UNL     1      47.733   2.303   6.924  0.00  0.00    +0.000 C 
ATOM      9  C   UNL     1      46.960   3.537   6.451  0.00  0.00    +0.000 C 
ATOM     10  C   UNL     1      46.069   4.091   7.560  0.00  0.00    +0.000 C 
ATOM     11  C   UNL     1      45.075   3.022   8.040  0.00  0.00    +0.000 C 
ATOM     12  C   UNL     1      45.859   1.805   8.566  0.00  0.00    +0.000 C 
ATOM     13  C   UNL     1      46.791   1.233   7.492  0.00  0.00    +0.000 C 
BRANCH   8  14
ATOM     14  N   UNL     1      48.517   1.743   5.823  0.00  0.00    +0.000 NA
ATOM     15  H   UNL     1      48.316   0.747   5.734  0.00  0.00    +0.000 HD
ATOM     16  H   UNL     1      49.510   1.803   6.045  0.00  0.00    +0.000 HD
ENDBRANCH   8  14
ENDBRANCH   7  11
ENDBRANCH   1   7
BRANCH   4  17
ATOM     17  C   UNL     1      46.841   5.097  13.973  0.00  0.00    +0.000 C 
BRANCH  17  18
ATOM     18  N   UNL     1      47.241   6.483  13.988  0.00  0.00    +0.000 N 
ATOM     19  C   UNL     1      48.389   6.880  14.629  0.00  0.00    +0.000 C 
ATOM     20  O   UNL     1      49.127   6.073  15.189  0.00  0.00    +0.000 OA
ATOM     21  H   UNL     1      46.542   7.178  13.740  0.00  0.00    +0.000 HD
BRANCH  19  22
ATOM     22  C   UNL     1      48.728   8.309  14.563  0.00  0.00    +0.000 A 
ATOM     23  C   UNL     1      48.853   9.037  15.739  0.00  0.00    +0.000 A 
ATOM     24  S   UNL     1      49.301  10.664  15.495  0.00  0.00    +0.000 S 
ATOM     25  C   UNL     1      49.292  10.470  13.806  0.00  0.00    +0.000 A 
ATOM     26  N   UNL     1      49.570  11.515  12.981  0.00  0.00    +0.000 NA
ATOM     27  C   UNL     1      49.500  11.236  11.723  0.00  0.00    +0.000 A 
ATOM     28  N   UNL     1      49.182  10.004  11.214  0.00  0.00    +0.000 N 
ATOM     29  C   UNL     1      48.920   8.912  12.010  0.00  0.00    +0.000 A 
ATOM     30  O   UNL     1      48.678   7.812  11.525  0.00  0.00    +0.000 OA
ATOM     31  C   UNL     1      48.974   9.176  13.433  0.00  0.00    +0.000 A 
ATOM     32  H   UNL     1      49.154   9.848  10.217  0.00  0.00    +0.000 HD
ENDBRANCH  19  22
ENDBRANCH  17  18
ENDBRANCH   4  17
TORSDOF 6
ENDMDL
MODEL 4
REMARK VINA RESULT:    -8.371      2.462      3.563
REMARK INTER + INTRA:         -10.990
REMARK INTER:                 -10.595
REMARK INTRA:                  -0.395
REMARK UNBOUND:                 0.073
REMARK  Name = 
REMARK  6 active torsions:
REMARK  status: ('A' for Active; 'I' for Inactive)
REMARK    1  A    between atoms: N_1  and  C_2
REMARK    2  A    between atoms: C_5  and  C_6
REMARK    3  A    between atoms: C_6  and  C_7
REMARK    4  A    between atoms: C_10  and  C_11
REMARK    5  A    between atoms: C_11  and  N_12
REMARK    6  A    between atoms: C_13  and  C_15
REMARK                            x       y       z     vdW  Elec       q    Type
REMARK                         _______ _______ _______ _____ _____    ______ ____
ROOT
ATOM      1  C   UNL     1      44.841   4.081  10.395  0.00  0.00    +0.000 A 
ATOM      2  C   UNL     1      44.838   3.081  11.365  0.00  0.00    +0.000 A 
ATOM      3  C   UNL     1      45.416   3.338  12.609  0.00  0.00    +0.000 A 
ATOM      4  C   UNL     1      46.000   4.578  12.862  0.00  0.00    +0.000 A 
ATOM      5  C   UNL     1      45.957   5.517  11.837  0.00  0.00    +0.000 A 
ATOM      6  N   UNL     1      45.394   5.298  10.622  0.00  0.00    +0.000 NA
ENDROOT
BRANCH   1   7
ATOM      7  C   UNL     1      44.179   3.847   9.054  0.00  0.00    +0.000 C 
BRANCH   7  11
ATOM      8  C   UNL     1      47.708   2.263   6.922  0.00  0.00    +0.000 C 
ATOM      9  C   UNL     1      47.028   3.535   6.409  0.00  0.00    +0.000 C 
ATOM     10  C   UNL     1      46.176   4.185   7.498  0.00  0.00    +0.000 C 
ATOM     11  C   UNL     1      45.106   3.205   8.003  0.00  0.00    +0.000 C 
ATOM     12  C   UNL     1      45.798   1.950   8.568  0.00  0.00    +0.000 C 
ATOM     13  C   UNL     1      46.689   1.282   7.516  0.00  0.00    +0.000 C 
BRANCH   8  14
ATOM     14  N   UNL     1      48.452   1.617   5.841  0.00  0.00    +0.000 NA
ATOM     15  H   UNL     1      48.184   0.634   5.784  0.00  0.00    +0.000 HD
ATOM     16  H   UNL     1      49.448   1.616   6.063  0.00  0.00    +0.000 HD
ENDBRANCH   8  14
ENDBRANCH   7  11
ENDBRANCH   1   7
BRANCH   4  17
ATOM     17  C   UNL     1      46.605   4.899  14.197  0.00  0.00    +0.000 C 
BRANCH  17  18
ATOM     18  N   UNL     1      47.423   6.086  14.140  0.00  0.00    +0.000 N 
ATOM     19  C   UNL     1      48.443   6.285  15.037  0.00  0.00    +0.000 C 
ATOM     20  O   UNL     1      48.714   5.454  15.900  0.00  0.00    +0.000 OA
ATOM     21  H   UNL     1      47.074   6.872  13.598  0.00  0.00    +0.000 HD
BRANCH  19  22
ATOM     22  C   UNL     1      49.239   7.511  14.879  0.00  0.00    +0.000 A 
ATOM     23  C   UNL     1      49.913   7.741  13.687  0.00  0.00    +0.000 A 
ATOM     24  S   UNL     1      50.745   9.228  13.644  0.00  0.00    +0.000 S 
ATOM     25  C   UNL     1      50.281   9.596  15.238  0.00  0.00    +0.000 A 
ATOM     26  N   UNL     1      50.691  10.746  15.838  0.00  0.00    +0.000 NA
ATOM     27  C   UNL     1      50.289  10.885  17.056  0.00  0.00    +0.000 A 
ATOM     28  N   UNL     1      49.510   9.981  17.728  0.00  0.00    +0.000 N 
ATOM     29  C   UNL     1      49.049   8.819  17.154  0.00  0.00    +0.000 A 
ATOM     30  O   UNL     1      48.319   8.049  17.768  0.00  0.00    +0.000 OA
ATOM     31  C   UNL     1      49.482   8.608  15.787  0.00  0.00    +0.000 A 
ATOM     32  H   UNL     1      49.221  10.155  18.680  0.00  0.00    +0.000 HD
ENDBRANCH  19  22
ENDBRANCH  17  18
ENDBRANCH   4  17
TORSDOF 6
ENDMDL
MODEL 5
REMARK VINA RESULT:    -8.323      3.629      4.551
REMARK INTER + INTRA:         -10.926
REMARK INTER:                 -10.737
REMARK INTRA:                  -0.189
REMARK UNBOUND:                 0.073
REMARK  Name = 
REMARK  6 active torsions:
REMARK  status: ('A' for Active; 'I' for Inactive)
REMARK    1  A    between atoms: N_1  and  C_2
REMARK    2  A    between atoms: C_5  and  C_6
REMARK    3  A    between atoms: C_6  and  C_7
REMARK    4  A    between atoms: C_10  and  C_11
REMARK    5  A    between atoms: C_11  and  N_12
REMARK    6  A    between atoms: C_13  and  C_15
REMARK                            x       y       z     vdW  Elec       q    Type
REMARK                         _______ _______ _______ _____ _____    ______ ____
ROOT
ATOM      1  C   UNL     1      44.459   3.390  10.286  0.00  0.00    +0.000 A 
ATOM      2  C   UNL     1      45.292   3.204  11.387  0.00  0.00    +0.000 A 
ATOM      3  C   UNL     1      45.518   4.271  12.258  0.00  0.00    +0.000 A 
ATOM      4  C   UNL     1      44.925   5.508  12.010  0.00  0.00    +0.000 A 
ATOM      5  C   UNL     1      44.109   5.604  10.889  0.00  0.00    +0.000 A 
ATOM      6  N   UNL     1      43.864   4.581  10.031  0.00  0.00    +0.000 NA
ENDROOT
BRANCH   1   7
ATOM      7  C   UNL     1      44.157   2.237   9.352  0.00  0.00    +0.000 C 
BRANCH   7  11
ATOM      8  C   UNL     1      47.704   2.322   6.722  0.00  0.00    +0.000 C 
ATOM      9  C   UNL     1      46.637   3.411   6.580  0.00  0.00    +0.000 C 
ATOM     10  C   UNL     1      45.775   3.508   7.838  0.00  0.00    +0.000 C 
ATOM     11  C   UNL     1      45.093   2.162   8.130  0.00  0.00    +0.000 C 
ATOM     12  C   UNL     1      46.173   1.081   8.325  0.00  0.00    +0.000 C 
ATOM     13  C   UNL     1      47.082   0.971   7.096  0.00  0.00    +0.000 C 
BRANCH   8  14
ATOM     14  N   UNL     1      48.464   2.195   5.478  0.00  0.00    +0.000 NA
ATOM     15  H   UNL     1      49.460   2.147   5.691  0.00  0.00    +0.000 HD
ATOM     16  H   UNL     1      48.344   3.038   4.916  0.00  0.00    +0.000 HD
ENDBRANCH   8  14
ENDBRANCH   7  11
ENDBRANCH   1   7
BRANCH   4  17
ATOM     17  C   UNL     1      45.123   6.669  12.940  0.00  0.00    +0.000 C 
BRANCH  17  18
ATOM     18  N   UNL     1      46.297   7.434  12.595  0.00  0.00    +0.000 N 
ATOM     19  C   UNL     1      46.230   8.796  12.435  0.00  0.00    +0.000 C 
ATOM     20  O   UNL     1      45.183   9.416  12.604  0.00  0.00    +0.000 OA
ATOM     21  H   UNL     1      47.098   6.927  12.230  0.00  0.00    +0.000 HD
BRANCH  19  22
ATOM     22  C   UNL     1      47.485   9.491  12.113  0.00  0.00    +0.000 A 
ATOM     23  C   UNL     1      47.461  10.850  11.829  0.00  0.00    +0.000 A 
ATOM     24  S   UNL     1      49.001  11.516  11.527  0.00  0.00    +0.000 S 
ATOM     25  C   UNL     1      49.753  10.002  11.712  0.00  0.00    +0.000 A 
ATOM     26  N   UNL     1      51.096   9.864  11.552  0.00  0.00    +0.000 NA
ATOM     27  C   UNL     1      51.530   8.656  11.693  0.00  0.00    +0.000 A 
ATOM     28  N   UNL     1      50.742   7.574  11.984  0.00  0.00    +0.000 N 
ATOM     29  C   UNL     1      49.383   7.670  12.181  0.00  0.00    +0.000 A 
ATOM     30  O   UNL     1      48.710   6.690  12.480  0.00  0.00    +0.000 OA
ATOM     31  C   UNL     1      48.843   9.005  12.022  0.00  0.00    +0.000 A 
ATOM     32  H   UNL     1      51.145   6.655  12.091  0.00  0.00    +0.000 HD
ENDBRANCH  19  22
ENDBRANCH  17  18
ENDBRANCH   4  17
TORSDOF 6
ENDMDL
MODEL 6
REMARK VINA RESULT:    -8.122      1.667      2.197
REMARK INTER + INTRA:         -10.660
REMARK INTER:                 -10.084
REMARK INTRA:                  -0.577
REMARK UNBOUND:                 0.073
REMARK  Name = 
REMARK  6 active torsions:
REMARK  status: ('A' for Active; 'I' for Inactive)
REMARK    1  A    between atoms: N_1  and  C_2
REMARK    2  A    between atoms: C_5  and  C_6
REMARK    3  A    between atoms: C_6  and  C_7
REMARK    4  A    between atoms: C_10  and  C_11
REMARK    5  A    between atoms: C_11  and  N_12
REMARK    6  A    between atoms: C_13  and  C_15
REMARK                            x       y       z     vdW  Elec       q    Type
REMARK                         _______ _______ _______ _____ _____    ______ ____
ROOT
ATOM      1  C   UNL     1      44.874   5.593  11.448  0.00  0.00    +0.000 A 
ATOM      2  C   UNL     1      44.933   6.982  11.358  0.00  0.00    +0.000 A 
ATOM      3  C   UNL     1      45.952   7.664  12.025  0.00  0.00    +0.000 A 
ATOM      4  C   UNL     1      46.884   6.954  12.782  0.00  0.00    +0.000 A 
ATOM      5  C   UNL     1      46.749   5.571  12.815  0.00  0.00    +0.000 A 
ATOM      6  N   UNL     1      45.774   4.881  12.169  0.00  0.00    +0.000 NA
ENDROOT
BRANCH   1   7
ATOM      7  C   UNL     1      43.809   4.823  10.695  0.00  0.00    +0.000 C 
BRANCH   7  11
ATOM      8  C   UNL     1      46.388   2.429   8.027  0.00  0.00    +0.000 C 
ATOM      9  C   UNL     1      46.041   3.870   7.642  0.00  0.00    +0.000 C 
ATOM     10  C   UNL     1      45.577   4.670   8.858  0.00  0.00    +0.000 C 
ATOM     11  C   UNL     1      44.351   4.007   9.506  0.00  0.00    +0.000 C 
ATOM     12  C   UNL     1      44.722   2.576   9.940  0.00  0.00    +0.000 C 
ATOM     13  C   UNL     1      45.223   1.745   8.754  0.00  0.00    +0.000 C 
BRANCH   8  14
ATOM     14  N   UNL     1      46.752   1.662   6.835  0.00  0.00    +0.000 NA
ATOM     15  H   UNL     1      46.692   0.665   7.041  0.00  0.00    +0.000 HD
ATOM     16  H   UNL     1      47.730   1.835   6.603  0.00  0.00    +0.000 HD
ENDBRANCH   8  14
ENDBRANCH   7  11
ENDBRANCH   1   7
BRANCH   4  17
ATOM     17  C   UNL     1      48.009   7.652  13.489  0.00  0.00    +0.000 C 
BRANCH  17  18
ATOM     18  N   UNL     1      47.892   7.534  14.922  0.00  0.00    +0.000 N 
ATOM     19  C   UNL     1      48.924   7.033  15.676  0.00  0.00    +0.000 C 
ATOM     20  O   UNL     1      49.990   6.693  15.167  0.00  0.00    +0.000 OA
ATOM     21  H   UNL     1      46.960   7.587  15.325  0.00  0.00    +0.000 HD
BRANCH  19  22
ATOM     22  C   UNL     1      48.721   6.979  17.131  0.00  0.00    +0.000 A 
ATOM     23  C   UNL     1      48.420   8.145  17.823  0.00  0.00    +0.000 A 
ATOM     24  S   UNL     1      48.163   7.906  19.492  0.00  0.00    +0.000 S 
ATOM     25  C   UNL     1      48.498   6.245  19.361  0.00  0.00    +0.000 A 
ATOM     26  N   UNL     1      48.477   5.439  20.457  0.00  0.00    +0.000 NA
ATOM     27  C   UNL     1      48.778   4.206  20.219  0.00  0.00    +0.000 A 
ATOM     28  N   UNL     1      49.092   3.704  18.984  0.00  0.00    +0.000 N 
ATOM     29  C   UNL     1      49.099   4.475  17.844  0.00  0.00    +0.000 A 
ATOM     30  O   UNL     1      49.345   3.989  16.746  0.00  0.00    +0.000 OA
ATOM     31  C   UNL     1      48.780   5.872  18.058  0.00  0.00    +0.000 A 
ATOM     32  H   UNL     1      49.308   2.726  18.864  0.00  0.00    +0.000 HD
ENDBRANCH  19  22
ENDBRANCH  17  18
ENDBRANCH   4  17
TORSDOF 6
ENDMDL
MODEL 7
REMARK VINA RESULT:    -8.084      1.980      2.609
REMARK INTER + INTRA:         -10.611
REMARK INTER:                 -10.055
REMARK INTRA:                  -0.556
REMARK UNBOUND:                 0.073
REMARK  Name = 
REMARK  6 active torsions:
REMARK  status: ('A' for Active; 'I' for Inactive)
REMARK    1  A    between atoms: N_1  and  C_2
REMARK    2  A    between atoms: C_5  and  C_6
REMARK    3  A    between atoms: C_6  and  C_7
REMARK    4  A    between atoms: C_10  and  C_11
REMARK    5  A    between atoms: C_11  and  N_12
REMARK    6  A    between atoms: C_13  and  C_15
REMARK                            x       y       z     vdW  Elec       q    Type
REMARK                         _______ _______ _______ _____ _____    ______ ____
ROOT
ATOM      1  C   UNL     1      44.836   5.057  10.964  0.00  0.00    +0.000 A 
ATOM      2  C   UNL     1      45.370   4.343  12.034  0.00  0.00    +0.000 A 
ATOM      3  C   UNL     1      46.214   4.995  12.935  0.00  0.00    +0.000 A 
ATOM      4  C   UNL     1      46.523   6.342  12.747  0.00  0.00    +0.000 A 
ATOM      5  C   UNL     1      45.945   6.976  11.653  0.00  0.00    +0.000 A 
ATOM      6  N   UNL     1      45.114   6.369  10.767  0.00  0.00    +0.000 NA
ENDROOT
BRANCH   1   7
ATOM      7  C   UNL     1      43.880   4.388  10.000  0.00  0.00    +0.000 C 
BRANCH   7  11
ATOM      8  C   UNL     1      46.853   2.132   7.637  0.00  0.00    +0.000 C 
ATOM      9  C   UNL     1      46.392   3.508   7.149  0.00  0.00    +0.000 C 
ATOM     10  C   UNL     1      45.772   4.319   8.286  0.00  0.00    +0.000 C 
ATOM     11  C   UNL     1      44.577   3.570   8.895  0.00  0.00    +0.000 C 
ATOM     12  C   UNL     1      45.057   2.209   9.434  0.00  0.00    +0.000 C 
ATOM     13  C   UNL     1      45.714   1.372   8.331  0.00  0.00    +0.000 C 
BRANCH   8  14
ATOM     14  N   UNL     1      47.368   1.345   6.517  0.00  0.00    +0.000 NA
ATOM     15  H   UNL     1      46.738   1.436   5.720  0.00  0.00    +0.000 HD
ATOM     16  H   UNL     1      47.357   0.355   6.761  0.00  0.00    +0.000 HD
ENDBRANCH   8  14
ENDBRANCH   7  11
ENDBRANCH   1   7
BRANCH   4  17
ATOM     17  C   UNL     1      47.403   7.083  13.710  0.00  0.00    +0.000 C 
BRANCH  17  18
ATOM     18  N   UNL     1      47.946   6.205  14.719  0.00  0.00    +0.000 N 
ATOM     19  C   UNL     1      48.659   6.704  15.780  0.00  0.00    +0.000 C 
ATOM     20  O   UNL     1      48.840   7.911  15.926  0.00  0.00    +0.000 OA
ATOM     21  H   UNL     1      48.008   5.215  14.497  0.00  0.00    +0.000 HD
BRANCH  19  22
ATOM     22  C   UNL     1      49.147   5.734  16.771  0.00  0.00    +0.000 A 
ATOM     23  C   UNL     1      48.235   4.967  17.484  0.00  0.00    +0.000 A 
ATOM     24  S   UNL     1      48.959   3.855  18.553  0.00  0.00    +0.000 S 
ATOM     25  C   UNL     1      50.519   4.394  18.144  0.00  0.00    +0.000 A 
ATOM     26  N   UNL     1      51.621   3.860  18.735  0.00  0.00    +0.000 NA
ATOM     27  C   UNL     1      52.739   4.380  18.352  0.00  0.00    +0.000 A 
ATOM     28  N   UNL     1      52.854   5.384  17.426  0.00  0.00    +0.000 N 
ATOM     29  C   UNL     1      51.770   5.936  16.783  0.00  0.00    +0.000 A 
ATOM     30  O   UNL     1      51.908   6.805  15.930  0.00  0.00    +0.000 OA
ATOM     31  C   UNL     1      50.488   5.393  17.187  0.00  0.00    +0.000 A 
ATOM     32  H   UNL     1      53.760   5.741  17.163  0.00  0.00    +0.000 HD
ENDBRANCH  19  22
ENDBRANCH  17  18
ENDBRANCH   4  17
TORSDOF 6
ENDMDL
MODEL 8
REMARK VINA RESULT:    -8.064      2.021      2.952
REMARK INTER + INTRA:         -10.584
REMARK INTER:                  -9.693
REMARK INTRA:                  -0.891
REMARK UNBOUND:                 0.073
REMARK  Name = 
REMARK  6 active torsions:
REMARK  status: ('A' for Active; 'I' for Inactive)
REMARK    1  A    between atoms: N_1  and  C_2
REMARK    2  A    between atoms: C_5  and  C_6
REMARK    3  A    between atoms: C_6  and  C_7
REMARK    4  A    between atoms: C_10  and  C_11
REMARK    5  A    between atoms: C_11  and  N_12
REMARK    6  A    between atoms: C_13  and  C_15
REMARK                            x       y       z     vdW  Elec       q    Type
REMARK                         _______ _______ _______ _____ _____    ______ ____
ROOT
ATOM      1  C   UNL     1      45.231   3.742  10.901  0.00  0.00    +0.000 A 
ATOM      2  C   UNL     1      45.301   2.968  12.057  0.00  0.00    +0.000 A 
ATOM      3  C   UNL     1      45.663   3.575  13.260  0.00  0.00    +0.000 A 
ATOM      4  C   UNL     1      45.965   4.936  13.290  0.00  0.00    +0.000 A 
ATOM      5  C   UNL     1      45.867   5.630  12.090  0.00  0.00    +0.000 A 
ATOM      6  N   UNL     1      45.509   5.069  10.907  0.00  0.00    +0.000 NA
ENDROOT
BRANCH   1   7
ATOM      7  C   UNL     1      44.793   3.121   9.591  0.00  0.00    +0.000 C 
BRANCH   7  11
ATOM      8  C   UNL     1      47.150   1.997   6.028  0.00  0.00    +0.000 C 
ATOM      9  C   UNL     1      47.284   1.170   7.310  0.00  0.00    +0.000 C 
ATOM     10  C   UNL     1      46.088   1.385   8.235  0.00  0.00    +0.000 C 
ATOM     11  C   UNL     1      45.948   2.872   8.601  0.00  0.00    +0.000 C 
ATOM     12  C   UNL     1      45.758   3.692   7.311  0.00  0.00    +0.000 C 
ATOM     13  C   UNL     1      46.924   3.482   6.339  0.00  0.00    +0.000 C 
BRANCH   8  14
ATOM     14  N   UNL     1      48.343   1.836   5.196  0.00  0.00    +0.000 NA
ATOM     15  H   UNL     1      49.147   1.635   5.791  0.00  0.00    +0.000 HD
ATOM     16  H   UNL     1      48.559   2.720   4.735  0.00  0.00    +0.000 HD
ENDBRANCH   8  14
ENDBRANCH   7  11
ENDBRANCH   1   7
BRANCH   4  17
ATOM     17  C   UNL     1      46.330   5.627  14.571  0.00  0.00    +0.000 C 
BRANCH  17  18
ATOM     18  N   UNL     1      47.536   5.082  15.145  0.00  0.00    +0.000 N 
ATOM     19  C   UNL     1      47.484   4.243  16.232  0.00  0.00    +0.000 C 
ATOM     20  O   UNL     1      46.416   3.907  16.737  0.00  0.00    +0.000 OA
ATOM     21  H   UNL     1      48.417   5.522  14.896  0.00  0.00    +0.000 HD
BRANCH  19  22
ATOM     22  C   UNL     1      48.764   3.715  16.727  0.00  0.00    +0.000 A 
ATOM     23  C   UNL     1      49.025   2.355  16.632  0.00  0.00    +0.000 A 
ATOM     24  S   UNL     1      50.569   1.910  17.201  0.00  0.00    +0.000 S 
ATOM     25  C   UNL     1      50.926   3.512  17.645  0.00  0.00    +0.000 A 
ATOM     26  N   UNL     1      52.113   3.828  18.231  0.00  0.00    +0.000 NA
ATOM     27  C   UNL     1      52.241   5.074  18.541  0.00  0.00    +0.000 A 
ATOM     28  N   UNL     1      51.292   6.036  18.314  0.00  0.00    +0.000 N 
ATOM     29  C   UNL     1      50.089   5.769  17.700  0.00  0.00    +0.000 A 
ATOM     30  O   UNL     1      49.276   6.658  17.474  0.00  0.00    +0.000 OA
ATOM     31  C   UNL     1      49.890   4.379  17.342  0.00  0.00    +0.000 A 
ATOM     32  H   UNL     1      51.459   6.997  18.572  0.00  0.00    +0.000 HD
ENDBRANCH  19  22
ENDBRANCH  17  18
ENDBRANCH   4  17
TORSDOF 6
ENDMDL
MODEL 9
REMARK VINA RESULT:    -7.691      4.087      6.263
REMARK INTER + INTRA:         -10.092
REMARK INTER:                  -9.001
REMARK INTRA:                  -1.091
REMARK UNBOUND:                 0.073
REMARK  Name = 
REMARK  6 active torsions:
REMARK  status: ('A' for Active; 'I' for Inactive)
REMARK    1  A    between atoms: N_1  and  C_2
REMARK    2  A    between atoms: C_5  and  C_6
REMARK    3  A    between atoms: C_6  and  C_7
REMARK    4  A    between atoms: C_10  and  C_11
REMARK    5  A    between atoms: C_11  and  N_12
REMARK    6  A    between atoms: C_13  and  C_15
REMARK                            x       y       z     vdW  Elec       q    Type
REMARK                         _______ _______ _______ _____ _____    ______ ____
ROOT
ATOM      1  C   UNL     1      47.272   4.278  14.993  0.00  0.00    +0.000 A 
ATOM      2  C   UNL     1      47.908   5.483  15.287  0.00  0.00    +0.000 A 
ATOM      3  C   UNL     1      48.474   5.663  16.550  0.00  0.00    +0.000 A 
ATOM      4  C   UNL     1      48.384   4.649  17.503  0.00  0.00    +0.000 A 
ATOM      5  C   UNL     1      47.733   3.481  17.123  0.00  0.00    +0.000 A 
ATOM      6  N   UNL     1      47.182   3.275  15.900  0.00  0.00    +0.000 NA
ENDROOT
BRANCH   1   7
ATOM      7  C   UNL     1      46.692   4.037  13.615  0.00  0.00    +0.000 C 
BRANCH   7  11
ATOM      8  C   UNL     1      43.494   6.172  11.442  0.00  0.00    +0.000 C 
ATOM      9  C   UNL     1      44.857   6.846  11.627  0.00  0.00    +0.000 C 
ATOM     10  C   UNL     1      45.943   5.819  11.947  0.00  0.00    +0.000 C 
ATOM     11  C   UNL     1      45.586   5.034  13.219  0.00  0.00    +0.000 C 
ATOM     12  C   UNL     1      44.241   4.315  13.007  0.00  0.00    +0.000 C 
ATOM     13  C   UNL     1      43.127   5.305  12.653  0.00  0.00    +0.000 C 
BRANCH   8  14
ATOM     14  N   UNL     1      42.459   7.180  11.217  0.00  0.00    +0.000 NA
ATOM     15  H   UNL     1      42.022   7.423  12.106  0.00  0.00    +0.000 HD
ATOM     16  H   UNL     1      41.713   6.783  10.646  0.00  0.00    +0.000 HD
ENDBRANCH   8  14
ENDBRANCH   7  11
ENDBRANCH   1   7
BRANCH   4  17
ATOM     17  C   UNL     1      49.006   4.796  18.861  0.00  0.00    +0.000 C 
BRANCH  17  18
ATOM     18  N   UNL     1      50.202   4.000  18.988  0.00  0.00    +0.000 N 
ATOM     19  C   UNL     1      51.426   4.499  18.618  0.00  0.00    +0.000 C 
ATOM     20  O   UNL     1      51.554   5.644  18.191  0.00  0.00    +0.000 OA
ATOM     21  H   UNL     1      50.089   2.997  19.113  0.00  0.00    +0.000 HD
BRANCH  19  22
ATOM     22  C   UNL     1      52.590   3.622  18.813  0.00  0.00    +0.000 A 
ATOM     23  C   UNL     1      53.672   4.076  19.555  0.00  0.00    +0.000 A 
ATOM     24  S   UNL     1      54.916   2.924  19.732  0.00  0.00    +0.000 S 
ATOM     25  C   UNL     1      54.079   1.793  18.778  0.00  0.00    +0.000 A 
ATOM     26  N   UNL     1      54.616   0.573  18.506  0.00  0.00    +0.000 NA
ATOM     27  C   UNL     1      53.886  -0.175  17.748  0.00  0.00    +0.000 A 
ATOM     28  N   UNL     1      52.666   0.185  17.240  0.00  0.00    +0.000 N 
ATOM     29  C   UNL     1      52.071   1.396  17.509  0.00  0.00    +0.000 A 
ATOM     30  O   UNL     1      50.960   1.674  17.073  0.00  0.00    +0.000 OA
ATOM     31  C   UNL     1      52.856   2.280  18.349  0.00  0.00    +0.000 A 
ATOM     32  H   UNL     1      52.140  -0.452  16.659  0.00  0.00    +0.000 HD
ENDBRANCH  19  22
ENDBRANCH  17  18
ENDBRANCH   4  17
TORSDOF 6
ENDMDL
