MODEL 1
REMARK VINA RESULT:    -9.206      0.000      0.000
REMARK INTER + INTRA:         -14.233
REMARK INTER:                 -13.242
REMARK INTRA:                  -0.992
REMARK UNBOUND:                -0.992
REMARK  Name = 
REMARK  8 active torsions:
REMARK  status: ('A' for Active; 'I' for Inactive)
REMARK    1  A    between atoms: N_1  and  C_2
REMARK    2  A    between atoms: C_2  and  C_3
REMARK    3  A    between atoms: C_2  and  C_17
REMARK    4  A    between atoms: C_3  and  N_4
REMARK    5  A    between atoms: C_5  and  C_7
REMARK    6  A    between atoms: C_20  and  C_21
REMARK    7  A    between atoms: C_21  and  N_22
REMARK    8  A    between atoms: C_23  and  C_25
REMARK                            x       y       z     vdW  Elec       q    Type
REMARK                         _______ _______ _______ _____ _____    ______ ____
ROOT
ATOM      1  C   UNL     1      47.250   5.744  14.623  0.00  0.00    +0.000 C 
ENDROOT
BRANCH   1   2
ATOM      2  C   UNL     1      46.197   5.351  13.592  0.00  0.00    +0.000 A 
ATOM      3  C   UNL     1      45.536   6.364  12.899  0.00  0.00    +0.000 A 
ATOM      4  C   UNL     1      44.741   6.086  11.794  0.00  0.00    +0.000 A 
ATOM      5  C   UNL     1      44.557   4.777  11.350  0.00  0.00    +0.000 A 
ATOM      6  C   UNL     1      45.129   3.742  12.102  0.00  0.00    +0.000 A 
ATOM      7  C   UNL     1      45.932   4.027  13.215  0.00  0.00    +0.000 A 
BRANCH   5   8
ATOM      8  C   UNL     1      43.720   4.488  10.125  0.00  0.00    +0.000 C 
BRANCH   8   9
ATOM      9  N   UNL     1      44.316   3.557   9.179  0.00  0.00    +0.000 N 
ATOM     10  C   UNL     1      45.352   3.959   8.363  0.00  0.00    +0.000 C 
ATOM     11  O   UNL     1      45.795   5.106   8.390  0.00  0.00    +0.000 OA
ATOM     12  H   UNL     1      44.103   2.574   9.248  0.00  0.00    +0.000 HD
BRANCH  10  13
ATOM     13  C   UNL     1      45.853   2.891   7.377  0.00  0.00    +0.000 C 
ATOM     14  C   UNL     1      46.337   1.614   8.077  0.00  0.00    +0.000 C 
ATOM     15  C   UNL     1      47.049   0.676   7.106  0.00  0.00    +0.000 C 
ATOM     16  O   UNL     1      48.104   1.346   6.425  0.00  0.00    +0.000 OA
ATOM     17  C   UNL     1      47.627   2.430   5.632  0.00  0.00    +0.000 C 
ATOM     18  C   UNL     1      46.976   3.482   6.511  0.00  0.00    +0.000 C 
ENDBRANCH  10  13
ENDBRANCH   8   9
ENDBRANCH   5   8
ENDBRANCH   1   2
BRANCH   1  19
ATOM     19  N   UNL     1      48.548   5.965  13.972  0.00  0.00    +0.000 NA
ATOM     20  H   UNL     1      48.988   5.062  13.806  0.00  0.00    +0.000 HD
ATOM     21  H   UNL     1      49.147   6.453  14.635  0.00  0.00    +0.000 HD
ENDBRANCH   1  19
BRANCH   1  22
ATOM     22  C   UNL     1      47.359   4.733  15.827  0.00  0.00    +0.000 C 
BRANCH  22  23
ATOM     23  N   UNL     1      48.699   4.483  16.341  0.00  0.00    +0.000 N 
ATOM     24  C   UNL     1      49.029   4.472  17.664  0.00  0.00    +0.000 C 
ATOM     25  O   UNL     1      48.176   4.656  18.563  0.00  0.00    +0.000 OA
ATOM     26  H   UNL     1      49.446   4.438  15.666  0.00  0.00    +0.000 HD
BRANCH  24  27
ATOM     27  C   UNL     1      50.430   4.194  17.995  0.00  0.00    +0.000 A 
ATOM     28  C   UNL     1      51.251   5.138  18.595  0.00  0.00    +0.000 A 
ATOM     29  S   UNL     1      52.814   4.543  18.964  0.00  0.00    +0.000 S 
ATOM     30  C   UNL     1      52.457   3.023  18.290  0.00  0.00    +0.000 A 
ATOM     31  N   UNL     1      53.370   2.017  18.264  0.00  0.00    +0.000 NA
ATOM     32  C   UNL     1      52.956   0.932  17.696  0.00  0.00    +0.000 A 
ATOM     33  N   UNL     1      51.716   0.765  17.139  0.00  0.00    +0.000 N 
ATOM     34  C   UNL     1      50.843   1.802  17.004  0.00  0.00    +0.000 A 
ATOM     35  O   UNL     1      49.878   1.708  16.240  0.00  0.00    +0.000 OA
ATOM     36  C   UNL     1      51.186   2.990  17.745  0.00  0.00    +0.000 A 
ATOM     37  H   UNL     1      51.497  -0.065  16.612  0.00  0.00    +0.000 HD
ENDBRANCH  24  27
ENDBRANCH  22  23
ENDBRANCH   1  22
TORSDOF 8
ENDMDL
MODEL 2
REMARK VINA RESULT:    -8.951      0.688      1.090
REMARK INTER + INTRA:         -13.867
REMARK INTER:                 -12.781
REMARK INTRA:                  -1.086
REMARK UNBOUND:                -0.992
REMARK  Name = 
REMARK  8 active torsions:
REMARK  status: ('A' for Active; 'I' for Inactive)
REMARK    1  A    between atoms: N_1  and  C_2
REMARK    2  A    between atoms: C_2  and  C_3
REMARK    3  A    between atoms: C_2  and  C_17
REMARK    4  A    between atoms: C_3  and  N_4
REMARK    5  A    between atoms: C_5  and  C_7
REMARK    6  A    between atoms: C_20  and  C_21
REMARK    7  A    between atoms: C_21  and  N_22
REMARK    8  A    between atoms: C_23  and  C_25
REMARK                            x       y       z     vdW  Elec       q    Type
REMARK                         _______ _______ _______ _____ _____    ______ ____
ROOT
ATOM      1  C   UNL     1      47.927   6.218  15.071  0.00  0.00    +0.000 C 
ENDROOT
BRANCH   1   2
ATOM      2  C   UNL     1      47.160   5.764  13.833  0.00  0.00    +0.000 A 
ATOM      3  C   UNL     1      46.656   4.464  13.803  0.00  0.00    +0.000 A 
ATOM      4  C   UNL     1      45.760   4.057  12.823  0.00  0.00    +0.000 A 
ATOM      5  C   UNL     1      45.346   4.930  11.817  0.00  0.00    +0.000 A 
ATOM      6  C   UNL     1      45.929   6.204  11.774  0.00  0.00    +0.000 A 
ATOM      7  C   UNL     1      46.831   6.612  12.766  0.00  0.00    +0.000 A 
BRANCH   5   8
ATOM      8  C   UNL     1      44.343   4.489  10.776  0.00  0.00    +0.000 C 
BRANCH   8   9
ATOM      9  N   UNL     1      44.854   3.551   9.788  0.00  0.00    +0.000 N 
ATOM     10  C   UNL     1      45.488   4.010   8.654  0.00  0.00    +0.000 C 
ATOM     11  O   UNL     1      45.630   5.211   8.427  0.00  0.00    +0.000 OA
ATOM     12  H   UNL     1      44.913   2.572  10.017  0.00  0.00    +0.000 HD
BRANCH  10  13
ATOM     13  C   UNL     1      45.933   2.915   7.671  0.00  0.00    +0.000 C 
ATOM     14  C   UNL     1      46.151   1.557   8.351  0.00  0.00    +0.000 C 
ATOM     15  C   UNL     1      46.821   0.558   7.411  0.00  0.00    +0.000 C 
ATOM     16  O   UNL     1      48.027   1.089   6.873  0.00  0.00    +0.000 OA
ATOM     17  C   UNL     1      47.798   2.258   6.091  0.00  0.00    +0.000 C 
ATOM     18  C   UNL     1      47.215   3.364   6.952  0.00  0.00    +0.000 C 
ENDBRANCH  10  13
ENDBRANCH   8   9
ENDBRANCH   5   8
ENDBRANCH   1   2
BRANCH   1  19
ATOM     19  N   UNL     1      49.293   6.617  14.710  0.00  0.00    +0.000 NA
ATOM     20  H   UNL     1      49.739   7.031  15.526  0.00  0.00    +0.000 HD
ATOM     21  H   UNL     1      49.224   7.361  14.019  0.00  0.00    +0.000 HD
ENDBRANCH   1  19
BRANCH   1  22
ATOM     22  C   UNL     1      47.910   5.162  16.242  0.00  0.00    +0.000 C 
BRANCH  22  23
ATOM     23  N   UNL     1      49.210   4.739  16.746  0.00  0.00    +0.000 N 
ATOM     24  C   UNL     1      49.479   4.469  18.056  0.00  0.00    +0.000 C 
ATOM     25  O   UNL     1      48.599   4.545  18.944  0.00  0.00    +0.000 OA
ATOM     26  H   UNL     1      49.982   4.767  16.100  0.00  0.00    +0.000 HD
BRANCH  24  27
ATOM     27  C   UNL     1      50.845   4.047  18.377  0.00  0.00    +0.000 A 
ATOM     28  C   UNL     1      51.726   4.858  19.079  0.00  0.00    +0.000 A 
ATOM     29  S   UNL     1      53.227   4.105  19.410  0.00  0.00    +0.000 S 
ATOM     30  C   UNL     1      52.765   2.691  18.585  0.00  0.00    +0.000 A 
ATOM     31  N   UNL     1      53.595   1.621  18.475  0.00  0.00    +0.000 NA
ATOM     32  C   UNL     1      53.108   0.633  17.797  0.00  0.00    +0.000 A 
ATOM     33  N   UNL     1      51.871   0.623  17.209  0.00  0.00    +0.000 N 
ATOM     34  C   UNL     1      51.087   1.736  17.163  0.00  0.00    +0.000 A 
ATOM     35  O   UNL     1      50.135   1.796  16.380  0.00  0.00    +0.000 OA
ATOM     36  C   UNL     1      51.508   2.815  18.022  0.00  0.00    +0.000 A 
ATOM     37  H   UNL     1      51.597  -0.132  16.601  0.00  0.00    +0.000 HD
ENDBRANCH  24  27
ENDBRANCH  22  23
ENDBRANCH   1  22
TORSDOF 8
ENDMDL
MODEL 3
REMARK VINA RESULT:    -8.494      2.605      3.370
REMARK INTER + INTRA:         -13.210
REMARK INTER:                 -12.513
REMARK INTRA:                  -0.697
REMARK UNBOUND:                -0.992
REMARK  Name = 
REMARK  8 active torsions:
REMARK  status: ('A' for Active; 'I' for Inactive)
REMARK    1  A    between atoms: N_1  and  C_2
REMARK    2  A    between atoms: C_2  and  C_3
REMARK    3  A    between atoms: C_2  and  C_17
REMARK    4  A    between atoms: C_3  and  N_4
REMARK    5  A    between atoms: C_5  and  C_7
REMARK    6  A    between atoms: C_20  and  C_21
REMARK    7  A    between atoms: C_21  and  N_22
REMARK    8  A    between atoms: C_23  and  C_25
REMARK                            x       y       z     vdW  Elec       q    Type
REMARK                         _______ _______ _______ _____ _____    ______ ____
ROOT
ATOM      1  C   UNL     1      45.507   8.482  12.861  0.00  0.00    +0.000 C 
ENDROOT
BRANCH   1   2
ATOM      2  C   UNL     1      45.049   7.203  12.167  0.00  0.00    +0.000 A 
ATOM      3  C   UNL     1      45.956   6.151  12.048  0.00  0.00    +0.000 A 
ATOM      4  C   UNL     1      45.549   4.887  11.643  0.00  0.00    +0.000 A 
ATOM      5  C   UNL     1      44.218   4.628  11.317  0.00  0.00    +0.000 A 
ATOM      6  C   UNL     1      43.319   5.702  11.328  0.00  0.00    +0.000 A 
ATOM      7  C   UNL     1      43.733   6.976  11.741  0.00  0.00    +0.000 A 
BRANCH   5   8
ATOM      8  C   UNL     1      43.778   3.239  10.911  0.00  0.00    +0.000 C 
BRANCH   8   9
ATOM      9  N   UNL     1      44.594   2.613   9.882  0.00  0.00    +0.000 N 
ATOM     10  C   UNL     1      44.754   3.219   8.654  0.00  0.00    +0.000 C 
ATOM     11  O   UNL     1      44.211   4.288   8.379  0.00  0.00    +0.000 OA
ATOM     12  H   UNL     1      45.189   1.837  10.123  0.00  0.00    +0.000 HD
BRANCH  10  13
ATOM     13  C   UNL     1      45.598   2.425   7.644  0.00  0.00    +0.000 C 
ATOM     14  C   UNL     1      46.123   1.102   8.216  0.00  0.00    +0.000 C 
ATOM     15  C   UNL     1      47.148   0.455   7.288  0.00  0.00    +0.000 C 
ATOM     16  O   UNL     1      48.202   1.360   6.977  0.00  0.00    +0.000 OA
ATOM     17  C   UNL     1      47.731   2.514   6.285  0.00  0.00    +0.000 C 
ATOM     18  C   UNL     1      46.766   3.296   7.157  0.00  0.00    +0.000 C 
ENDBRANCH  10  13
ENDBRANCH   8   9
ENDBRANCH   5   8
ENDBRANCH   1   2
BRANCH   1  19
ATOM     19  N   UNL     1      45.058   9.661  12.111  0.00  0.00    +0.000 NA
ATOM     20  H   UNL     1      45.840  10.021  11.568  0.00  0.00    +0.000 HD
ATOM     21  H   UNL     1      44.826  10.387  12.786  0.00  0.00    +0.000 HD
ENDBRANCH   1  19
BRANCH   1  22
ATOM     22  C   UNL     1      47.057   8.521  13.148  0.00  0.00    +0.000 C 
BRANCH  22  23
ATOM     23  N   UNL     1      47.501   7.872  14.375  0.00  0.00    +0.000 N 
ATOM     24  C   UNL     1      48.437   6.881  14.429  0.00  0.00    +0.000 C 
ATOM     25  O   UNL     1      49.017   6.460  13.402  0.00  0.00    +0.000 OA
ATOM     26  H   UNL     1      46.993   8.090  15.217  0.00  0.00    +0.000 HD
BRANCH  24  27
ATOM     27  C   UNL     1      48.765   6.352  15.755  0.00  0.00    +0.000 A 
ATOM     28  C   UNL     1      49.667   6.980  16.602  0.00  0.00    +0.000 A 
ATOM     29  S   UNL     1      49.810   6.220  18.129  0.00  0.00    +0.000 S 
ATOM     30  C   UNL     1      48.707   5.002  17.689  0.00  0.00    +0.000 A 
ATOM     31  N   UNL     1      48.367   3.999  18.542  0.00  0.00    +0.000 NA
ATOM     32  C   UNL     1      47.537   3.137  18.052  0.00  0.00    +0.000 A 
ATOM     33  N   UNL     1      47.026   3.179  16.782  0.00  0.00    +0.000 N 
ATOM     34  C   UNL     1      47.471   4.073  15.856  0.00  0.00    +0.000 A 
ATOM     35  O   UNL     1      47.231   3.901  14.658  0.00  0.00    +0.000 OA
ATOM     36  C   UNL     1      48.281   5.144  16.382  0.00  0.00    +0.000 A 
ATOM     37  H   UNL     1      46.473   2.416  16.425  0.00  0.00    +0.000 HD
ENDBRANCH  24  27
ENDBRANCH  22  23
ENDBRANCH   1  22
TORSDOF 8
ENDMDL
MODEL 4
REMARK VINA RESULT:    -8.148      2.670      3.271
REMARK INTER + INTRA:         -12.712
REMARK INTER:                 -11.294
REMARK INTRA:                  -1.419
REMARK UNBOUND:                -0.992
REMARK  Name = 
REMARK  8 active torsions:
REMARK  status: ('A' for Active; 'I' for Inactive)
REMARK    1  A    between atoms: N_1  and  C_2
REMARK    2  A    between atoms: C_2  and  C_3
REMARK    3  A    between atoms: C_2  and  C_17
REMARK    4  A    between atoms: C_3  and  N_4
REMARK    5  A    between atoms: C_5  and  C_7
REMARK    6  A    between atoms: C_20  and  C_21
REMARK    7  A    between atoms: C_21  and  N_22
REMARK    8  A    between atoms: C_23  and  C_25
REMARK                            x       y       z     vdW  Elec       q    Type
REMARK                         _______ _______ _______ _____ _____    ______ ____
ROOT
ATOM      1  C   UNL     1      48.469   8.993  13.599  0.00  0.00    +0.000 C 
ENDROOT
BRANCH   1   2
ATOM      2  C   UNL     1      47.443   8.035  13.001  0.00  0.00    +0.000 A 
ATOM      3  C   UNL     1      46.091   8.275  13.241  0.00  0.00    +0.000 A 
ATOM      4  C   UNL     1      45.100   7.592  12.549  0.00  0.00    +0.000 A 
ATOM      5  C   UNL     1      45.422   6.621  11.601  0.00  0.00    +0.000 A 
ATOM      6  C   UNL     1      46.774   6.294  11.429  0.00  0.00    +0.000 A 
ATOM      7  C   UNL     1      47.771   6.988  12.128  0.00  0.00    +0.000 A 
BRANCH   5   8
ATOM      8  C   UNL     1      44.337   5.908  10.826  0.00  0.00    +0.000 C 
BRANCH   8   9
ATOM      9  N   UNL     1      44.807   5.099   9.713  0.00  0.00    +0.000 N 
ATOM     10  C   UNL     1      44.429   3.778   9.601  0.00  0.00    +0.000 C 
ATOM     11  O   UNL     1      43.703   3.236  10.432  0.00  0.00    +0.000 OA
ATOM     12  H   UNL     1      45.254   5.546   8.928  0.00  0.00    +0.000 HD
BRANCH  10  13
ATOM     13  C   UNL     1      45.039   3.027   8.406  0.00  0.00    +0.000 C 
ATOM     14  C   UNL     1      45.692   1.698   8.808  0.00  0.00    +0.000 C 
ATOM     15  C   UNL     1      46.495   1.095   7.659  0.00  0.00    +0.000 C 
ATOM     16  O   UNL     1      47.444   2.027   7.152  0.00  0.00    +0.000 OA
ATOM     17  C   UNL     1      46.820   3.191   6.616  0.00  0.00    +0.000 C 
ATOM     18  C   UNL     1      46.062   3.932   7.702  0.00  0.00    +0.000 C 
ENDBRANCH  10  13
ENDBRANCH   8   9
ENDBRANCH   5   8
ENDBRANCH   1   2
BRANCH   1  19
ATOM     19  N   UNL     1      49.832   8.524  13.319  0.00  0.00    +0.000 NA
ATOM     20  H   UNL     1      49.988   8.554  12.314  0.00  0.00    +0.000 HD
ATOM     21  H   UNL     1      49.881   7.542  13.583  0.00  0.00    +0.000 HD
ENDBRANCH   1  19
BRANCH   1  22
ATOM     22  C   UNL     1      48.245   9.276  15.133  0.00  0.00    +0.000 C 
BRANCH  22  23
ATOM     23  N   UNL     1      48.362   8.129  16.024  0.00  0.00    +0.000 N 
ATOM     24  C   UNL     1      49.543   7.630  16.490  0.00  0.00    +0.000 C 
ATOM     25  O   UNL     1      50.644   8.151  16.198  0.00  0.00    +0.000 OA
ATOM     26  H   UNL     1      47.522   7.603  16.204  0.00  0.00    +0.000 HD
BRANCH  24  27
ATOM     27  C   UNL     1      49.466   6.473  17.385  0.00  0.00    +0.000 A 
ATOM     28  C   UNL     1      50.198   6.394  18.561  0.00  0.00    +0.000 A 
ATOM     29  S   UNL     1      49.865   4.988  19.478  0.00  0.00    +0.000 S 
ATOM     30  C   UNL     1      48.768   4.417  18.310  0.00  0.00    +0.000 A 
ATOM     31  N   UNL     1      48.110   3.238  18.460  0.00  0.00    +0.000 NA
ATOM     32  C   UNL     1      47.330   2.931  17.475  0.00  0.00    +0.000 A 
ATOM     33  N   UNL     1      47.158   3.690  16.348  0.00  0.00    +0.000 N 
ATOM     34  C   UNL     1      47.924   4.789  16.096  0.00  0.00    +0.000 A 
ATOM     35  O   UNL     1      47.969   5.270  14.961  0.00  0.00    +0.000 OA
ATOM     36  C   UNL     1      48.700   5.260  17.216  0.00  0.00    +0.000 A 
ATOM     37  H   UNL     1      46.624   3.340  15.569  0.00  0.00    +0.000 HD
ENDBRANCH  24  27
ENDBRANCH  22  23
ENDBRANCH   1  22
TORSDOF 8
ENDMDL
MODEL 5
REMARK VINA RESULT:    -8.117      2.161      2.665
REMARK INTER + INTRA:         -12.668
REMARK INTER:                 -11.782
REMARK INTRA:                  -0.886
REMARK UNBOUND:                -0.992
REMARK  Name = 
REMARK  8 active torsions:
REMARK  status: ('A' for Active; 'I' for Inactive)
REMARK    1  A    between atoms: N_1  and  C_2
REMARK    2  A    between atoms: C_2  and  C_3
REMARK    3  A    between atoms: C_2  and  C_17
REMARK    4  A    between atoms: C_3  and  N_4
REMARK    5  A    between atoms: C_5  and  C_7
REMARK    6  A    between atoms: C_20  and  C_21
REMARK    7  A    between atoms: C_21  and  N_22
REMARK    8  A    between atoms: C_23  and  C_25
REMARK                            x       y       z     vdW  Elec       q    Type
REMARK                         _______ _______ _______ _____ _____    ______ ____
ROOT
ATOM      1  C   UNL     1      47.461   7.509  13.647  0.00  0.00    +0.000 C 
ENDROOT
BRANCH   1   2
ATOM      2  C   UNL     1      46.378   6.685  12.957  0.00  0.00    +0.000 A 
ATOM      3  C   UNL     1      45.394   7.355  12.232  0.00  0.00    +0.000 A 
ATOM      4  C   UNL     1      44.521   6.674  11.395  0.00  0.00    +0.000 A 
ATOM      5  C   UNL     1      44.581   5.286  11.266  0.00  0.00    +0.000 A 
ATOM      6  C   UNL     1      45.494   4.592  12.071  0.00  0.00    +0.000 A 
ATOM      7  C   UNL     1      46.376   5.283  12.913  0.00  0.00    +0.000 A 
BRANCH   5   8
ATOM      8  C   UNL     1      43.650   4.557  10.325  0.00  0.00    +0.000 C 
BRANCH   8   9
ATOM      9  N   UNL     1      44.295   3.590   9.449  0.00  0.00    +0.000 N 
ATOM     10  C   UNL     1      45.245   3.998   8.539  0.00  0.00    +0.000 C 
ATOM     11  O   UNL     1      45.570   5.179   8.421  0.00  0.00    +0.000 OA
ATOM     12  H   UNL     1      44.187   2.605   9.632  0.00  0.00    +0.000 HD
BRANCH  10  13
ATOM     13  C   UNL     1      45.808   2.883   7.643  0.00  0.00    +0.000 C 
ATOM     14  C   UNL     1      46.052   1.574   8.405  0.00  0.00    +0.000 C 
ATOM     15  C   UNL     1      46.831   0.568   7.561  0.00  0.00    +0.000 C 
ATOM     16  O   UNL     1      48.040   1.137   7.071  0.00  0.00    +0.000 OA
ATOM     17  C   UNL     1      47.801   2.252   6.217  0.00  0.00    +0.000 C 
ATOM     18  C   UNL     1      47.108   3.365   6.982  0.00  0.00    +0.000 C 
ENDBRANCH  10  13
ENDBRANCH   8   9
ENDBRANCH   5   8
ENDBRANCH   1   2
BRANCH   1  19
ATOM     19  N   UNL     1      47.966   8.551  12.744  0.00  0.00    +0.000 NA
ATOM     20  H   UNL     1      47.650   8.344  11.798  0.00  0.00    +0.000 HD
ATOM     21  H   UNL     1      48.981   8.477  12.724  0.00  0.00    +0.000 HD
ENDBRANCH   1  19
BRANCH   1  22
ATOM     22  C   UNL     1      48.626   6.636  14.251  0.00  0.00    +0.000 C 
BRANCH  22  23
ATOM     23  N   UNL     1      48.681   6.550  15.704  0.00  0.00    +0.000 N 
ATOM     24  C   UNL     1      48.331   5.448  16.427  0.00  0.00    +0.000 C 
ATOM     25  O   UNL     1      47.947   4.389  15.878  0.00  0.00    +0.000 OA
ATOM     26  H   UNL     1      48.875   7.403  16.205  0.00  0.00    +0.000 HD
BRANCH  24  27
ATOM     27  C   UNL     1      48.459   5.543  17.883  0.00  0.00    +0.000 A 
ATOM     28  C   UNL     1      47.389   5.877  18.702  0.00  0.00    +0.000 A 
ATOM     29  S   UNL     1      47.769   5.830  20.370  0.00  0.00    +0.000 S 
ATOM     30  C   UNL     1      49.385   5.410  20.049  0.00  0.00    +0.000 A 
ATOM     31  N   UNL     1      50.288   5.216  21.046  0.00  0.00    +0.000 NA
ATOM     32  C   UNL     1      51.481   4.926  20.640  0.00  0.00    +0.000 A 
ATOM     33  N   UNL     1      51.856   4.824  19.327  0.00  0.00    +0.000 N 
ATOM     34  C   UNL     1      51.019   5.172  18.310  0.00  0.00    +0.000 A 
ATOM     35  O   UNL     1      51.464   5.366  17.176  0.00  0.00    +0.000 OA
ATOM     36  C   UNL     1      49.641   5.359  18.691  0.00  0.00    +0.000 A 
ATOM     37  H   UNL     1      52.825   4.707  19.077  0.00  0.00    +0.000 HD
ENDBRANCH  24  27
ENDBRANCH  22  23
ENDBRANCH   1  22
TORSDOF 8
ENDMDL
MODEL 6
REMARK VINA RESULT:    -7.913      2.265      2.853
REMARK INTER + INTRA:         -12.374
REMARK INTER:                 -11.518
REMARK INTRA:                  -0.856
REMARK UNBOUND:                -0.992
REMARK  Name = 
REMARK  8 active torsions:
REMARK  status: ('A' for Active; 'I' for Inactive)
REMARK    1  A    between atoms: N_1  and  C_2
REMARK    2  A    between atoms: C_2  and  C_3
REMARK    3  A    between atoms: C_2  and  C_17
REMARK    4  A    between atoms: C_3  and  N_4
REMARK    5  A    between atoms: C_5  and  C_7
REMARK    6  A    between atoms: C_20  and  C_21
REMARK    7  A    between atoms: C_21  and  N_22
REMARK    8  A    between atoms: C_23  and  C_25
REMARK                            x       y       z     vdW  Elec       q    Type
REMARK                         _______ _______ _______ _____ _____    ______ ____
ROOT
ATOM      1  C   UNL     1      47.328   7.736  13.548  0.00  0.00    +0.000 C 
ENDROOT
BRANCH   1   2
ATOM      2  C   UNL     1      46.282   6.823  12.914  0.00  0.00    +0.000 A 
ATOM      3  C   UNL     1      45.201   7.409  12.257  0.00  0.00    +0.000 A 
ATOM      4  C   UNL     1      44.342   6.658  11.465  0.00  0.00    +0.000 A 
ATOM      5  C   UNL     1      44.516   5.282  11.317  0.00  0.00    +0.000 A 
ATOM      6  C   UNL     1      45.533   4.666  12.058  0.00  0.00    +0.000 A 
ATOM      7  C   UNL     1      46.400   5.427  12.854  0.00  0.00    +0.000 A 
BRANCH   5   8
ATOM      8  C   UNL     1      43.597   4.479  10.424  0.00  0.00    +0.000 C 
BRANCH   8   9
ATOM      9  N   UNL     1      44.269   3.558   9.521  0.00  0.00    +0.000 N 
ATOM     10  C   UNL     1      45.205   4.021   8.621  0.00  0.00    +0.000 C 
ATOM     11  O   UNL     1      45.493   5.214   8.536  0.00  0.00    +0.000 OA
ATOM     12  H   UNL     1      44.192   2.566   9.675  0.00  0.00    +0.000 HD
BRANCH  10  13
ATOM     13  C   UNL     1      45.799   2.949   7.693  0.00  0.00    +0.000 C 
ATOM     14  C   UNL     1      46.023   1.606   8.400  0.00  0.00    +0.000 C 
ATOM     15  C   UNL     1      46.831   0.643   7.536  0.00  0.00    +0.000 C 
ATOM     16  O   UNL     1      48.054   1.235   7.112  0.00  0.00    +0.000 OA
ATOM     17  C   UNL     1      47.839   2.389   6.304  0.00  0.00    +0.000 C 
ATOM     18  C   UNL     1      47.119   3.464   7.097  0.00  0.00    +0.000 C 
ENDBRANCH  10  13
ENDBRANCH   8   9
ENDBRANCH   5   8
ENDBRANCH   1   2
BRANCH   1  19
ATOM     19  N   UNL     1      46.888   9.135  13.493  0.00  0.00    +0.000 NA
ATOM     20  H   UNL     1      47.244   9.556  12.637  0.00  0.00    +0.000 HD
ATOM     21  H   UNL     1      47.339   9.631  14.260  0.00  0.00    +0.000 HD
ENDBRANCH   1  19
BRANCH   1  22
ATOM     22  C   UNL     1      48.773   7.547  12.947  0.00  0.00    +0.000 C 
BRANCH  22  23
ATOM     23  N   UNL     1      49.813   7.142  13.883  0.00  0.00    +0.000 N 
ATOM     24  C   UNL     1      50.342   7.949  14.846  0.00  0.00    +0.000 C 
ATOM     25  O   UNL     1      49.945   9.125  15.019  0.00  0.00    +0.000 OA
ATOM     26  H   UNL     1      50.249   6.248  13.723  0.00  0.00    +0.000 HD
BRANCH  24  27
ATOM     27  C   UNL     1      51.377   7.366  15.704  0.00  0.00    +0.000 A 
ATOM     28  C   UNL     1      52.705   7.763  15.638  0.00  0.00    +0.000 A 
ATOM     29  S   UNL     1      53.702   7.002  16.804  0.00  0.00    +0.000 S 
ATOM     30  C   UNL     1      52.400   6.084  17.400  0.00  0.00    +0.000 A 
ATOM     31  N   UNL     1      52.553   5.200  18.421  0.00  0.00    +0.000 NA
ATOM     32  C   UNL     1      51.476   4.562  18.744  0.00  0.00    +0.000 A 
ATOM     33  N   UNL     1      50.262   4.717  18.130  0.00  0.00    +0.000 N 
ATOM     34  C   UNL     1      50.116   5.470  17.003  0.00  0.00    +0.000 A 
ATOM     35  O   UNL     1      49.108   5.352  16.302  0.00  0.00    +0.000 OA
ATOM     36  C   UNL     1      51.239   6.316  16.685  0.00  0.00    +0.000 A 
ATOM     37  H   UNL     1      49.491   4.108  18.353  0.00  0.00    +0.000 HD
ENDBRANCH  24  27
ENDBRANCH  22  23
ENDBRANCH   1  22
TORSDOF 8
ENDMDL
MODEL 7
REMARK VINA RESULT:    -7.908      3.640     10.155
REMARK INTER + INTRA:         -12.366
REMARK INTER:                 -11.000
REMARK INTRA:                  -1.366
REMARK UNBOUND:                -0.992
REMARK  Name = 
REMARK  8 active torsions:
REMARK  status: ('A' for Active; 'I' for Inactive)
REMARK    1  A    between atoms: N_1  and  C_2
REMARK    2  A    between atoms: C_2  and  C_3
REMARK    3  A    between atoms: C_2  and  C_17
REMARK    4  A    between atoms: C_3  and  N_4
REMARK    5  A    between atoms: C_5  and  C_7
REMARK    6  A    between atoms: C_20  and  C_21
REMARK    7  A    between atoms: C_21  and  N_22
REMARK    8  A    between atoms: C_23  and  C_25
REMARK                            x       y       z     vdW  Elec       q    Type
REMARK                         _______ _______ _______ _____ _____    ______ ____
ROOT
ATOM      1  C   UNL     1      48.168   3.401  16.564  0.00  0.00    +0.000 C 
ENDROOT
BRANCH   1   2
ATOM      2  C   UNL     1      49.537   3.121  17.176  0.00  0.00    +0.000 A 
ATOM      3  C   UNL     1      50.077   1.843  17.041  0.00  0.00    +0.000 A 
ATOM      4  C   UNL     1      51.401   1.578  17.364  0.00  0.00    +0.000 A 
ATOM      5  C   UNL     1      52.236   2.579  17.859  0.00  0.00    +0.000 A 
ATOM      6  C   UNL     1      51.676   3.840  18.101  0.00  0.00    +0.000 A 
ATOM      7  C   UNL     1      50.340   4.105  17.771  0.00  0.00    +0.000 A 
BRANCH   5   8
ATOM      8  C   UNL     1      53.686   2.289  18.173  0.00  0.00    +0.000 C 
BRANCH   8   9
ATOM      9  N   UNL     1      54.192   1.034  17.638  0.00  0.00    +0.000 N 
ATOM     10  C   UNL     1      54.642   0.046  18.487  0.00  0.00    +0.000 C 
ATOM     11  O   UNL     1      54.649   0.188  19.709  0.00  0.00    +0.000 OA
ATOM     12  H   UNL     1      54.042   0.812  16.667  0.00  0.00    +0.000 HD
BRANCH  10  13
ATOM     13  C   UNL     1      55.196  -1.207  17.788  0.00  0.00    +0.000 C 
ATOM     14  C   UNL     1      54.943  -1.205  16.275  0.00  0.00    +0.000 C 
ATOM     15  C   UNL     1      55.280  -2.555  15.647  0.00  0.00    +0.000 C 
ATOM     16  O   UNL     1      54.592  -3.613  16.304  0.00  0.00    +0.000 OA
ATOM     17  C   UNL     1      54.962  -3.724  17.676  0.00  0.00    +0.000 C 
ATOM     18  C   UNL     1      54.584  -2.462  18.429  0.00  0.00    +0.000 C 
ENDBRANCH  10  13
ENDBRANCH   8   9
ENDBRANCH   5   8
ENDBRANCH   1   2
BRANCH   1  19
ATOM     19  N   UNL     1      47.943   2.539  15.397  0.00  0.00    +0.000 NA
ATOM     20  H   UNL     1      46.952   2.558  15.163  0.00  0.00    +0.000 HD
ATOM     21  H   UNL     1      48.149   1.582  15.675  0.00  0.00    +0.000 HD
ENDBRANCH   1  19
BRANCH   1  22
ATOM     22  C   UNL     1      47.928   4.923  16.230  0.00  0.00    +0.000 C 
BRANCH  22  23
ATOM     23  N   UNL     1      46.994   5.206  15.149  0.00  0.00    +0.000 N 
ATOM     24  C   UNL     1      47.345   5.741  13.944  0.00  0.00    +0.000 C 
ATOM     25  O   UNL     1      48.535   6.013  13.661  0.00  0.00    +0.000 OA
ATOM     26  H   UNL     1      46.013   5.112  15.357  0.00  0.00    +0.000 HD
BRANCH  24  27
ATOM     27  C   UNL     1      46.268   5.949  12.973  0.00  0.00    +0.000 A 
ATOM     28  C   UNL     1      45.775   7.211  12.671  0.00  0.00    +0.000 A 
ATOM     29  S   UNL     1      44.587   7.201  11.440  0.00  0.00    +0.000 S 
ATOM     30  C   UNL     1      44.659   5.507  11.305  0.00  0.00    +0.000 A 
ATOM     31  N   UNL     1      43.882   4.823  10.425  0.00  0.00    +0.000 NA
ATOM     32  C   UNL     1      44.034   3.539  10.460  0.00  0.00    +0.000 A 
ATOM     33  N   UNL     1      44.884   2.876  11.304  0.00  0.00    +0.000 N 
ATOM     34  C   UNL     1      45.551   3.517  12.304  0.00  0.00    +0.000 A 
ATOM     35  O   UNL     1      46.058   2.874  13.228  0.00  0.00    +0.000 OA
ATOM     36  C   UNL     1      45.536   4.957  12.222  0.00  0.00    +0.000 A 
ATOM     37  H   UNL     1      44.873   1.870  11.359  0.00  0.00    +0.000 HD
ENDBRANCH  24  27
ENDBRANCH  22  23
ENDBRANCH   1  22
TORSDOF 8
ENDMDL
MODEL 8
REMARK VINA RESULT:    -7.745      2.022      3.125
REMARK INTER + INTRA:         -12.132
REMARK INTER:                 -10.926
REMARK INTRA:                  -1.207
REMARK UNBOUND:                -0.992
REMARK  Name = 
REMARK  8 active torsions:
REMARK  status: ('A' for Active; 'I' for Inactive)
REMARK    1  A    between atoms: N_1  and  C_2
REMARK    2  A    between atoms: C_2  and  C_3
REMARK    3  A    between atoms: C_2  and  C_17
REMARK    4  A    between atoms: C_3  and  N_4
REMARK    5  A    between atoms: C_5  and  C_7
REMARK    6  A    between atoms: C_20  and  C_21
REMARK    7  A    between atoms: C_21  and  N_22
REMARK    8  A    between atoms: C_23  and  C_25
REMARK                            x       y       z     vdW  Elec       q    Type
REMARK                         _______ _______ _______ _____ _____    ______ ____
ROOT
ATOM      1  C   UNL     1      48.082   4.107  17.407  0.00  0.00    +0.000 C 
ENDROOT
BRANCH   1   2
ATOM      2  C   UNL     1      47.905   4.724  16.022  0.00  0.00    +0.000 A 
ATOM      3  C   UNL     1      47.093   4.066  15.101  0.00  0.00    +0.000 A 
ATOM      4  C   UNL     1      46.701   4.674  13.916  0.00  0.00    +0.000 A 
ATOM      5  C   UNL     1      47.127   5.962  13.592  0.00  0.00    +0.000 A 
ATOM      6  C   UNL     1      48.031   6.592  14.459  0.00  0.00    +0.000 A 
ATOM      7  C   UNL     1      48.421   5.975  15.655  0.00  0.00    +0.000 A 
BRANCH   5   8
ATOM      8  C   UNL     1      46.667   6.630  12.316  0.00  0.00    +0.000 C 
BRANCH   8   9
ATOM      9  N   UNL     1      46.283   5.718  11.250  0.00  0.00    +0.000 N 
ATOM     10  C   UNL     1      44.953   5.513  10.952  0.00  0.00    +0.000 C 
ATOM     11  O   UNL     1      44.052   6.072  11.575  0.00  0.00    +0.000 OA
ATOM     12  H   UNL     1      46.983   5.381  10.609  0.00  0.00    +0.000 HD
BRANCH  10  13
ATOM     13  C   UNL     1      44.688   4.487   9.838  0.00  0.00    +0.000 C 
ATOM     14  C   UNL     1      44.697   3.040  10.347  0.00  0.00    +0.000 C 
ATOM     15  C   UNL     1      44.676   2.038   9.196  0.00  0.00    +0.000 C 
ATOM     16  O   UNL     1      45.733   2.289   8.277  0.00  0.00    +0.000 OA
ATOM     17  C   UNL     1      45.624   3.575   7.671  0.00  0.00    +0.000 C 
ATOM     18  C   UNL     1      45.728   4.665   8.721  0.00  0.00    +0.000 C 
ENDBRANCH  10  13
ENDBRANCH   8   9
ENDBRANCH   5   8
ENDBRANCH   1   2
BRANCH   1  19
ATOM     19  N   UNL     1      46.785   3.995  18.086  0.00  0.00    +0.000 NA
ATOM     20  H   UNL     1      46.064   3.827  17.388  0.00  0.00    +0.000 HD
ATOM     21  H   UNL     1      46.573   4.901  18.499  0.00  0.00    +0.000 HD
ENDBRANCH   1  19
BRANCH   1  22
ATOM     22  C   UNL     1      49.151   4.852  18.294  0.00  0.00    +0.000 C 
BRANCH  22  23
ATOM     23  N   UNL     1      50.416   4.158  18.498  0.00  0.00    +0.000 N 
ATOM     24  C   UNL     1      51.569   4.443  17.829  0.00  0.00    +0.000 C 
ATOM     25  O   UNL     1      51.636   5.366  16.984  0.00  0.00    +0.000 OA
ATOM     26  H   UNL     1      50.397   3.337  19.082  0.00  0.00    +0.000 HD
BRANCH  24  27
ATOM     27  C   UNL     1      52.748   3.644  18.172  0.00  0.00    +0.000 A 
ATOM     28  C   UNL     1      53.959   4.222  18.526  0.00  0.00    +0.000 A 
ATOM     29  S   UNL     1      55.154   3.080  18.972  0.00  0.00    +0.000 S 
ATOM     30  C   UNL     1      54.107   1.777  18.659  0.00  0.00    +0.000 A 
ATOM     31  N   UNL     1      54.496   0.486  18.829  0.00  0.00    +0.000 NA
ATOM     32  C   UNL     1      53.595  -0.390  18.526  0.00  0.00    +0.000 A 
ATOM     33  N   UNL     1      52.344  -0.093  18.056  0.00  0.00    +0.000 N 
ATOM     34  C   UNL     1      51.983   1.177  17.721  0.00  0.00    +0.000 A 
ATOM     35  O   UNL     1      50.984   1.378  17.025  0.00  0.00    +0.000 OA
ATOM     36  C   UNL     1      52.886   2.207  18.172  0.00  0.00    +0.000 A 
ATOM     37  H   UNL     1      51.730  -0.824  17.732  0.00  0.00    +0.000 HD
ENDBRANCH  24  27
ENDBRANCH  22  23
ENDBRANCH   1  22
TORSDOF 8
ENDMDL
MODEL 9
REMARK VINA RESULT:    -7.612      3.132      4.189
REMARK INTER + INTRA:         -11.941
REMARK INTER:                 -10.944
REMARK INTRA:                  -0.997
REMARK UNBOUND:                -0.992
REMARK  Name = 
REMARK  8 active torsions:
REMARK  status: ('A' for Active; 'I' for Inactive)
REMARK    1  A    between atoms: N_1  and  C_2
REMARK    2  A    between atoms: C_2  and  C_3
REMARK    3  A    between atoms: C_2  and  C_17
REMARK    4  A    between atoms: C_3  and  N_4
REMARK    5  A    between atoms: C_5  and  C_7
REMARK    6  A    between atoms: C_20  and  C_21
REMARK    7  A    between atoms: C_21  and  N_22
REMARK    8  A    between atoms: C_23  and  C_25
REMARK                            x       y       z     vdW  Elec       q    Type
REMARK                         _______ _______ _______ _____ _____    ______ ____
ROOT
ATOM      1  C   UNL     1      47.249   8.718  13.470  0.00  0.00    +0.000 C 
ENDROOT
BRANCH   1   2
ATOM      2  C   UNL     1      46.233   7.739  12.890  0.00  0.00    +0.000 A 
ATOM      3  C   UNL     1      45.112   8.252  12.239  0.00  0.00    +0.000 A 
ATOM      4  C   UNL     1      44.272   7.438  11.492  0.00  0.00    +0.000 A 
ATOM      5  C   UNL     1      44.505   6.067  11.384  0.00  0.00    +0.000 A 
ATOM      6  C   UNL     1      45.565   5.522  12.122  0.00  0.00    +0.000 A 
ATOM      7  C   UNL     1      46.413   6.348  12.872  0.00  0.00    +0.000 A 
BRANCH   5   8
ATOM      8  C   UNL     1      43.605   5.195  10.539  0.00  0.00    +0.000 C 
BRANCH   8   9
ATOM      9  N   UNL     1      44.257   4.555   9.407  0.00  0.00    +0.000 N 
ATOM     10  C   UNL     1      44.486   3.195   9.410  0.00  0.00    +0.000 C 
ATOM     11  O   UNL     1      44.167   2.483  10.361  0.00  0.00    +0.000 OA
ATOM     12  H   UNL     1      44.374   5.066   8.546  0.00  0.00    +0.000 HD
BRANCH  10  13
ATOM     13  C   UNL     1      45.228   2.659   8.175  0.00  0.00    +0.000 C 
ATOM     14  C   UNL     1      45.994   1.360   8.458  0.00  0.00    +0.000 C 
ATOM     15  C   UNL     1      46.911   0.983   7.298  0.00  0.00    +0.000 C 
ATOM     16  O   UNL     1      47.782   2.057   6.961  0.00  0.00    +0.000 OA
ATOM     17  C   UNL     1      47.068   3.212   6.528  0.00  0.00    +0.000 C 
ATOM     18  C   UNL     1      46.185   3.738   7.645  0.00  0.00    +0.000 C 
ENDBRANCH  10  13
ENDBRANCH   8   9
ENDBRANCH   5   8
ENDBRANCH   1   2
BRANCH   1  19
ATOM     19  N   UNL     1      47.642   9.707  12.459  0.00  0.00    +0.000 NA
ATOM     20  H   UNL     1      48.313  10.350  12.874  0.00  0.00    +0.000 HD
ATOM     21  H   UNL     1      46.819  10.263  12.235  0.00  0.00    +0.000 HD
ENDBRANCH   1  19
BRANCH   1  22
ATOM     22  C   UNL     1      48.498   8.012  14.123  0.00  0.00    +0.000 C 
BRANCH  22  23
ATOM     23  N   UNL     1      48.294   7.430  15.443  0.00  0.00    +0.000 N 
ATOM     24  C   UNL     1      49.235   6.721  16.129  0.00  0.00    +0.000 C 
ATOM     25  O   UNL     1      50.387   6.533  15.673  0.00  0.00    +0.000 OA
ATOM     26  H   UNL     1      47.356   7.453  15.812  0.00  0.00    +0.000 HD
BRANCH  24  27
ATOM     27  C   UNL     1      48.851   6.217  17.450  0.00  0.00    +0.000 A 
ATOM     28  C   UNL     1      48.910   4.869  17.776  0.00  0.00    +0.000 A 
ATOM     29  S   UNL     1      48.501   4.544  19.406  0.00  0.00    +0.000 S 
ATOM     30  C   UNL     1      48.185   6.187  19.714  0.00  0.00    +0.000 A 
ATOM     31  N   UNL     1      47.778   6.623  20.934  0.00  0.00    +0.000 NA
ATOM     32  C   UNL     1      47.555   7.895  21.002  0.00  0.00    +0.000 A 
ATOM     33  N   UNL     1      47.691   8.769  19.957  0.00  0.00    +0.000 N 
ATOM     34  C   UNL     1      47.938   8.341  18.687  0.00  0.00    +0.000 A 
ATOM     35  O   UNL     1      47.754   9.095  17.728  0.00  0.00    +0.000 OA
ATOM     36  C   UNL     1      48.339   6.960  18.577  0.00  0.00    +0.000 A 
ATOM     37  H   UNL     1      47.394   9.728  20.046  0.00  0.00    +0.000 HD
ENDBRANCH  24  27
ENDBRANCH  22  23
ENDBRANCH   1  22
TORSDOF 8
ENDMDL
