MODEL 1
REMARK VINA RESULT:    -9.205      0.000      0.000
REMARK INTER + INTRA:         -12.638
REMARK INTER:                 -11.896
REMARK INTRA:                  -0.741
REMARK UNBOUND:                -0.741
REMARK  Name = 
REMARK  5 active torsions:
REMARK  status: ('A' for Active; 'I' for Inactive)
REMARK    1  A    between atoms: C_2  and  C_4
REMARK    2  A    between atoms: C_7  and  C_8
REMARK    3  A    between atoms: C_8  and  C_9
REMARK    4  A    between atoms: C_9  and  C_10
REMARK    5  A    between atoms: C_14  and  C_15
REMARK                            x       y       z     vdW  Elec       q    Type
REMARK                         _______ _______ _______ _____ _____    ______ ____
ROOT
ATOM      1  C   UNL     1      43.948   4.747  11.558  0.00  0.00    +0.000 C 
ATOM      2  C   UNL     1      42.713   5.189  12.342  0.00  0.00    +0.000 C 
ATOM      3  C   UNL     1      43.088   5.919  11.094  0.00  0.00    +0.000 C 
ENDROOT
BRANCH   1   4
ATOM      4  C   UNL     1      45.296   5.064  12.206  0.00  0.00    +0.000 A 
ATOM      5  C   UNL     1      46.180   6.003  11.668  0.00  0.00    +0.000 A 
ATOM      6  C   UNL     1      47.341   6.315  12.352  0.00  0.00    +0.000 A 
ATOM      7  N   UNL     1      47.706   5.735  13.513  0.00  0.00    +0.000 NA
ATOM      8  C   UNL     1      46.881   4.788  14.034  0.00  0.00    +0.000 A 
ATOM      9  C   UNL     1      45.679   4.451  13.407  0.00  0.00    +0.000 A 
BRANCH   8  10
ATOM     10  C   UNL     1      47.319   4.138  15.291  0.00  0.00    +0.000 A 
ATOM     11  C   UNL     1      47.162   4.753  16.534  0.00  0.00    +0.000 A 
ATOM     12  C   UNL     1      47.603   4.102  17.684  0.00  0.00    +0.000 A 
ATOM     13  C   UNL     1      48.192   2.851  17.572  0.00  0.00    +0.000 A 
ATOM     14  C   UNL     1      48.313   2.301  16.310  0.00  0.00    +0.000 A 
ATOM     15  N   UNL     1      47.894   2.906  15.180  0.00  0.00    +0.000 NA
ENDBRANCH   8  10
ENDBRANCH   1   4
BRANCH   1  16
ATOM     16  C   UNL     1      43.806   3.376  10.908  0.00  0.00    +0.000 C 
BRANCH  16  20
ATOM     17  C   UNL     1      46.393   2.717   7.609  0.00  0.00    +0.000 A 
ATOM     18  C   UNL     1      45.945   4.012   7.823  0.00  0.00    +0.000 A 
ATOM     19  C   UNL     1      45.055   4.234   8.874  0.00  0.00    +0.000 A 
ATOM     20  C   UNL     1      44.652   3.164   9.680  0.00  0.00    +0.000 A 
ATOM     21  C   UNL     1      45.141   1.899   9.364  0.00  0.00    +0.000 A 
ATOM     22  N   UNL     1      45.999   1.643   8.350  0.00  0.00    +0.000 NA
BRANCH  17  24
ATOM     23  N   UNL     1      47.289   3.254   5.422  0.00  0.00    +0.000 N 
ATOM     24  C   UNL     1      47.388   2.442   6.520  0.00  0.00    +0.000 C 
ATOM     25  O   UNL     1      48.232   1.559   6.596  0.00  0.00    +0.000 OA
ATOM     26  H   UNL     1      47.929   3.136   4.652  0.00  0.00    +0.000 HD
ATOM     27  H   UNL     1      46.574   3.972   5.401  0.00  0.00    +0.000 HD
ENDBRANCH  17  24
ENDBRANCH  16  20
ENDBRANCH   1  16
TORSDOF 5
ENDMDL
MODEL 2
REMARK VINA RESULT:    -8.928      1.657      3.219
REMARK INTER + INTRA:         -12.279
REMARK INTER:                 -11.165
REMARK INTRA:                  -1.114
REMARK UNBOUND:                -0.741
REMARK  Name = 
REMARK  5 active torsions:
REMARK  status: ('A' for Active; 'I' for Inactive)
REMARK    1  A    between atoms: C_2  and  C_4
REMARK    2  A    between atoms: C_7  and  C_8
REMARK    3  A    between atoms: C_8  and  C_9
REMARK    4  A    between atoms: C_9  and  C_10
REMARK    5  A    between atoms: C_14  and  C_15
REMARK                            x       y       z     vdW  Elec       q    Type
REMARK                         _______ _______ _______ _____ _____    ______ ____
ROOT
ATOM      1  C   UNL     1      43.955   4.849  11.458  0.00  0.00    +0.000 C 
ATOM      2  C   UNL     1      42.758   5.462  12.185  0.00  0.00    +0.000 C 
ATOM      3  C   UNL     1      43.412   6.225  11.078  0.00  0.00    +0.000 C 
ENDROOT
BRANCH   1   4
ATOM      4  C   UNL     1      45.258   4.791  12.255  0.00  0.00    +0.000 A 
ATOM      5  C   UNL     1      45.592   3.699  13.061  0.00  0.00    +0.000 A 
ATOM      6  C   UNL     1      46.829   3.664  13.680  0.00  0.00    +0.000 A 
ATOM      7  N   UNL     1      47.743   4.651  13.588  0.00  0.00    +0.000 NA
ATOM      8  C   UNL     1      47.422   5.742  12.841  0.00  0.00    +0.000 A 
ATOM      9  C   UNL     1      46.202   5.824  12.166  0.00  0.00    +0.000 A 
BRANCH   8  10
ATOM     10  C   UNL     1      48.426   6.830  12.782  0.00  0.00    +0.000 A 
ATOM     11  C   UNL     1      48.496   7.712  11.703  0.00  0.00    +0.000 A 
ATOM     12  C   UNL     1      49.469   8.711  11.693  0.00  0.00    +0.000 A 
ATOM     13  C   UNL     1      50.352   8.808  12.758  0.00  0.00    +0.000 A 
ATOM     14  C   UNL     1      50.223   7.902  13.793  0.00  0.00    +0.000 A 
ATOM     15  N   UNL     1      49.292   6.928  13.832  0.00  0.00    +0.000 NA
ENDBRANCH   8  10
ENDBRANCH   1   4
BRANCH   1  16
ATOM     16  C   UNL     1      43.606   3.622  10.625  0.00  0.00    +0.000 C 
BRANCH  16  20
ATOM     17  C   UNL     1      46.459   2.737   7.609  0.00  0.00    +0.000 A 
ATOM     18  C   UNL     1      46.077   4.062   7.762  0.00  0.00    +0.000 A 
ATOM     19  C   UNL     1      45.105   4.360   8.716  0.00  0.00    +0.000 A 
ATOM     20  C   UNL     1      44.554   3.333   9.491  0.00  0.00    +0.000 A 
ATOM     21  C   UNL     1      44.988   2.034   9.240  0.00  0.00    +0.000 A 
ATOM     22  N   UNL     1      45.923   1.705   8.320  0.00  0.00    +0.000 NA
BRANCH  17  24
ATOM     23  N   UNL     1      47.536   3.109   5.470  0.00  0.00    +0.000 N 
ATOM     24  C   UNL     1      47.536   2.379   6.629  0.00  0.00    +0.000 C 
ATOM     25  O   UNL     1      48.362   1.500   6.838  0.00  0.00    +0.000 OA
ATOM     26  H   UNL     1      48.235   2.933   4.766  0.00  0.00    +0.000 HD
ATOM     27  H   UNL     1      46.833   3.827   5.338  0.00  0.00    +0.000 HD
ENDBRANCH  17  24
ENDBRANCH  16  20
ENDBRANCH   1  16
TORSDOF 5
ENDMDL
MODEL 3
REMARK VINA RESULT:    -8.225      2.817      7.433
REMARK INTER + INTRA:         -11.370
REMARK INTER:                 -10.735
REMARK INTRA:                  -0.635
REMARK UNBOUND:                -0.741
REMARK  Name = 
REMARK  5 active torsions:
REMARK  status: ('A' for Active; 'I' for Inactive)
REMARK    1  A    between atoms: C_2  and  C_4
REMARK    2  A    between atoms: C_7  and  C_8
REMARK    3  A    between atoms: C_8  and  C_9
REMARK    4  A    between atoms: C_9  and  C_10
REMARK    5  A    between atoms: C_14  and  C_15
REMARK                            x       y       z     vdW  Elec       q    Type
REMARK                         _______ _______ _______ _____ _____    ______ ____
ROOT
ATOM      1  C   UNL     1      46.088   7.394  12.194  0.00  0.00    +0.000 C 
ATOM      2  C   UNL     1      45.958   8.827  11.682  0.00  0.00    +0.000 C 
ATOM      3  C   UNL     1      45.341   8.459  12.992  0.00  0.00    +0.000 C 
ENDROOT
BRANCH   1   4
ATOM      4  C   UNL     1      45.259   6.345  11.454  0.00  0.00    +0.000 A 
ATOM      5  C   UNL     1      43.890   6.176  11.685  0.00  0.00    +0.000 A 
ATOM      6  C   UNL     1      43.176   5.275  10.914  0.00  0.00    +0.000 A 
ATOM      7  N   UNL     1      43.728   4.504   9.957  0.00  0.00    +0.000 NA
ATOM      8  C   UNL     1      45.067   4.622   9.743  0.00  0.00    +0.000 A 
ATOM      9  C   UNL     1      45.837   5.535  10.466  0.00  0.00    +0.000 A 
BRANCH   8  10
ATOM     10  C   UNL     1      45.659   3.739   8.711  0.00  0.00    +0.000 A 
ATOM     11  C   UNL     1      45.658   2.350   8.839  0.00  0.00    +0.000 A 
ATOM     12  C   UNL     1      46.241   1.567   7.844  0.00  0.00    +0.000 A 
ATOM     13  C   UNL     1      46.813   2.186   6.742  0.00  0.00    +0.000 A 
ATOM     14  C   UNL     1      46.777   3.566   6.681  0.00  0.00    +0.000 A 
ATOM     15  N   UNL     1      46.218   4.349   7.626  0.00  0.00    +0.000 NA
ENDBRANCH   8  10
ENDBRANCH   1   4
BRANCH   1  16
ATOM     16  C   UNL     1      47.512   7.001  12.569  0.00  0.00    +0.000 C 
BRANCH  16  20
ATOM     17  C   UNL     1      47.578   4.464  15.971  0.00  0.00    +0.000 A 
ATOM     18  C   UNL     1      48.335   5.625  16.022  0.00  0.00    +0.000 A 
ATOM     19  C   UNL     1      48.361   6.443  14.893  0.00  0.00    +0.000 A 
ATOM     20  C   UNL     1      47.626   6.084  13.758  0.00  0.00    +0.000 A 
ATOM     21  C   UNL     1      46.920   4.884  13.801  0.00  0.00    +0.000 A 
ATOM     22  N   UNL     1      46.876   4.062  14.874  0.00  0.00    +0.000 NA
BRANCH  17  24
ATOM     23  N   UNL     1      48.624   3.498  17.932  0.00  0.00    +0.000 N 
ATOM     24  C   UNL     1      47.483   3.580  17.179  0.00  0.00    +0.000 C 
ATOM     25  O   UNL     1      46.464   2.972  17.482  0.00  0.00    +0.000 OA
ATOM     26  H   UNL     1      48.636   2.930  18.765  0.00  0.00    +0.000 HD
ATOM     27  H   UNL     1      49.445   4.017  17.644  0.00  0.00    +0.000 HD
ENDBRANCH  17  24
ENDBRANCH  16  20
ENDBRANCH   1  16
TORSDOF 5
ENDMDL
MODEL 4
REMARK VINA RESULT:    -7.716      2.892      7.662
REMARK INTER + INTRA:         -10.713
REMARK INTER:                  -9.820
REMARK INTRA:                  -0.893
REMARK UNBOUND:                -0.741
REMARK  Name = 
REMARK  5 active torsions:
REMARK  status: ('A' for Active; 'I' for Inactive)
REMARK    1  A    between atoms: C_2  and  C_4
REMARK    2  A    between atoms: C_7  and  C_8
REMARK    3  A    between atoms: C_8  and  C_9
REMARK    4  A    between atoms: C_9  and  C_10
REMARK    5  A    between atoms: C_14  and  C_15
REMARK                            x       y       z     vdW  Elec       q    Type
REMARK                         _______ _______ _______ _____ _____    ______ ____
ROOT
ATOM      1  C   UNL     1      45.357   6.133  12.037  0.00  0.00    +0.000 C 
ATOM      2  C   UNL     1      44.703   7.404  11.496  0.00  0.00    +0.000 C 
ATOM      3  C   UNL     1      44.311   6.896  12.846  0.00  0.00    +0.000 C 
ENDROOT
BRANCH   1   4
ATOM      4  C   UNL     1      44.928   4.828  11.367  0.00  0.00    +0.000 A 
ATOM      5  C   UNL     1      43.848   4.071  11.830  0.00  0.00    +0.000 A 
ATOM      6  C   UNL     1      43.450   2.950  11.124  0.00  0.00    +0.000 A 
ATOM      7  N   UNL     1      44.070   2.504  10.013  0.00  0.00    +0.000 NA
ATOM      8  C   UNL     1      45.149   3.202   9.568  0.00  0.00    +0.000 A 
ATOM      9  C   UNL     1      45.582   4.359  10.219  0.00  0.00    +0.000 A 
BRANCH   8  10
ATOM     10  C   UNL     1      45.837   2.675   8.366  0.00  0.00    +0.000 A 
ATOM     11  C   UNL     1      46.050   3.460   7.233  0.00  0.00    +0.000 A 
ATOM     12  C   UNL     1      46.692   2.910   6.125  0.00  0.00    +0.000 A 
ATOM     13  C   UNL     1      47.107   1.587   6.169  0.00  0.00    +0.000 A 
ATOM     14  C   UNL     1      46.865   0.869   7.325  0.00  0.00    +0.000 A 
ATOM     15  N   UNL     1      46.249   1.375   8.413  0.00  0.00    +0.000 NA
ENDBRANCH   8  10
ENDBRANCH   1   4
BRANCH   1  16
ATOM     16  C   UNL     1      46.841   6.289  12.348  0.00  0.00    +0.000 C 
BRANCH  16  20
ATOM     17  C   UNL     1      48.229   5.023  16.154  0.00  0.00    +0.000 A 
ATOM     18  C   UNL     1      47.220   4.280  15.559  0.00  0.00    +0.000 A 
ATOM     19  C   UNL     1      46.720   4.713  14.332  0.00  0.00    +0.000 A 
ATOM     20  C   UNL     1      47.249   5.862  13.733  0.00  0.00    +0.000 A 
ATOM     21  C   UNL     1      48.242   6.549  14.425  0.00  0.00    +0.000 A 
ATOM     22  N   UNL     1      48.747   6.165  15.620  0.00  0.00    +0.000 NA
BRANCH  17  24
ATOM     23  N   UNL     1      50.194   4.464  17.458  0.00  0.00    +0.000 N 
ATOM     24  C   UNL     1      48.828   4.566  17.450  0.00  0.00    +0.000 C 
ATOM     25  O   UNL     1      48.156   4.300  18.439  0.00  0.00    +0.000 OA
ATOM     26  H   UNL     1      50.670   4.171  18.296  0.00  0.00    +0.000 HD
ATOM     27  H   UNL     1      50.711   4.693  16.617  0.00  0.00    +0.000 HD
ENDBRANCH  17  24
ENDBRANCH  16  20
ENDBRANCH   1  16
TORSDOF 5
ENDMDL
MODEL 5
REMARK VINA RESULT:    -7.557      2.826      3.733
REMARK INTER + INTRA:         -10.508
REMARK INTER:                 -10.433
REMARK INTRA:                  -0.075
REMARK UNBOUND:                -0.741
REMARK  Name = 
REMARK  5 active torsions:
REMARK  status: ('A' for Active; 'I' for Inactive)
REMARK    1  A    between atoms: C_2  and  C_4
REMARK    2  A    between atoms: C_7  and  C_8
REMARK    3  A    between atoms: C_8  and  C_9
REMARK    4  A    between atoms: C_9  and  C_10
REMARK    5  A    between atoms: C_14  and  C_15
REMARK                            x       y       z     vdW  Elec       q    Type
REMARK                         _______ _______ _______ _____ _____    ______ ____
ROOT
ATOM      1  C   UNL     1      44.284   4.680  11.690  0.00  0.00    +0.000 C 
ATOM      2  C   UNL     1      45.060   3.637  12.492  0.00  0.00    +0.000 C 
ATOM      3  C   UNL     1      43.745   4.127  13.007  0.00  0.00    +0.000 C 
ENDROOT
BRANCH   1   4
ATOM      4  C   UNL     1      44.868   6.093  11.695  0.00  0.00    +0.000 A 
ATOM      5  C   UNL     1      44.086   7.224  11.443  0.00  0.00    +0.000 A 
ATOM      6  C   UNL     1      44.653   8.482  11.556  0.00  0.00    +0.000 A 
ATOM      7  N   UNL     1      45.947   8.696  11.864  0.00  0.00    +0.000 NA
ATOM      8  C   UNL     1      46.736   7.608  12.073  0.00  0.00    +0.000 A 
ATOM      9  C   UNL     1      46.217   6.313  12.004  0.00  0.00    +0.000 A 
BRANCH   8  10
ATOM     10  C   UNL     1      48.164   7.865  12.376  0.00  0.00    +0.000 A 
ATOM     11  C   UNL     1      49.175   7.591  11.455  0.00  0.00    +0.000 A 
ATOM     12  C   UNL     1      50.503   7.841  11.796  0.00  0.00    +0.000 A 
ATOM     13  C   UNL     1      50.795   8.358  13.049  0.00  0.00    +0.000 A 
ATOM     14  C   UNL     1      49.743   8.608  13.911  0.00  0.00    +0.000 A 
ATOM     15  N   UNL     1      48.449   8.379  13.608  0.00  0.00    +0.000 NA
ENDBRANCH   8  10
ENDBRANCH   1   4
BRANCH   1  16
ATOM     16  C   UNL     1      43.754   4.162  10.358  0.00  0.00    +0.000 C 
BRANCH  16  20
ATOM     17  C   UNL     1      46.562   2.810   7.477  0.00  0.00    +0.000 A 
ATOM     18  C   UNL     1      45.982   1.858   8.304  0.00  0.00    +0.000 A 
ATOM     19  C   UNL     1      45.095   2.295   9.287  0.00  0.00    +0.000 A 
ATOM     20  C   UNL     1      44.807   3.659   9.407  0.00  0.00    +0.000 A 
ATOM     21  C   UNL     1      45.462   4.533   8.544  0.00  0.00    +0.000 A 
ATOM     22  N   UNL     1      46.333   4.149   7.583  0.00  0.00    +0.000 NA
BRANCH  17  24
ATOM     23  N   UNL     1      47.394   3.110   5.220  0.00  0.00    +0.000 N 
ATOM     24  C   UNL     1      47.483   2.379   6.375  0.00  0.00    +0.000 C 
ATOM     25  O   UNL     1      48.265   1.443   6.487  0.00  0.00    +0.000 OA
ATOM     26  H   UNL     1      47.988   2.886   4.438  0.00  0.00    +0.000 HD
ATOM     27  H   UNL     1      46.732   3.876   5.171  0.00  0.00    +0.000 HD
ENDBRANCH  17  24
ENDBRANCH  16  20
ENDBRANCH   1  16
TORSDOF 5
ENDMDL
MODEL 6
REMARK VINA RESULT:    -7.044      2.971      4.530
REMARK INTER + INTRA:          -9.845
REMARK INTER:                  -8.980
REMARK INTRA:                  -0.864
REMARK UNBOUND:                -0.741
REMARK  Name = 
REMARK  5 active torsions:
REMARK  status: ('A' for Active; 'I' for Inactive)
REMARK    1  A    between atoms: C_2  and  C_4
REMARK    2  A    between atoms: C_7  and  C_8
REMARK    3  A    between atoms: C_8  and  C_9
REMARK    4  A    between atoms: C_9  and  C_10
REMARK    5  A    between atoms: C_14  and  C_15
REMARK                            x       y       z     vdW  Elec       q    Type
REMARK                         _______ _______ _______ _____ _____    ______ ____
ROOT
ATOM      1  C   UNL     1      47.837   8.068  12.522  0.00  0.00    +0.000 C 
ATOM      2  C   UNL     1      48.616   9.137  11.757  0.00  0.00    +0.000 C 
ATOM      3  C   UNL     1      48.899   7.693  11.491  0.00  0.00    +0.000 C 
ENDROOT
BRANCH   1   4
ATOM      4  C   UNL     1      48.193   7.915  14.000  0.00  0.00    +0.000 A 
ATOM      5  C   UNL     1      48.283   9.011  14.863  0.00  0.00    +0.000 A 
ATOM      6  C   UNL     1      48.515   8.799  16.211  0.00  0.00    +0.000 A 
ATOM      7  N   UNL     1      48.700   7.581  16.757  0.00  0.00    +0.000 NA
ATOM      8  C   UNL     1      48.656   6.502  15.929  0.00  0.00    +0.000 A 
ATOM      9  C   UNL     1      48.396   6.648  14.565  0.00  0.00    +0.000 A 
BRANCH   8  10
ATOM     10  C   UNL     1      48.897   5.176  16.544  0.00  0.00    +0.000 A 
ATOM     11  C   UNL     1      47.883   4.228  16.675  0.00  0.00    +0.000 A 
ATOM     12  C   UNL     1      48.162   3.000  17.274  0.00  0.00    +0.000 A 
ATOM     13  C   UNL     1      49.446   2.744  17.730  0.00  0.00    +0.000 A 
ATOM     14  C   UNL     1      50.402   3.729  17.565  0.00  0.00    +0.000 A 
ATOM     15  N   UNL     1      50.163   4.924  16.989  0.00  0.00    +0.000 NA
ENDBRANCH   8  10
ENDBRANCH   1   4
BRANCH   1  16
ATOM     16  C   UNL     1      46.356   8.012  12.164  0.00  0.00    +0.000 C 
BRANCH  16  20
ATOM     17  C   UNL     1      44.618   4.218  11.389  0.00  0.00    +0.000 A 
ATOM     18  C   UNL     1      44.589   4.682  12.696  0.00  0.00    +0.000 A 
ATOM     19  C   UNL     1      45.200   5.904  12.973  0.00  0.00    +0.000 A 
ATOM     20  C   UNL     1      45.808   6.627  11.941  0.00  0.00    +0.000 A 
ATOM     21  C   UNL     1      45.803   6.061  10.669  0.00  0.00    +0.000 A 
ATOM     22  N   UNL     1      45.228   4.876  10.362  0.00  0.00    +0.000 NA
BRANCH  17  24
ATOM     23  N   UNL     1      44.461   2.261   9.968  0.00  0.00    +0.000 N 
ATOM     24  C   UNL     1      43.931   2.932  11.038  0.00  0.00    +0.000 C 
ATOM     25  O   UNL     1      42.965   2.502  11.655  0.00  0.00    +0.000 OA
ATOM     26  H   UNL     1      44.059   1.384   9.677  0.00  0.00    +0.000 HD
ATOM     27  H   UNL     1      45.261   2.654   9.485  0.00  0.00    +0.000 HD
ENDBRANCH  17  24
ENDBRANCH  16  20
ENDBRANCH   1  16
TORSDOF 5
ENDMDL
MODEL 7
REMARK VINA RESULT:    -7.025      3.074      7.608
REMARK INTER + INTRA:          -9.820
REMARK INTER:                  -9.255
REMARK INTRA:                  -0.565
REMARK UNBOUND:                -0.741
REMARK  Name = 
REMARK  5 active torsions:
REMARK  status: ('A' for Active; 'I' for Inactive)
REMARK    1  A    between atoms: C_2  and  C_4
REMARK    2  A    between atoms: C_7  and  C_8
REMARK    3  A    between atoms: C_8  and  C_9
REMARK    4  A    between atoms: C_9  and  C_10
REMARK    5  A    between atoms: C_14  and  C_15
REMARK                            x       y       z     vdW  Elec       q    Type
REMARK                         _______ _______ _______ _____ _____    ______ ____
ROOT
ATOM      1  C   UNL     1      47.947   8.081  12.580  0.00  0.00    +0.000 C 
ATOM      2  C   UNL     1      48.591   9.114  11.657  0.00  0.00    +0.000 C 
ATOM      3  C   UNL     1      47.957   9.567  12.932  0.00  0.00    +0.000 C 
ENDROOT
BRANCH   1   4
ATOM      4  C   UNL     1      46.634   7.474  12.086  0.00  0.00    +0.000 A 
ATOM      5  C   UNL     1      45.387   7.984  12.461  0.00  0.00    +0.000 A 
ATOM      6  C   UNL     1      44.238   7.451  11.904  0.00  0.00    +0.000 A 
ATOM      7  N   UNL     1      44.235   6.425  11.031  0.00  0.00    +0.000 NA
ATOM      8  C   UNL     1      45.434   5.886  10.682  0.00  0.00    +0.000 A 
ATOM      9  C   UNL     1      46.632   6.399  11.186  0.00  0.00    +0.000 A 
BRANCH   8  10
ATOM     10  C   UNL     1      45.405   4.736   9.748  0.00  0.00    +0.000 A 
ATOM     11  C   UNL     1      44.811   3.521  10.092  0.00  0.00    +0.000 A 
ATOM     12  C   UNL     1      44.823   2.468   9.179  0.00  0.00    +0.000 A 
ATOM     13  C   UNL     1      45.427   2.647   7.943  0.00  0.00    +0.000 A 
ATOM     14  C   UNL     1      45.994   3.878   7.671  0.00  0.00    +0.000 A 
ATOM     15  N   UNL     1      45.996   4.916   8.532  0.00  0.00    +0.000 NA
ENDBRANCH   8  10
ENDBRANCH   1   4
BRANCH   1  16
ATOM     16  C   UNL     1      48.943   7.125  13.225  0.00  0.00    +0.000 C 
BRANCH  16  20
ATOM     17  C   UNL     1      47.627   4.690  16.443  0.00  0.00    +0.000 A 
ATOM     18  C   UNL     1      47.148   4.392  15.175  0.00  0.00    +0.000 A 
ATOM     19  C   UNL     1      47.533   5.215  14.118  0.00  0.00    +0.000 A 
ATOM     20  C   UNL     1      48.389   6.296  14.354  0.00  0.00    +0.000 A 
ATOM     21  C   UNL     1      48.793   6.522  15.667  0.00  0.00    +0.000 A 
ATOM     22  N   UNL     1      48.435   5.752  16.720  0.00  0.00    +0.000 NA
BRANCH  17  24
ATOM     23  N   UNL     1      47.930   4.087  18.771  0.00  0.00    +0.000 N 
ATOM     24  C   UNL     1      47.277   3.803  17.601  0.00  0.00    +0.000 C 
ATOM     25  O   UNL     1      46.466   2.889  17.519  0.00  0.00    +0.000 OA
ATOM     26  H   UNL     1      47.740   3.539  19.596  0.00  0.00    +0.000 HD
ATOM     27  H   UNL     1      48.594   4.852  18.793  0.00  0.00    +0.000 HD
ENDBRANCH  17  24
ENDBRANCH  16  20
ENDBRANCH   1  16
TORSDOF 5
ENDMDL
MODEL 8
REMARK VINA RESULT:    -6.322      3.727      8.349
REMARK INTER + INTRA:          -8.911
REMARK INTER:                  -8.778
REMARK INTRA:                  -0.133
REMARK UNBOUND:                -0.741
REMARK  Name = 
REMARK  5 active torsions:
REMARK  status: ('A' for Active; 'I' for Inactive)
REMARK    1  A    between atoms: C_2  and  C_4
REMARK    2  A    between atoms: C_7  and  C_8
REMARK    3  A    between atoms: C_8  and  C_9
REMARK    4  A    between atoms: C_9  and  C_10
REMARK    5  A    between atoms: C_14  and  C_15
REMARK                            x       y       z     vdW  Elec       q    Type
REMARK                         _______ _______ _______ _____ _____    ______ ____
ROOT
ATOM      1  C   UNL     1      48.196   4.774  17.006  0.00  0.00    +0.000 C 
ATOM      2  C   UNL     1      47.058   4.904  18.017  0.00  0.00    +0.000 C 
ATOM      3  C   UNL     1      47.375   3.562  17.440  0.00  0.00    +0.000 C 
ENDROOT
BRANCH   1   4
ATOM      4  C   UNL     1      47.926   5.360  15.621  0.00  0.00    +0.000 A 
ATOM      5  C   UNL     1      48.675   6.419  15.099  0.00  0.00    +0.000 A 
ATOM      6  C   UNL     1      48.445   6.841  13.802  0.00  0.00    +0.000 A 
ATOM      7  N   UNL     1      47.500   6.314  12.998  0.00  0.00    +0.000 NA
ATOM      8  C   UNL     1      46.731   5.310  13.499  0.00  0.00    +0.000 A 
ATOM      9  C   UNL     1      46.935   4.818  14.790  0.00  0.00    +0.000 A 
BRANCH   8  10
ATOM     10  C   UNL     1      45.675   4.769  12.611  0.00  0.00    +0.000 A 
ATOM     11  C   UNL     1      45.259   5.444  11.464  0.00  0.00    +0.000 A 
ATOM     12  C   UNL     1      44.252   4.896  10.670  0.00  0.00    +0.000 A 
ATOM     13  C   UNL     1      43.681   3.687  11.038  0.00  0.00    +0.000 A 
ATOM     14  C   UNL     1      44.144   3.073  12.187  0.00  0.00    +0.000 A 
ATOM     15  N   UNL     1      45.118   3.577  12.972  0.00  0.00    +0.000 NA
ENDBRANCH   8  10
ENDBRANCH   1   4
BRANCH   1  16
ATOM     16  C   UNL     1      49.578   5.025  17.599  0.00  0.00    +0.000 C 
BRANCH  16  20
ATOM     17  C   UNL     1      52.225   1.709  17.684  0.00  0.00    +0.000 A 
ATOM     18  C   UNL     1      50.951   1.500  17.176  0.00  0.00    +0.000 A 
ATOM     19  C   UNL     1      50.056   2.568  17.188  0.00  0.00    +0.000 A 
ATOM     20  C   UNL     1      50.460   3.808  17.693  0.00  0.00    +0.000 A 
ATOM     21  C   UNL     1      51.753   3.905  18.202  0.00  0.00    +0.000 A 
ATOM     22  N   UNL     1      52.647   2.891  18.215  0.00  0.00    +0.000 NA
BRANCH  17  24
ATOM     23  N   UNL     1      52.924  -0.498  18.401  0.00  0.00    +0.000 N 
ATOM     24  C   UNL     1      53.235   0.601  17.646  0.00  0.00    +0.000 C 
ATOM     25  O   UNL     1      54.268   0.661  16.990  0.00  0.00    +0.000 OA
ATOM     26  H   UNL     1      53.550  -1.288  18.420  0.00  0.00    +0.000 HD
ATOM     27  H   UNL     1      52.059  -0.505  18.930  0.00  0.00    +0.000 HD
ENDBRANCH  17  24
ENDBRANCH  16  20
ENDBRANCH   1  16
TORSDOF 5
ENDMDL
