MODEL 1
REMARK VINA RESULT:    -9.061      0.000      0.000
REMARK INTER + INTRA:         -11.756
REMARK INTER:                 -11.180
REMARK INTRA:                  -0.576
REMARK UNBOUND:                -0.576
REMARK  Name = 
REMARK  4 active torsions:
REMARK  status: ('A' for Active; 'I' for Inactive)
REMARK    1  A    between atoms: C_2  and  C_4
REMARK    2  A    between atoms: C_7  and  O_8
REMARK    3  A    between atoms: O_8  and  C_9
REMARK    4  A    between atoms: C_9  and  C_10
REMARK                            x       y       z     vdW  Elec       q    Type
REMARK                         _______ _______ _______ _____ _____    ______ ____
ROOT
ATOM      1  C   UNL     1      44.514   5.871  10.708  0.00  0.00    +0.000 C 
ENDROOT
BRANCH   1   2
ATOM      2  C   UNL     1      44.263   5.966  12.221  0.00  0.00    +0.000 C 
ATOM      3  C   UNL     1      45.261   6.909  12.916  0.00  0.00    +0.000 C 
ATOM      4  C   UNL     1      46.667   6.314  12.991  0.00  0.00    +0.000 C 
ATOM      5  N   UNL     1      46.596   4.994  13.598  0.00  0.00    +0.000 N 
ATOM      6  C   UNL     1      47.292   4.711  14.748  0.00  0.00    +0.000 A 
ATOM      7  N   UNL     1      48.003   5.689  15.338  0.00  0.00    +0.000 NA
ATOM      8  C   UNL     1      48.675   5.395  16.466  0.00  0.00    +0.000 A 
ATOM      9  C   UNL     1      48.681   4.153  17.039  0.00  0.00    +0.000 A 
ATOM     10  C   UNL     1      47.936   3.212  16.380  0.00  0.00    +0.000 A 
ATOM     11  N   UNL     1      47.244   3.466  15.253  0.00  0.00    +0.000 NA
ATOM     12  C   UNL     1      45.728   4.006  12.984  0.00  0.00    +0.000 C 
ATOM     13  C   UNL     1      44.309   4.571  12.880  0.00  0.00    +0.000 C 
ENDBRANCH   1   2
BRANCH   1  14
ATOM     14  O   UNL     1      43.928   4.669  10.196  0.00  0.00    +0.000 OA
BRANCH  14  18
ATOM     15  C   UNL     1      46.452   2.455   7.715  0.00  0.00    +0.000 A 
ATOM     16  C   UNL     1      45.647   1.776   8.635  0.00  0.00    +0.000 A 
ATOM     17  C   UNL     1      44.794   2.486   9.480  0.00  0.00    +0.000 A 
ATOM     18  C   UNL     1      44.741   3.880   9.425  0.00  0.00    +0.000 A 
ATOM     19  C   UNL     1      45.568   4.560   8.524  0.00  0.00    +0.000 A 
ATOM     20  C   UNL     1      46.428   3.852   7.675  0.00  0.00    +0.000 A 
BRANCH  15  22
ATOM     21  N   UNL     1      48.438   2.388   6.314  0.00  0.00    +0.000 N 
ATOM     22  C   UNL     1      47.352   1.709   6.799  0.00  0.00    +0.000 C 
ATOM     23  O   UNL     1      47.159   0.536   6.513  0.00  0.00    +0.000 OA
ATOM     24  H   UNL     1      49.099   1.853   5.763  0.00  0.00    +0.000 HD
ATOM     25  H   UNL     1      48.764   3.255   6.723  0.00  0.00    +0.000 HD
ENDBRANCH  15  22
ENDBRANCH  14  18
ENDBRANCH   1  14
TORSDOF 4
ENDMDL
MODEL 2
REMARK VINA RESULT:    -8.465      1.662      2.301
REMARK INTER + INTRA:         -11.020
REMARK INTER:                 -10.503
REMARK INTRA:                  -0.517
REMARK UNBOUND:                -0.576
REMARK  Name = 
REMARK  4 active torsions:
REMARK  status: ('A' for Active; 'I' for Inactive)
REMARK    1  A    between atoms: C_2  and  C_4
REMARK    2  A    between atoms: C_7  and  O_8
REMARK    3  A    between atoms: O_8  and  C_9
REMARK    4  A    between atoms: C_9  and  C_10
REMARK                            x       y       z     vdW  Elec       q    Type
REMARK                         _______ _______ _______ _____ _____    ______ ____
ROOT
ATOM      1  C   UNL     1      43.518   4.592  11.014  0.00  0.00    +0.000 C 
ENDROOT
BRANCH   1   2
ATOM      2  C   UNL     1      43.844   5.881  11.785  0.00  0.00    +0.000 C 
ATOM      3  C   UNL     1      44.956   6.698  11.104  0.00  0.00    +0.000 C 
ATOM      4  C   UNL     1      46.328   6.039  11.244  0.00  0.00    +0.000 C 
ATOM      5  N   UNL     1      46.587   5.764  12.649  0.00  0.00    +0.000 N 
ATOM      6  C   UNL     1      47.680   6.304  13.281  0.00  0.00    +0.000 A 
ATOM      7  N   UNL     1      48.485   7.136  12.597  0.00  0.00    +0.000 NA
ATOM      8  C   UNL     1      49.549   7.659  13.233  0.00  0.00    +0.000 A 
ATOM      9  C   UNL     1      49.860   7.382  14.536  0.00  0.00    +0.000 A 
ATOM     10  C   UNL     1      48.995   6.527  15.165  0.00  0.00    +0.000 A 
ATOM     11  N   UNL     1      47.916   5.987  14.566  0.00  0.00    +0.000 NA
ATOM     12  C   UNL     1      45.628   4.949  13.372  0.00  0.00    +0.000 C 
ATOM     13  C   UNL     1      44.235   5.571  13.246  0.00  0.00    +0.000 C 
ENDBRANCH   1   2
BRANCH   1  14
ATOM     14  O   UNL     1      43.727   4.803   9.613  0.00  0.00    +0.000 OA
BRANCH  14  18
ATOM     15  C   UNL     1      46.245   1.969   7.865  0.00  0.00    +0.000 A 
ATOM     16  C   UNL     1      46.362   3.307   7.474  0.00  0.00    +0.000 A 
ATOM     17  C   UNL     1      45.534   4.278   8.037  0.00  0.00    +0.000 A 
ATOM     18  C   UNL     1      44.575   3.927   8.989  0.00  0.00    +0.000 A 
ATOM     19  C   UNL     1      44.440   2.584   9.357  0.00  0.00    +0.000 A 
ATOM     20  C   UNL     1      45.267   1.605   8.794  0.00  0.00    +0.000 A 
BRANCH  15  22
ATOM     21  N   UNL     1      46.894  -0.366   7.664  0.00  0.00    +0.000 N 
ATOM     22  C   UNL     1      47.132   0.929   7.285  0.00  0.00    +0.000 C 
ATOM     23  O   UNL     1      48.012   1.202   6.481  0.00  0.00    +0.000 OA
ATOM     24  H   UNL     1      47.438  -1.082   7.199  0.00  0.00    +0.000 HD
ATOM     25  H   UNL     1      46.032  -0.650   8.112  0.00  0.00    +0.000 HD
ENDBRANCH  15  22
ENDBRANCH  14  18
ENDBRANCH   1  14
TORSDOF 4
ENDMDL
MODEL 3
REMARK VINA RESULT:    -8.425      2.640      4.126
REMARK INTER + INTRA:         -10.970
REMARK INTER:                 -11.013
REMARK INTRA:                   0.043
REMARK UNBOUND:                -0.576
REMARK  Name = 
REMARK  4 active torsions:
REMARK  status: ('A' for Active; 'I' for Inactive)
REMARK    1  A    between atoms: C_2  and  C_4
REMARK    2  A    between atoms: C_7  and  O_8
REMARK    3  A    between atoms: O_8  and  C_9
REMARK    4  A    between atoms: C_9  and  C_10
REMARK                            x       y       z     vdW  Elec       q    Type
REMARK                         _______ _______ _______ _____ _____    ______ ____
ROOT
ATOM      1  C   UNL     1      43.774   3.066  11.810  0.00  0.00    +0.000 C 
ENDROOT
BRANCH   1   2
ATOM      2  C   UNL     1      43.566   4.227  12.795  0.00  0.00    +0.000 C 
ATOM      3  C   UNL     1      42.695   5.346  12.196  0.00  0.00    +0.000 C 
ATOM      4  C   UNL     1      43.431   6.139  11.117  0.00  0.00    +0.000 C 
ATOM      5  N   UNL     1      44.699   6.613  11.651  0.00  0.00    +0.000 N 
ATOM      6  C   UNL     1      44.986   7.956  11.692  0.00  0.00    +0.000 A 
ATOM      7  N   UNL     1      44.057   8.835  11.277  0.00  0.00    +0.000 NA
ATOM      8  C   UNL     1      44.354  10.146  11.329  0.00  0.00    +0.000 A 
ATOM      9  C   UNL     1      45.555  10.631  11.771  0.00  0.00    +0.000 A 
ATOM     10  C   UNL     1      46.448   9.675  12.174  0.00  0.00    +0.000 A 
ATOM     11  N   UNL     1      46.188   8.354  12.145  0.00  0.00    +0.000 NA
ATOM     12  C   UNL     1      45.623   5.631  12.187  0.00  0.00    +0.000 C 
ATOM     13  C   UNL     1      44.917   4.805  13.266  0.00  0.00    +0.000 C 
ENDBRANCH   1   2
BRANCH   1  14
ATOM     14  O   UNL     1      43.450   3.495  10.483  0.00  0.00    +0.000 OA
BRANCH  14  18
ATOM     15  C   UNL     1      46.384   2.614   7.647  0.00  0.00    +0.000 A 
ATOM     16  C   UNL     1      45.982   3.944   7.809  0.00  0.00    +0.000 A 
ATOM     17  C   UNL     1      45.002   4.272   8.747  0.00  0.00    +0.000 A 
ATOM     18  C   UNL     1      44.406   3.278   9.526  0.00  0.00    +0.000 A 
ATOM     19  C   UNL     1      44.789   1.945   9.342  0.00  0.00    +0.000 A 
ATOM     20  C   UNL     1      45.771   1.610   8.402  0.00  0.00    +0.000 A 
BRANCH  15  22
ATOM     21  N   UNL     1      47.438   2.946   5.481  0.00  0.00    +0.000 N 
ATOM     22  C   UNL     1      47.438   2.255   6.664  0.00  0.00    +0.000 C 
ATOM     23  O   UNL     1      48.288   1.409   6.905  0.00  0.00    +0.000 OA
ATOM     24  H   UNL     1      48.209   2.765   4.851  0.00  0.00    +0.000 HD
ATOM     25  H   UNL     1      46.925   3.809   5.357  0.00  0.00    +0.000 HD
ENDBRANCH  15  22
ENDBRANCH  14  18
ENDBRANCH   1  14
TORSDOF 4
ENDMDL
MODEL 4
REMARK VINA RESULT:    -8.156      1.690      2.320
REMARK INTER + INTRA:         -10.639
REMARK INTER:                 -10.313
REMARK INTRA:                  -0.326
REMARK UNBOUND:                -0.576
REMARK  Name = 
REMARK  4 active torsions:
REMARK  status: ('A' for Active; 'I' for Inactive)
REMARK    1  A    between atoms: C_2  and  C_4
REMARK    2  A    between atoms: C_7  and  O_8
REMARK    3  A    between atoms: O_8  and  C_9
REMARK    4  A    between atoms: C_9  and  C_10
REMARK                            x       y       z     vdW  Elec       q    Type
REMARK                         _______ _______ _______ _____ _____    ______ ____
ROOT
ATOM      1  C   UNL     1      43.851   3.751  11.448  0.00  0.00    +0.000 C 
ENDROOT
BRANCH   1   2
ATOM      2  C   UNL     1      43.938   5.037  12.285  0.00  0.00    +0.000 C 
ATOM      3  C   UNL     1      44.557   6.203  11.494  0.00  0.00    +0.000 C 
ATOM      4  C   UNL     1      46.058   6.019  11.269  0.00  0.00    +0.000 C 
ATOM      5  N   UNL     1      46.708   5.775  12.547  0.00  0.00    +0.000 N 
ATOM      6  C   UNL     1      47.700   6.609  13.002  0.00  0.00    +0.000 A 
ATOM      7  N   UNL     1      48.030   7.689  12.272  0.00  0.00    +0.000 NA
ATOM      8  C   UNL     1      49.000   8.497  12.735  0.00  0.00    +0.000 A 
ATOM      9  C   UNL     1      49.675   8.274  13.903  0.00  0.00    +0.000 A 
ATOM     10  C   UNL     1      49.284   7.155  14.588  0.00  0.00    +0.000 A 
ATOM     11  N   UNL     1      48.313   6.324  14.164  0.00  0.00    +0.000 NA
ATOM     12  C   UNL     1      46.240   4.659  13.348  0.00  0.00    +0.000 C 
ATOM     13  C   UNL     1      44.733   4.801  13.586  0.00  0.00    +0.000 C 
ENDBRANCH   1   2
BRANCH   1  14
ATOM     14  O   UNL     1      43.738   4.086  10.060  0.00  0.00    +0.000 OA
BRANCH  14  18
ATOM     15  C   UNL     1      46.602   2.629   7.396  0.00  0.00    +0.000 A 
ATOM     16  C   UNL     1      46.025   1.746   8.314  0.00  0.00    +0.000 A 
ATOM     17  C   UNL     1      45.066   2.201   9.220  0.00  0.00    +0.000 A 
ATOM     18  C   UNL     1      44.679   3.542   9.227  0.00  0.00    +0.000 A 
ATOM     19  C   UNL     1      45.278   4.430   8.327  0.00  0.00    +0.000 A 
ATOM     20  C   UNL     1      46.242   3.979   7.417  0.00  0.00    +0.000 A 
BRANCH  15  22
ATOM     21  N   UNL     1      47.870   2.970   5.350  0.00  0.00    +0.000 N 
ATOM     22  C   UNL     1      47.612   2.152   6.417  0.00  0.00    +0.000 C 
ATOM     23  O   UNL     1      48.213   1.097   6.567  0.00  0.00    +0.000 OA
ATOM     24  H   UNL     1      48.621   2.689   4.733  0.00  0.00    +0.000 HD
ATOM     25  H   UNL     1      47.590   3.943   5.331  0.00  0.00    +0.000 HD
ENDBRANCH  15  22
ENDBRANCH  14  18
ENDBRANCH   1  14
TORSDOF 4
ENDMDL
MODEL 5
REMARK VINA RESULT:    -7.677      1.130      2.256
REMARK INTER + INTRA:         -10.048
REMARK INTER:                  -9.970
REMARK INTRA:                  -0.078
REMARK UNBOUND:                -0.576
REMARK  Name = 
REMARK  4 active torsions:
REMARK  status: ('A' for Active; 'I' for Inactive)
REMARK    1  A    between atoms: C_2  and  C_4
REMARK    2  A    between atoms: C_7  and  O_8
REMARK    3  A    between atoms: O_8  and  C_9
REMARK    4  A    between atoms: C_9  and  C_10
REMARK                            x       y       z     vdW  Elec       q    Type
REMARK                         _______ _______ _______ _____ _____    ______ ____
ROOT
ATOM      1  C   UNL     1      44.251   5.098  11.400  0.00  0.00    +0.000 C 
ENDROOT
BRANCH   1   2
ATOM      2  C   UNL     1      45.769   4.865  11.436  0.00  0.00    +0.000 C 
ATOM      3  C   UNL     1      46.195   4.011  12.644  0.00  0.00    +0.000 C 
ATOM      4  C   UNL     1      46.088   4.777  13.963  0.00  0.00    +0.000 C 
ATOM      5  N   UNL     1      46.819   6.030  13.850  0.00  0.00    +0.000 N 
ATOM      6  C   UNL     1      47.856   6.317  14.703  0.00  0.00    +0.000 A 
ATOM      7  N   UNL     1      48.224   5.400  15.615  0.00  0.00    +0.000 NA
ATOM      8  C   UNL     1      49.245   5.697  16.439  0.00  0.00    +0.000 A 
ATOM      9  C   UNL     1      49.923   6.885  16.404  0.00  0.00    +0.000 A 
ATOM     10  C   UNL     1      49.489   7.766  15.450  0.00  0.00    +0.000 A 
ATOM     11  N   UNL     1      48.476   7.506  14.602  0.00  0.00    +0.000 NA
ATOM     12  C   UNL     1      46.454   6.938  12.778  0.00  0.00    +0.000 C 
ATOM     13  C   UNL     1      46.538   6.202  11.438  0.00  0.00    +0.000 C 
ENDBRANCH   1   2
BRANCH   1  14
ATOM     14  O   UNL     1      43.695   4.474  10.237  0.00  0.00    +0.000 OA
BRANCH  14  18
ATOM     15  C   UNL     1      46.388   2.462   7.762  0.00  0.00    +0.000 A 
ATOM     16  C   UNL     1      46.262   3.849   7.633  0.00  0.00    +0.000 A 
ATOM     17  C   UNL     1      45.369   4.552   8.444  0.00  0.00    +0.000 A 
ATOM     18  C   UNL     1      44.586   3.879   9.384  0.00  0.00    +0.000 A 
ATOM     19  C   UNL     1      44.692   2.488   9.491  0.00  0.00    +0.000 A 
ATOM     20  C   UNL     1      45.586   1.778   8.679  0.00  0.00    +0.000 A 
BRANCH  15  22
ATOM     21  N   UNL     1      48.434   2.396   6.450  0.00  0.00    +0.000 N 
ATOM     22  C   UNL     1      47.347   1.706   6.916  0.00  0.00    +0.000 C 
ATOM     23  O   UNL     1      47.198   0.518   6.671  0.00  0.00    +0.000 OA
ATOM     24  H   UNL     1      49.132   1.860   5.951  0.00  0.00    +0.000 HD
ATOM     25  H   UNL     1      48.718   3.288   6.837  0.00  0.00    +0.000 HD
ENDBRANCH  15  22
ENDBRANCH  14  18
ENDBRANCH   1  14
TORSDOF 4
ENDMDL
MODEL 6
REMARK VINA RESULT:    -6.971      3.067      6.940
REMARK INTER + INTRA:          -9.177
REMARK INTER:                  -8.873
REMARK INTRA:                  -0.304
REMARK UNBOUND:                -0.576
REMARK  Name = 
REMARK  4 active torsions:
REMARK  status: ('A' for Active; 'I' for Inactive)
REMARK    1  A    between atoms: C_2  and  C_4
REMARK    2  A    between atoms: C_7  and  O_8
REMARK    3  A    between atoms: O_8  and  C_9
REMARK    4  A    between atoms: C_9  and  C_10
REMARK                            x       y       z     vdW  Elec       q    Type
REMARK                         _______ _______ _______ _____ _____    ______ ____
ROOT
ATOM      1  C   UNL     1      43.500   5.008  12.850  0.00  0.00    +0.000 C 
ENDROOT
BRANCH   1   2
ATOM      2  C   UNL     1      42.971   4.363  11.560  0.00  0.00    +0.000 C 
ATOM      3  C   UNL     1      43.434   2.902  11.411  0.00  0.00    +0.000 C 
ATOM      4  C   UNL     1      44.923   2.796  11.082  0.00  0.00    +0.000 C 
ATOM      5  N   UNL     1      45.217   3.620   9.919  0.00  0.00    +0.000 N 
ATOM      6  C   UNL     1      45.755   3.066   8.783  0.00  0.00    +0.000 A 
ATOM      7  N   UNL     1      45.960   1.738   8.739  0.00  0.00    +0.000 NA
ATOM      8  C   UNL     1      46.483   1.213   7.616  0.00  0.00    +0.000 A 
ATOM      9  C   UNL     1      46.826   1.959   6.522  0.00  0.00    +0.000 A 
ATOM     10  C   UNL     1      46.588   3.301   6.644  0.00  0.00    +0.000 A 
ATOM     11  N   UNL     1      46.060   3.866   7.747  0.00  0.00    +0.000 NA
ATOM     12  C   UNL     1      44.875   5.029   9.978  0.00  0.00    +0.000 C 
ATOM     13  C   UNL     1      43.389   5.178  10.318  0.00  0.00    +0.000 C 
ENDBRANCH   1   2
BRANCH   1  14
ATOM     14  O   UNL     1      43.982   6.327  12.567  0.00  0.00    +0.000 OA
BRANCH  14  18
ATOM     15  C   UNL     1      47.955   6.895  13.716  0.00  0.00    +0.000 A 
ATOM     16  C   UNL     1      47.217   7.998  13.274  0.00  0.00    +0.000 A 
ATOM     17  C   UNL     1      45.887   7.842  12.881  0.00  0.00    +0.000 A 
ATOM     18  C   UNL     1      45.281   6.585  12.915  0.00  0.00    +0.000 A 
ATOM     19  C   UNL     1      46.029   5.478  13.329  0.00  0.00    +0.000 A 
ATOM     20  C   UNL     1      47.364   5.628  13.724  0.00  0.00    +0.000 A 
BRANCH  15  22
ATOM     21  N   UNL     1      50.223   7.644  13.264  0.00  0.00    +0.000 N 
ATOM     22  C   UNL     1      49.366   7.052  14.153  0.00  0.00    +0.000 C 
ATOM     23  O   UNL     1      49.743   6.704  15.263  0.00  0.00    +0.000 OA
ATOM     24  H   UNL     1      51.161   7.832  13.596  0.00  0.00    +0.000 HD
ATOM     25  H   UNL     1      49.898   8.166  12.461  0.00  0.00    +0.000 HD
ENDBRANCH  15  22
ENDBRANCH  14  18
ENDBRANCH   1  14
TORSDOF 4
ENDMDL
MODEL 7
REMARK VINA RESULT:    -6.337      1.622      2.795
REMARK INTER + INTRA:          -8.395
REMARK INTER:                  -8.070
REMARK INTRA:                  -0.325
REMARK UNBOUND:                -0.576
REMARK  Name = 
REMARK  4 active torsions:
REMARK  status: ('A' for Active; 'I' for Inactive)
REMARK    1  A    between atoms: C_2  and  C_4
REMARK    2  A    between atoms: C_7  and  O_8
REMARK    3  A    between atoms: O_8  and  C_9
REMARK    4  A    between atoms: C_9  and  C_10
REMARK                            x       y       z     vdW  Elec       q    Type
REMARK                         _______ _______ _______ _____ _____    ______ ____
ROOT
ATOM      1  C   UNL     1      44.919   5.172  13.037  0.00  0.00    +0.000 C 
ENDROOT
BRANCH   1   2
ATOM      2  C   UNL     1      46.368   4.691  12.869  0.00  0.00    +0.000 C 
ATOM      3  C   UNL     1      46.782   3.702  13.973  0.00  0.00    +0.000 C 
ATOM      4  C   UNL     1      46.964   4.387  15.328  0.00  0.00    +0.000 C 
ATOM      5  N   UNL     1      47.880   5.508  15.178  0.00  0.00    +0.000 N 
ATOM      6  C   UNL     1      49.045   5.565  15.904  0.00  0.00    +0.000 A 
ATOM      7  N   UNL     1      49.356   4.543  16.720  0.00  0.00    +0.000 NA
ATOM      8  C   UNL     1      50.503   4.614  17.419  0.00  0.00    +0.000 A 
ATOM      9  C   UNL     1      51.364   5.675  17.351  0.00  0.00    +0.000 A 
ATOM     10  C   UNL     1      50.978   6.675  16.500  0.00  0.00    +0.000 A 
ATOM     11  N   UNL     1      49.842   6.640  15.778  0.00  0.00    +0.000 NA
ATOM     12  C   UNL     1      47.551   6.531  14.204  0.00  0.00    +0.000 C 
ATOM     13  C   UNL     1      47.349   5.881  12.832  0.00  0.00    +0.000 C 
ENDBRANCH   1   2
BRANCH   1  14
ATOM     14  O   UNL     1      44.078   4.510  12.086  0.00  0.00    +0.000 OA
BRANCH  14  18
ATOM     15  C   UNL     1      45.801   3.429   8.440  0.00  0.00    +0.000 A 
ATOM     16  C   UNL     1      45.721   4.786   8.772  0.00  0.00    +0.000 A 
ATOM     17  C   UNL     1      45.149   5.181   9.982  0.00  0.00    +0.000 A 
ATOM     18  C   UNL     1      44.642   4.230  10.869  0.00  0.00    +0.000 A 
ATOM     19  C   UNL     1      44.697   2.875  10.523  0.00  0.00    +0.000 A 
ATOM     20  C   UNL     1      45.269   2.474   9.310  0.00  0.00    +0.000 A 
BRANCH  15  22
ATOM     21  N   UNL     1      46.964   1.739   7.136  0.00  0.00    +0.000 N 
ATOM     22  C   UNL     1      46.423   2.996   7.163  0.00  0.00    +0.000 C 
ATOM     23  O   UNL     1      46.425   3.709   6.169  0.00  0.00    +0.000 OA
ATOM     24  H   UNL     1      47.306   1.410   6.242  0.00  0.00    +0.000 HD
ATOM     25  H   UNL     1      46.755   1.042   7.841  0.00  0.00    +0.000 HD
ENDBRANCH  15  22
ENDBRANCH  14  18
ENDBRANCH   1  14
TORSDOF 4
ENDMDL
