MODEL 1
REMARK VINA RESULT:    -9.237      0.000      0.000
REMARK INTER + INTRA:         -12.329
REMARK INTER:                 -11.937
REMARK INTRA:                  -0.392
REMARK UNBOUND:                -0.392
REMARK  Name = 
REMARK  5 active torsions:
REMARK  status: ('A' for Active; 'I' for Inactive)
REMARK    1  A    between atoms: C_2  and  C_4
REMARK    2  A    between atoms: C_7  and  C_8
REMARK    3  A    between atoms: C_12  and  C_13
REMARK    4  A    between atoms: C_13  and  N_14
REMARK    5  A    between atoms: C_20  and  C_21
REMARK                            x       y       z     vdW  Elec       q    Type
REMARK                         _______ _______ _______ _____ _____    ______ ____
ROOT
ATOM      1  C   UNL     1      44.307   5.451  10.952  0.00  0.00    +0.000 C 
ATOM      2  C   UNL     1      42.886   5.950  11.220  0.00  0.00    +0.000 C 
ATOM      3  C   UNL     1      43.307   4.628  11.749  0.00  0.00    +0.000 C 
ATOM      4  F   UNL     1      42.682   3.535  11.172  0.00  0.00    +0.000 F 
ENDROOT
BRANCH   1   5
ATOM      5  N   UNL     1      44.664   5.148   9.544  0.00  0.00    +0.000 N 
ATOM      6  C   UNL     1      45.206   3.935   9.098  0.00  0.00    +0.000 A 
ATOM      7  C   UNL     1      44.916   2.705   9.682  0.00  0.00    +0.000 A 
ATOM      8  C   UNL     1      45.360   1.522   9.089  0.00  0.00    +0.000 A 
ATOM      9  C   UNL     1      46.119   1.590   7.935  0.00  0.00    +0.000 A 
ATOM     10  F   UNL     1      46.528   0.451   7.362  0.00  0.00    +0.000 F 
ATOM     11  C   UNL     1      46.413   2.842   7.426  0.00  0.00    +0.000 A 
ATOM     12  N   UNL     1      45.965   4.018   7.981  0.00  0.00    +0.000 NA
ATOM     13  H   UNL     1      45.089   5.889   8.994  0.00  0.00    +0.000 HD
BRANCH  11  14
ATOM     14  C   UNL     1      47.259   2.973   6.200  0.00  0.00    +0.000 C 
ATOM     15  N   UNL     1      48.600   2.748   6.386  0.00  0.00    +0.000 N 
ATOM     16  O   UNL     1      46.826   3.252   5.090  0.00  0.00    +0.000 OA
ATOM     17  H   UNL     1      48.954   2.519   7.305  0.00  0.00    +0.000 HD
ATOM     18  H   UNL     1      49.219   2.818   5.593  0.00  0.00    +0.000 HD
ENDBRANCH  11  14
ENDBRANCH   1   5
BRANCH   1  23
ATOM     19  C   UNL     1      46.890   6.103  13.536  0.00  0.00    +0.000 A 
ATOM     20  N   UNL     1      47.319   7.357  13.321  0.00  0.00    +0.000 NA
ATOM     21  C   UNL     1      46.777   8.000  12.273  0.00  0.00    +0.000 A 
ATOM     22  C   UNL     1      45.826   7.438  11.451  0.00  0.00    +0.000 A 
ATOM     23  C   UNL     1      45.416   6.147  11.750  0.00  0.00    +0.000 A 
ATOM     24  N   UNL     1      45.956   5.481  12.791  0.00  0.00    +0.000 NA
BRANCH  19  28
ATOM     25  C   UNL     1      48.485   3.881  16.763  0.00  0.00    +0.000 A 
ATOM     26  C   UNL     1      48.804   5.228  16.681  0.00  0.00    +0.000 A 
ATOM     27  C   UNL     1      48.286   5.955  15.612  0.00  0.00    +0.000 A 
ATOM     28  C   UNL     1      47.461   5.344  14.653  0.00  0.00    +0.000 A 
ATOM     29  C   UNL     1      47.217   3.982  14.834  0.00  0.00    +0.000 A 
ATOM     30  N   UNL     1      47.706   3.229  15.856  0.00  0.00    +0.000 NA
BRANCH  25  32
ATOM     31  N   UNL     1      48.284   3.155  19.063  0.00  0.00    +0.000 N 
ATOM     32  C   UNL     1      49.010   3.073  17.908  0.00  0.00    +0.000 C 
ATOM     33  O   UNL     1      50.018   2.383  17.824  0.00  0.00    +0.000 OA
ATOM     34  H   UNL     1      48.583   2.639  19.877  0.00  0.00    +0.000 HD
ATOM     35  H   UNL     1      47.452   3.735  19.091  0.00  0.00    +0.000 HD
ENDBRANCH  25  32
ENDBRANCH  19  28
ENDBRANCH   1  23
TORSDOF 5
ENDMDL
MODEL 2
REMARK VINA RESULT:    -8.913      3.090      4.772
REMARK INTER + INTRA:         -11.910
REMARK INTER:                 -10.851
REMARK INTRA:                  -1.059
REMARK UNBOUND:                -0.392
REMARK  Name = 
REMARK  5 active torsions:
REMARK  status: ('A' for Active; 'I' for Inactive)
REMARK    1  A    between atoms: C_2  and  C_4
REMARK    2  A    between atoms: C_7  and  C_8
REMARK    3  A    between atoms: C_12  and  C_13
REMARK    4  A    between atoms: C_13  and  N_14
REMARK    5  A    between atoms: C_20  and  C_21
REMARK                            x       y       z     vdW  Elec       q    Type
REMARK                         _______ _______ _______ _____ _____    ______ ____
ROOT
ATOM      1  C   UNL     1      44.553   5.611  11.034  0.00  0.00    +0.000 C 
ATOM      2  C   UNL     1      43.419   6.606  11.288  0.00  0.00    +0.000 C 
ATOM      3  C   UNL     1      43.258   5.191  11.712  0.00  0.00    +0.000 C 
ATOM      4  F   UNL     1      42.303   4.471  11.016  0.00  0.00    +0.000 F 
ENDROOT
BRANCH   1   5
ATOM      5  N   UNL     1      44.865   5.288   9.620  0.00  0.00    +0.000 N 
ATOM      6  C   UNL     1      45.318   4.042   9.163  0.00  0.00    +0.000 A 
ATOM      7  C   UNL     1      44.955   2.833   9.751  0.00  0.00    +0.000 A 
ATOM      8  C   UNL     1      45.308   1.624   9.149  0.00  0.00    +0.000 A 
ATOM      9  C   UNL     1      46.050   1.643   7.983  0.00  0.00    +0.000 A 
ATOM     10  F   UNL     1      46.372   0.480   7.401  0.00  0.00    +0.000 F 
ATOM     11  C   UNL     1      46.420   2.874   7.470  0.00  0.00    +0.000 A 
ATOM     12  N   UNL     1      46.062   4.076   8.034  0.00  0.00    +0.000 NA
ATOM     13  H   UNL     1      45.331   6.000   9.064  0.00  0.00    +0.000 HD
BRANCH  11  14
ATOM     14  C   UNL     1      47.253   2.951   6.231  0.00  0.00    +0.000 C 
ATOM     15  N   UNL     1      48.586   2.677   6.402  0.00  0.00    +0.000 N 
ATOM     16  O   UNL     1      46.815   3.226   5.121  0.00  0.00    +0.000 OA
ATOM     17  H   UNL     1      48.945   2.452   7.321  0.00  0.00    +0.000 HD
ATOM     18  H   UNL     1      49.197   2.710   5.600  0.00  0.00    +0.000 HD
ENDBRANCH  11  14
ENDBRANCH   1   5
BRANCH   1  23
ATOM     19  C   UNL     1      47.820   6.791  12.343  0.00  0.00    +0.000 A 
ATOM     20  N   UNL     1      48.087   6.024  13.413  0.00  0.00    +0.000 NA
ATOM     21  C   UNL     1      47.152   5.118  13.744  0.00  0.00    +0.000 A 
ATOM     22  C   UNL     1      45.979   4.951  13.042  0.00  0.00    +0.000 A 
ATOM     23  C   UNL     1      45.784   5.763  11.935  0.00  0.00    +0.000 A 
ATOM     24  N   UNL     1      46.705   6.687  11.592  0.00  0.00    +0.000 NA
BRANCH  19  28
ATOM     25  C   UNL     1      50.670   9.711  11.230  0.00  0.00    +0.000 A 
ATOM     26  C   UNL     1      49.359  10.121  11.413  0.00  0.00    +0.000 A 
ATOM     27  C   UNL     1      48.420   9.155  11.770  0.00  0.00    +0.000 A 
ATOM     28  C   UNL     1      48.793   7.812  11.945  0.00  0.00    +0.000 A 
ATOM     29  C   UNL     1      50.139   7.517  11.725  0.00  0.00    +0.000 A 
ATOM     30  N   UNL     1      51.089   8.423  11.368  0.00  0.00    +0.000 NA
BRANCH  25  32
ATOM     31  N   UNL     1      51.611  11.233   9.600  0.00  0.00    +0.000 N 
ATOM     32  C   UNL     1      51.709  10.724  10.865  0.00  0.00    +0.000 C 
ATOM     33  O   UNL     1      52.588  11.079  11.639  0.00  0.00    +0.000 OA
ATOM     34  H   UNL     1      52.282  11.918   9.285  0.00  0.00    +0.000 HD
ATOM     35  H   UNL     1      50.866  10.917   8.990  0.00  0.00    +0.000 HD
ENDBRANCH  25  32
ENDBRANCH  19  28
ENDBRANCH   1  23
TORSDOF 5
ENDMDL
MODEL 3
REMARK VINA RESULT:    -8.912      1.224      1.395
REMARK INTER + INTRA:         -11.909
REMARK INTER:                 -11.182
REMARK INTRA:                  -0.727
REMARK UNBOUND:                -0.392
REMARK  Name = 
REMARK  5 active torsions:
REMARK  status: ('A' for Active; 'I' for Inactive)
REMARK    1  A    between atoms: C_2  and  C_4
REMARK    2  A    between atoms: C_7  and  C_8
REMARK    3  A    between atoms: C_12  and  C_13
REMARK    4  A    between atoms: C_13  and  N_14
REMARK    5  A    between atoms: C_20  and  C_21
REMARK                            x       y       z     vdW  Elec       q    Type
REMARK                         _______ _______ _______ _____ _____    ______ ____
ROOT
ATOM      1  C   UNL     1      45.095   5.856  10.971  0.00  0.00    +0.000 C 
ATOM      2  C   UNL     1      43.876   6.717  11.306  0.00  0.00    +0.000 C 
ATOM      3  C   UNL     1      43.957   5.331  11.833  0.00  0.00    +0.000 C 
ATOM      4  F   UNL     1      43.032   4.445  11.309  0.00  0.00    +0.000 F 
ENDROOT
BRANCH   1   5
ATOM      5  N   UNL     1      45.279   5.466   9.552  0.00  0.00    +0.000 N 
ATOM      6  C   UNL     1      45.613   4.179   9.110  0.00  0.00    +0.000 A 
ATOM      7  C   UNL     1      45.216   3.017   9.767  0.00  0.00    +0.000 A 
ATOM      8  C   UNL     1      45.444   1.768   9.187  0.00  0.00    +0.000 A 
ATOM      9  C   UNL     1      46.096   1.698   7.970  0.00  0.00    +0.000 A 
ATOM     10  F   UNL     1      46.296   0.498   7.410  0.00  0.00    +0.000 F 
ATOM     11  C   UNL     1      46.506   2.884   7.387  0.00  0.00    +0.000 A 
ATOM     12  N   UNL     1      46.271   4.126   7.929  0.00  0.00    +0.000 NA
ATOM     13  H   UNL     1      45.747   6.126   8.937  0.00  0.00    +0.000 HD
BRANCH  11  14
ATOM     14  C   UNL     1      47.247   2.863   6.088  0.00  0.00    +0.000 C 
ATOM     15  N   UNL     1      48.581   2.556   6.178  0.00  0.00    +0.000 N 
ATOM     16  O   UNL     1      46.737   3.091   4.999  0.00  0.00    +0.000 OA
ATOM     17  H   UNL     1      49.000   2.370   7.080  0.00  0.00    +0.000 HD
ATOM     18  H   UNL     1      49.131   2.522   5.333  0.00  0.00    +0.000 HD
ENDBRANCH  11  14
ENDBRANCH   1   5
BRANCH   1  23
ATOM     19  C   UNL     1      47.668   6.154  13.629  0.00  0.00    +0.000 A 
ATOM     20  N   UNL     1      48.624   6.954  13.130  0.00  0.00    +0.000 NA
ATOM     21  C   UNL     1      48.445   7.378  11.867  0.00  0.00    +0.000 A 
ATOM     22  C   UNL     1      47.350   7.040  11.105  0.00  0.00    +0.000 A 
ATOM     23  C   UNL     1      46.392   6.230  11.698  0.00  0.00    +0.000 A 
ATOM     24  N   UNL     1      46.559   5.784  12.959  0.00  0.00    +0.000 NA
BRANCH  19  28
ATOM     25  C   UNL     1      48.161   4.693  17.568  0.00  0.00    +0.000 A 
ATOM     26  C   UNL     1      47.341   3.978  16.708  0.00  0.00    +0.000 A 
ATOM     27  C   UNL     1      47.173   4.467  15.416  0.00  0.00    +0.000 A 
ATOM     28  C   UNL     1      47.819   5.642  14.995  0.00  0.00    +0.000 A 
ATOM     29  C   UNL     1      48.611   6.280  15.950  0.00  0.00    +0.000 A 
ATOM     30  N   UNL     1      48.799   5.846  17.225  0.00  0.00    +0.000 NA
BRANCH  25  32
ATOM     31  N   UNL     1      48.283   2.833  19.113  0.00  0.00    +0.000 N 
ATOM     32  C   UNL     1      48.380   4.188  18.960  0.00  0.00    +0.000 C 
ATOM     33  O   UNL     1      48.629   4.929  19.901  0.00  0.00    +0.000 OA
ATOM     34  H   UNL     1      48.415   2.424  20.026  0.00  0.00    +0.000 HD
ATOM     35  H   UNL     1      48.079   2.253  18.307  0.00  0.00    +0.000 HD
ENDBRANCH  25  32
ENDBRANCH  19  28
ENDBRANCH   1  23
TORSDOF 5
ENDMDL
MODEL 4
REMARK VINA RESULT:    -8.059      4.425      9.015
REMARK INTER + INTRA:         -10.807
REMARK INTER:                  -9.911
REMARK INTRA:                  -0.896
REMARK UNBOUND:                -0.392
REMARK  Name = 
REMARK  5 active torsions:
REMARK  status: ('A' for Active; 'I' for Inactive)
REMARK    1  A    between atoms: C_2  and  C_4
REMARK    2  A    between atoms: C_7  and  C_8
REMARK    3  A    between atoms: C_12  and  C_13
REMARK    4  A    between atoms: C_13  and  N_14
REMARK    5  A    between atoms: C_20  and  C_21
REMARK                            x       y       z     vdW  Elec       q    Type
REMARK                         _______ _______ _______ _____ _____    ______ ____
ROOT
ATOM      1  C   UNL     1      49.038   6.013  17.726  0.00  0.00    +0.000 C 
ATOM      2  C   UNL     1      47.862   6.548  18.545  0.00  0.00    +0.000 C 
ATOM      3  C   UNL     1      49.189   7.204  18.660  0.00  0.00    +0.000 C 
ATOM      4  F   UNL     1      49.816   7.059  19.885  0.00  0.00    +0.000 F 
ENDROOT
BRANCH   1   5
ATOM      5  N   UNL     1      49.536   4.656  18.061  0.00  0.00    +0.000 N 
ATOM      6  C   UNL     1      50.873   4.248  17.971  0.00  0.00    +0.000 A 
ATOM      7  C   UNL     1      51.952   5.103  18.184  0.00  0.00    +0.000 A 
ATOM      8  C   UNL     1      53.251   4.596  18.240  0.00  0.00    +0.000 A 
ATOM      9  C   UNL     1      53.456   3.243  18.047  0.00  0.00    +0.000 A 
ATOM     10  F   UNL     1      54.703   2.760  18.119  0.00  0.00    +0.000 F 
ATOM     11  C   UNL     1      52.351   2.450  17.795  0.00  0.00    +0.000 A 
ATOM     12  N   UNL     1      51.060   2.925  17.761  0.00  0.00    +0.000 NA
ATOM     13  H   UNL     1      48.960   3.863  17.794  0.00  0.00    +0.000 HD
BRANCH  11  14
ATOM     14  C   UNL     1      52.520   0.985  17.545  0.00  0.00    +0.000 C 
ATOM     15  N   UNL     1      51.603   0.175  18.164  0.00  0.00    +0.000 N 
ATOM     16  O   UNL     1      53.395   0.503  16.839  0.00  0.00    +0.000 OA
ATOM     17  H   UNL     1      50.882   0.577  18.749  0.00  0.00    +0.000 HD
ATOM     18  H   UNL     1      51.665  -0.823  18.028  0.00  0.00    +0.000 HD
ENDBRANCH  11  14
ENDBRANCH   1   5
BRANCH   1  23
ATOM     19  C   UNL     1      48.065   5.885  14.147  0.00  0.00    +0.000 A 
ATOM     20  N   UNL     1      48.918   6.698  13.503  0.00  0.00    +0.000 NA
ATOM     21  C   UNL     1      49.816   7.343  14.267  0.00  0.00    +0.000 A 
ATOM     22  C   UNL     1      49.892   7.193  15.633  0.00  0.00    +0.000 A 
ATOM     23  C   UNL     1      48.994   6.318  16.224  0.00  0.00    +0.000 A 
ATOM     24  N   UNL     1      48.077   5.670  15.477  0.00  0.00    +0.000 NA
BRANCH  19  28
ATOM     25  C   UNL     1      45.165   3.773  11.906  0.00  0.00    +0.000 A 
ATOM     26  C   UNL     1      45.409   5.096  11.569  0.00  0.00    +0.000 A 
ATOM     27  C   UNL     1      46.357   5.791  12.315  0.00  0.00    +0.000 A 
ATOM     28  C   UNL     1      47.048   5.170  13.369  0.00  0.00    +0.000 A 
ATOM     29  C   UNL     1      46.712   3.840  13.621  0.00  0.00    +0.000 A 
ATOM     30  N   UNL     1      45.789   3.122  12.926  0.00  0.00    +0.000 NA
BRANCH  25  32
ATOM     31  N   UNL     1      44.663   2.346  10.016  0.00  0.00    +0.000 N 
ATOM     32  C   UNL     1      44.166   2.989  11.114  0.00  0.00    +0.000 C 
ATOM     33  O   UNL     1      42.983   2.923  11.422  0.00  0.00    +0.000 OA
ATOM     34  H   UNL     1      44.045   1.803   9.433  0.00  0.00    +0.000 HD
ATOM     35  H   UNL     1      45.651   2.423   9.797  0.00  0.00    +0.000 HD
ENDBRANCH  25  32
ENDBRANCH  19  28
ENDBRANCH   1  23
TORSDOF 5
ENDMDL
MODEL 5
REMARK VINA RESULT:    -7.810      4.186      8.380
REMARK INTER + INTRA:         -10.485
REMARK INTER:                  -9.498
REMARK INTRA:                  -0.987
REMARK UNBOUND:                -0.392
REMARK  Name = 
REMARK  5 active torsions:
REMARK  status: ('A' for Active; 'I' for Inactive)
REMARK    1  A    between atoms: C_2  and  C_4
REMARK    2  A    between atoms: C_7  and  C_8
REMARK    3  A    between atoms: C_12  and  C_13
REMARK    4  A    between atoms: C_13  and  N_14
REMARK    5  A    between atoms: C_20  and  C_21
REMARK                            x       y       z     vdW  Elec       q    Type
REMARK                         _______ _______ _______ _____ _____    ______ ____
ROOT
ATOM      1  C   UNL     1      49.003   8.859  15.870  0.00  0.00    +0.000 C 
ATOM      2  C   UNL     1      48.660  10.304  16.236  0.00  0.00    +0.000 C 
ATOM      3  C   UNL     1      50.081   9.871  16.225  0.00  0.00    +0.000 C 
ATOM      4  F   UNL     1      50.695   9.833  17.465  0.00  0.00    +0.000 F 
ENDROOT
BRANCH   1   5
ATOM      5  N   UNL     1      48.551   7.798  16.804  0.00  0.00    +0.000 N 
ATOM      6  C   UNL     1      49.185   6.562  16.981  0.00  0.00    +0.000 A 
ATOM      7  C   UNL     1      50.560   6.380  16.847  0.00  0.00    +0.000 A 
ATOM      8  C   UNL     1      51.145   5.162  17.196  0.00  0.00    +0.000 A 
ATOM      9  C   UNL     1      50.341   4.130  17.642  0.00  0.00    +0.000 A 
ATOM     10  F   UNL     1      50.911   2.969  17.991  0.00  0.00    +0.000 F 
ATOM     11  C   UNL     1      48.978   4.355  17.711  0.00  0.00    +0.000 A 
ATOM     12  N   UNL     1      48.383   5.555  17.396  0.00  0.00    +0.000 NA
ATOM     13  H   UNL     1      47.551   7.639  16.890  0.00  0.00    +0.000 HD
BRANCH  11  14
ATOM     14  C   UNL     1      48.059   3.261  18.153  0.00  0.00    +0.000 C 
ATOM     15  N   UNL     1      48.168   2.900  19.472  0.00  0.00    +0.000 N 
ATOM     16  O   UNL     1      47.245   2.707  17.425  0.00  0.00    +0.000 OA
ATOM     17  H   UNL     1      48.843   3.359  20.070  0.00  0.00    +0.000 HD
ATOM     18  H   UNL     1      47.570   2.170  19.828  0.00  0.00    +0.000 HD
ENDBRANCH  11  14
ENDBRANCH   1   5
BRANCH   1  23
ATOM     19  C   UNL     1      47.851   7.196  12.758  0.00  0.00    +0.000 A 
ATOM     20  N   UNL     1      48.616   7.689  11.771  0.00  0.00    +0.000 NA
ATOM     21  C   UNL     1      49.512   8.626  12.125  0.00  0.00    +0.000 A 
ATOM     22  C   UNL     1      49.670   9.071  13.418  0.00  0.00    +0.000 A 
ATOM     23  C   UNL     1      48.860   8.498  14.386  0.00  0.00    +0.000 A 
ATOM     24  N   UNL     1      47.946   7.565  14.050  0.00  0.00    +0.000 NA
BRANCH  19  28
ATOM     25  C   UNL     1      44.967   4.241  11.841  0.00  0.00    +0.000 A 
ATOM     26  C   UNL     1      45.260   5.186  10.869  0.00  0.00    +0.000 A 
ATOM     27  C   UNL     1      46.202   6.163  11.178  0.00  0.00    +0.000 A 
ATOM     28  C   UNL     1      46.840   6.186  12.430  0.00  0.00    +0.000 A 
ATOM     29  C   UNL     1      46.458   5.190  13.329  0.00  0.00    +0.000 A 
ATOM     30  N   UNL     1      45.538   4.220  13.077  0.00  0.00    +0.000 NA
BRANCH  25  32
ATOM     31  N   UNL     1      43.704   2.308  12.569  0.00  0.00    +0.000 N 
ATOM     32  C   UNL     1      43.973   3.164  11.538  0.00  0.00    +0.000 C 
ATOM     33  O   UNL     1      43.432   3.051  10.445  0.00  0.00    +0.000 OA
ATOM     34  H   UNL     1      43.046   1.555  12.433  0.00  0.00    +0.000 HD
ATOM     35  H   UNL     1      44.169   2.438  13.460  0.00  0.00    +0.000 HD
ENDBRANCH  25  32
ENDBRANCH  19  28
ENDBRANCH   1  23
TORSDOF 5
ENDMDL
MODEL 6
REMARK VINA RESULT:    -7.505      3.585      5.412
REMARK INTER + INTRA:         -10.090
REMARK INTER:                  -9.881
REMARK INTRA:                  -0.209
REMARK UNBOUND:                -0.392
REMARK  Name = 
REMARK  5 active torsions:
REMARK  status: ('A' for Active; 'I' for Inactive)
REMARK    1  A    between atoms: C_2  and  C_4
REMARK    2  A    between atoms: C_7  and  C_8
REMARK    3  A    between atoms: C_12  and  C_13
REMARK    4  A    between atoms: C_13  and  N_14
REMARK    5  A    between atoms: C_20  and  C_21
REMARK                            x       y       z     vdW  Elec       q    Type
REMARK                         _______ _______ _______ _____ _____    ______ ____
ROOT
ATOM      1  C   UNL     1      48.328   7.879  13.747  0.00  0.00    +0.000 C 
ATOM      2  C   UNL     1      49.355   7.416  12.713  0.00  0.00    +0.000 C 
ATOM      3  C   UNL     1      49.184   8.868  12.973  0.00  0.00    +0.000 C 
ATOM      4  F   UNL     1      48.641   9.594  11.926  0.00  0.00    +0.000 F 
ENDROOT
BRANCH   1   5
ATOM      5  N   UNL     1      46.898   7.632  13.439  0.00  0.00    +0.000 N 
ATOM      6  C   UNL     1      46.358   6.391  13.074  0.00  0.00    +0.000 A 
ATOM      7  C   UNL     1      46.855   5.174  13.534  0.00  0.00    +0.000 A 
ATOM      8  C   UNL     1      46.173   3.987  13.263  0.00  0.00    +0.000 A 
ATOM      9  C   UNL     1      45.018   4.032  12.504  0.00  0.00    +0.000 A 
ATOM     10  F   UNL     1      44.359   2.892  12.261  0.00  0.00    +0.000 F 
ATOM     11  C   UNL     1      44.598   5.264  12.036  0.00  0.00    +0.000 A 
ATOM     12  N   UNL     1      45.241   6.448  12.313  0.00  0.00    +0.000 NA
ATOM     13  H   UNL     1      46.398   8.344  12.914  0.00  0.00    +0.000 HD
BRANCH  11  14
ATOM     14  C   UNL     1      43.375   5.364  11.182  0.00  0.00    +0.000 C 
ATOM     15  N   UNL     1      42.301   5.988  11.765  0.00  0.00    +0.000 N 
ATOM     16  O   UNL     1      43.297   4.942  10.036  0.00  0.00    +0.000 OA
ATOM     17  H   UNL     1      42.367   6.334  12.713  0.00  0.00    +0.000 HD
ATOM     18  H   UNL     1      41.449   6.088  11.234  0.00  0.00    +0.000 HD
ENDBRANCH  11  14
ENDBRANCH   1   5
BRANCH   1  23
ATOM     19  C   UNL     1      49.611   6.233  16.817  0.00  0.00    +0.000 A 
ATOM     20  N   UNL     1      49.316   7.063  17.832  0.00  0.00    +0.000 NA
ATOM     21  C   UNL     1      48.714   8.218  17.500  0.00  0.00    +0.000 A 
ATOM     22  C   UNL     1      48.394   8.558  16.205  0.00  0.00    +0.000 A 
ATOM     23  C   UNL     1      48.708   7.640  15.214  0.00  0.00    +0.000 A 
ATOM     24  N   UNL     1      49.323   6.481  15.525  0.00  0.00    +0.000 NA
BRANCH  19  28
ATOM     25  C   UNL     1      51.610   2.600  17.646  0.00  0.00    +0.000 A 
ATOM     26  C   UNL     1      50.248   2.548  17.395  0.00  0.00    +0.000 A 
ATOM     27  C   UNL     1      49.591   3.747  17.133  0.00  0.00    +0.000 A 
ATOM     28  C   UNL     1      50.287   4.968  17.115  0.00  0.00    +0.000 A 
ATOM     29  C   UNL     1      51.653   4.895  17.391  0.00  0.00    +0.000 A 
ATOM     30  N   UNL     1      52.337   3.751  17.661  0.00  0.00    +0.000 NA
BRANCH  25  32
ATOM     31  N   UNL     1      51.572   0.228  18.131  0.00  0.00    +0.000 N 
ATOM     32  C   UNL     1      52.353   1.328  17.915  0.00  0.00    +0.000 C 
ATOM     33  O   UNL     1      53.576   1.269  17.939  0.00  0.00    +0.000 OA
ATOM     34  H   UNL     1      52.007  -0.662  18.322  0.00  0.00    +0.000 HD
ATOM     35  H   UNL     1      50.563   0.318  18.098  0.00  0.00    +0.000 HD
ENDBRANCH  25  32
ENDBRANCH  19  28
ENDBRANCH   1  23
TORSDOF 5
ENDMDL
MODEL 7
REMARK VINA RESULT:    -7.403      3.434      7.862
REMARK INTER + INTRA:          -9.959
REMARK INTER:                  -9.448
REMARK INTRA:                  -0.511
REMARK UNBOUND:                -0.392
REMARK  Name = 
REMARK  5 active torsions:
REMARK  status: ('A' for Active; 'I' for Inactive)
REMARK    1  A    between atoms: C_2  and  C_4
REMARK    2  A    between atoms: C_7  and  C_8
REMARK    3  A    between atoms: C_12  and  C_13
REMARK    4  A    between atoms: C_13  and  N_14
REMARK    5  A    between atoms: C_20  and  C_21
REMARK                            x       y       z     vdW  Elec       q    Type
REMARK                         _______ _______ _______ _____ _____    ______ ____
ROOT
ATOM      1  C   UNL     1      44.905   8.145  12.105  0.00  0.00    +0.000 C 
ATOM      2  C   UNL     1      43.851   9.249  12.015  0.00  0.00    +0.000 C 
ATOM      3  C   UNL     1      44.861   9.114  10.934  0.00  0.00    +0.000 C 
ATOM      4  F   UNL     1      45.774  10.150  10.847  0.00  0.00    +0.000 F 
ENDROOT
BRANCH   1   5
ATOM      5  N   UNL     1      45.901   8.246  13.201  0.00  0.00    +0.000 N 
ATOM      6  C   UNL     1      47.281   8.058  13.050  0.00  0.00    +0.000 A 
ATOM      7  C   UNL     1      47.975   8.375  11.885  0.00  0.00    +0.000 A 
ATOM      8  C   UNL     1      49.369   8.316  11.858  0.00  0.00    +0.000 A 
ATOM      9  C   UNL     1      50.049   7.906  12.990  0.00  0.00    +0.000 A 
ATOM     10  F   UNL     1      51.387   7.867  12.963  0.00  0.00    +0.000 F 
ATOM     11  C   UNL     1      49.303   7.560  14.103  0.00  0.00    +0.000 A 
ATOM     12  N   UNL     1      47.931   7.635  14.158  0.00  0.00    +0.000 NA
ATOM     13  H   UNL     1      45.643   7.872  14.110  0.00  0.00    +0.000 HD
BRANCH  11  14
ATOM     14  C   UNL     1      49.986   7.076  15.342  0.00  0.00    +0.000 C 
ATOM     15  N   UNL     1      50.914   7.935  15.874  0.00  0.00    +0.000 N 
ATOM     16  O   UNL     1      49.758   6.000  15.880  0.00  0.00    +0.000 OA
ATOM     17  H   UNL     1      51.101   8.822  15.426  0.00  0.00    +0.000 HD
ATOM     18  H   UNL     1      51.403   7.663  16.714  0.00  0.00    +0.000 HD
ENDBRANCH  11  14
ENDBRANCH   1   5
BRANCH   1  23
ATOM     19  C   UNL     1      44.543   4.774  10.594  0.00  0.00    +0.000 A 
ATOM     20  N   UNL     1      43.486   4.209  11.201  0.00  0.00    +0.000 NA
ATOM     21  C   UNL     1      42.894   4.936  12.164  0.00  0.00    +0.000 A 
ATOM     22  C   UNL     1      43.316   6.195  12.527  0.00  0.00    +0.000 A 
ATOM     23  C   UNL     1      44.400   6.722  11.840  0.00  0.00    +0.000 A 
ATOM     24  N   UNL     1      45.014   6.004  10.878  0.00  0.00    +0.000 NA
BRANCH  19  28
ATOM     25  C   UNL     1      46.577   2.559   7.620  0.00  0.00    +0.000 A 
ATOM     26  C   UNL     1      46.634   3.942   7.552  0.00  0.00    +0.000 A 
ATOM     27  C   UNL     1      45.955   4.669   8.527  0.00  0.00    +0.000 A 
ATOM     28  C   UNL     1      45.242   4.020   9.550  0.00  0.00    +0.000 A 
ATOM     29  C   UNL     1      45.250   2.626   9.510  0.00  0.00    +0.000 A 
ATOM     30  N   UNL     1      45.890   1.873   8.576  0.00  0.00    +0.000 NA
BRANCH  25  32
ATOM     31  N   UNL     1      48.225   2.431   5.851  0.00  0.00    +0.000 N 
ATOM     32  C   UNL     1      47.310   1.745   6.600  0.00  0.00    +0.000 C 
ATOM     33  O   UNL     1      47.111   0.548   6.442  0.00  0.00    +0.000 OA
ATOM     34  H   UNL     1      48.752   1.946   5.141  0.00  0.00    +0.000 HD
ATOM     35  H   UNL     1      48.363   3.422   6.016  0.00  0.00    +0.000 HD
ENDBRANCH  25  32
ENDBRANCH  19  28
ENDBRANCH   1  23
TORSDOF 5
ENDMDL
MODEL 8
REMARK VINA RESULT:    -7.269      2.765      7.904
REMARK INTER + INTRA:          -9.786
REMARK INTER:                 -10.092
REMARK INTRA:                   0.306
REMARK UNBOUND:                -0.392
REMARK  Name = 
REMARK  5 active torsions:
REMARK  status: ('A' for Active; 'I' for Inactive)
REMARK    1  A    between atoms: C_2  and  C_4
REMARK    2  A    between atoms: C_7  and  C_8
REMARK    3  A    between atoms: C_12  and  C_13
REMARK    4  A    between atoms: C_13  and  N_14
REMARK    5  A    between atoms: C_20  and  C_21
REMARK                            x       y       z     vdW  Elec       q    Type
REMARK                         _______ _______ _______ _____ _____    ______ ____
ROOT
ATOM      1  C   UNL     1      46.069   7.911  12.341  0.00  0.00    +0.000 C 
ATOM      2  C   UNL     1      45.361   9.112  12.971  0.00  0.00    +0.000 C 
ATOM      3  C   UNL     1      46.028   9.267  11.653  0.00  0.00    +0.000 C 
ATOM      4  F   UNL     1      47.146  10.084  11.650  0.00  0.00    +0.000 F 
ENDROOT
BRANCH   1   5
ATOM      5  N   UNL     1      47.273   7.394  13.037  0.00  0.00    +0.000 N 
ATOM      6  C   UNL     1      47.267   6.374  13.999  0.00  0.00    +0.000 A 
ATOM      7  C   UNL     1      46.358   5.320  13.992  0.00  0.00    +0.000 A 
ATOM      8  C   UNL     1      46.509   4.254  14.881  0.00  0.00    +0.000 A 
ATOM      9  C   UNL     1      47.552   4.277  15.789  0.00  0.00    +0.000 A 
ATOM     10  F   UNL     1      47.702   3.244  16.628  0.00  0.00    +0.000 F 
ATOM     11  C   UNL     1      48.397   5.372  15.778  0.00  0.00    +0.000 A 
ATOM     12  N   UNL     1      48.279   6.420  14.895  0.00  0.00    +0.000 NA
ATOM     13  H   UNL     1      47.984   8.064  13.313  0.00  0.00    +0.000 HD
BRANCH  11  14
ATOM     14  C   UNL     1      49.519   5.464  16.762  0.00  0.00    +0.000 C 
ATOM     15  N   UNL     1      49.459   6.531  17.622  0.00  0.00    +0.000 N 
ATOM     16  O   UNL     1      50.440   4.661  16.834  0.00  0.00    +0.000 OA
ATOM     17  H   UNL     1      48.698   7.193  17.559  0.00  0.00    +0.000 HD
ATOM     18  H   UNL     1      50.188   6.641  18.312  0.00  0.00    +0.000 HD
ENDBRANCH  11  14
ENDBRANCH   1   5
BRANCH   1  23
ATOM     19  C   UNL     1      44.854   5.055  10.305  0.00  0.00    +0.000 A 
ATOM     20  N   UNL     1      43.550   4.921  10.598  0.00  0.00    +0.000 NA
ATOM     21  C   UNL     1      43.059   5.765  11.521  0.00  0.00    +0.000 A 
ATOM     22  C   UNL     1      43.817   6.730  12.144  0.00  0.00    +0.000 A 
ATOM     23  C   UNL     1      45.150   6.823  11.772  0.00  0.00    +0.000 A 
ATOM     24  N   UNL     1      45.666   5.979  10.856  0.00  0.00    +0.000 NA
BRANCH  19  28
ATOM     25  C   UNL     1      46.594   2.402   7.508  0.00  0.00    +0.000 A 
ATOM     26  C   UNL     1      46.799   3.761   7.328  0.00  0.00    +0.000 A 
ATOM     27  C   UNL     1      46.217   4.633   8.245  0.00  0.00    +0.000 A 
ATOM     28  C   UNL     1      45.453   4.150   9.321  0.00  0.00    +0.000 A 
ATOM     29  C   UNL     1      45.309   2.763   9.393  0.00  0.00    +0.000 A 
ATOM     30  N   UNL     1      45.851   1.874   8.519  0.00  0.00    +0.000 NA
BRANCH  25  32
ATOM     31  N   UNL     1      48.117   1.976   5.674  0.00  0.00    +0.000 N 
ATOM     32  C   UNL     1      47.220   1.435   6.552  0.00  0.00    +0.000 C 
ATOM     33  O   UNL     1      46.954   0.240   6.551  0.00  0.00    +0.000 OA
ATOM     34  H   UNL     1      48.573   1.382   4.999  0.00  0.00    +0.000 HD
ATOM     35  H   UNL     1      48.313   2.971   5.710  0.00  0.00    +0.000 HD
ENDBRANCH  25  32
ENDBRANCH  19  28
ENDBRANCH   1  23
TORSDOF 5
ENDMDL
MODEL 9
REMARK VINA RESULT:    -7.098      3.662      6.473
REMARK INTER + INTRA:          -9.564
REMARK INTER:                  -8.851
REMARK INTRA:                  -0.713
REMARK UNBOUND:                -0.392
REMARK  Name = 
REMARK  5 active torsions:
REMARK  status: ('A' for Active; 'I' for Inactive)
REMARK    1  A    between atoms: C_2  and  C_4
REMARK    2  A    between atoms: C_7  and  C_8
REMARK    3  A    between atoms: C_12  and  C_13
REMARK    4  A    between atoms: C_13  and  N_14
REMARK    5  A    between atoms: C_20  and  C_21
REMARK                            x       y       z     vdW  Elec       q    Type
REMARK                         _______ _______ _______ _____ _____    ______ ____
ROOT
ATOM      1  C   UNL     1      49.771   7.630  15.021  0.00  0.00    +0.000 C 
ATOM      2  C   UNL     1      51.148   8.291  14.939  0.00  0.00    +0.000 C 
ATOM      3  C   UNL     1      49.962   9.115  15.285  0.00  0.00    +0.000 C 
ATOM      4  F   UNL     1      49.594  10.049  14.332  0.00  0.00    +0.000 F 
ENDROOT
BRANCH   1   5
ATOM      5  N   UNL     1      49.197   7.101  13.759  0.00  0.00    +0.000 N 
ATOM      6  C   UNL     1      47.868   7.271  13.349  0.00  0.00    +0.000 A 
ATOM      7  C   UNL     1      47.108   8.395  13.661  0.00  0.00    +0.000 A 
ATOM      8  C   UNL     1      45.849   8.576  13.086  0.00  0.00    +0.000 A 
ATOM      9  C   UNL     1      45.354   7.609  12.231  0.00  0.00    +0.000 A 
ATOM     10  F   UNL     1      44.152   7.796  11.670  0.00  0.00    +0.000 F 
ATOM     11  C   UNL     1      46.135   6.492  11.994  0.00  0.00    +0.000 A 
ATOM     12  N   UNL     1      47.388   6.307  12.530  0.00  0.00    +0.000 NA
ATOM     13  H   UNL     1      49.489   6.175  13.459  0.00  0.00    +0.000 HD
BRANCH  11  14
ATOM     14  C   UNL     1      45.632   5.400  11.105  0.00  0.00    +0.000 C 
ATOM     15  N   UNL     1      45.693   5.664   9.760  0.00  0.00    +0.000 N 
ATOM     16  O   UNL     1      45.197   4.329  11.507  0.00  0.00    +0.000 OA
ATOM     17  H   UNL     1      46.052   6.551   9.431  0.00  0.00    +0.000 HD
ATOM     18  H   UNL     1      45.371   4.961   9.111  0.00  0.00    +0.000 HD
ENDBRANCH  11  14
ENDBRANCH   1   5
BRANCH   1  23
ATOM     19  C   UNL     1      50.039   4.795  17.402  0.00  0.00    +0.000 A 
ATOM     20  N   UNL     1      49.098   5.007  18.336  0.00  0.00    +0.000 NA
ATOM     21  C   UNL     1      48.377   6.134  18.209  0.00  0.00    +0.000 A 
ATOM     22  C   UNL     1      48.560   7.037  17.186  0.00  0.00    +0.000 A 
ATOM     23  C   UNL     1      49.535   6.737  16.246  0.00  0.00    +0.000 A 
ATOM     24  N   UNL     1      50.277   5.618  16.362  0.00  0.00    +0.000 NA
BRANCH  19  28
ATOM     25  C   UNL     1      52.395   1.296  17.707  0.00  0.00    +0.000 A 
ATOM     26  C   UNL     1      52.998   2.511  17.994  0.00  0.00    +0.000 A 
ATOM     27  C   UNL     1      52.222   3.662  17.883  0.00  0.00    +0.000 A 
ATOM     28  C   UNL     1      50.872   3.593  17.500  0.00  0.00    +0.000 A 
ATOM     29  C   UNL     1      50.379   2.316  17.229  0.00  0.00    +0.000 A 
ATOM     30  N   UNL     1      51.098   1.165  17.315  0.00  0.00    +0.000 NA
BRANCH  25  32
ATOM     31  N   UNL     1      53.862  -0.350  16.706  0.00  0.00    +0.000 N 
ATOM     32  C   UNL     1      53.193   0.035  17.834  0.00  0.00    +0.000 C 
ATOM     33  O   UNL     1      53.249  -0.610  18.872  0.00  0.00    +0.000 OA
ATOM     34  H   UNL     1      54.416  -1.193  16.718  0.00  0.00    +0.000 HD
ATOM     35  H   UNL     1      53.793   0.215  15.866  0.00  0.00    +0.000 HD
ENDBRANCH  25  32
ENDBRANCH  19  28
ENDBRANCH   1  23
TORSDOF 5
ENDMDL
