MODEL 1
REMARK VINA RESULT:    -9.487      0.000      0.000
REMARK INTER + INTRA:         -14.397
REMARK INTER:                 -13.369
REMARK INTRA:                  -1.028
REMARK UNBOUND:                -1.028
REMARK  Name = 
REMARK  8 active torsions:
REMARK  status: ('A' for Active; 'I' for Inactive)
REMARK    1  A    between atoms: N_1  and  C_2
REMARK    2  A    between atoms: C_4  and  C_5
REMARK    3  A    between atoms: C_5  and  N_6
REMARK    4  A    between atoms: C_7  and  C_9
REMARK    5  A    between atoms: C_21  and  C_22
REMARK    6  A    between atoms: C_22  and  N_23
REMARK    7  A    between atoms: C_27  and  C_28
REMARK    8  A    between atoms: C_28  and  O_29
REMARK                            x       y       z     vdW  Elec       q    Type
REMARK                         _______ _______ _______ _____ _____    ______ ____
ROOT
ATOM      1  C   UNL     1      45.594   4.329  12.606  0.00  0.00    +0.000 A 
ATOM      2  C   UNL     1      46.706   4.840  13.297  0.00  0.00    +0.000 A 
ATOM      3  C   UNL     1      47.207   6.126  13.049  0.00  0.00    +0.000 A 
ATOM      4  C   UNL     1      46.571   6.919  12.092  0.00  0.00    +0.000 A 
ATOM      5  C   UNL     1      45.478   6.422  11.381  0.00  0.00    +0.000 A 
ATOM      6  C   UNL     1      44.993   5.118  11.604  0.00  0.00    +0.000 A 
ENDROOT
BRANCH   1   7
ATOM      7  N   UNL     1      45.293   2.965  12.771  0.00  0.00    +0.000 N 
ATOM      8  H   UNL     1      46.061   2.442  13.183  0.00  0.00    +0.000 HD
ATOM      9  H   UNL     1      44.425   2.794  13.269  0.00  0.00    +0.000 HD
ENDBRANCH   1   7
BRANCH   3  10
ATOM     10  C   UNL     1      48.408   6.628  13.802  0.00  0.00    +0.000 C 
BRANCH  10  11
ATOM     11  N   UNL     1      48.140   6.751  15.212  0.00  0.00    +0.000 N 
ATOM     12  C   UNL     1      49.099   6.547  16.169  0.00  0.00    +0.000 C 
ATOM     13  O   UNL     1      50.253   6.233  15.886  0.00  0.00    +0.000 OA
ATOM     14  H   UNL     1      47.166   6.819  15.486  0.00  0.00    +0.000 HD
BRANCH  12  15
ATOM     15  C   UNL     1      48.699   6.804  17.560  0.00  0.00    +0.000 A 
ATOM     16  C   UNL     1      48.366   8.095  17.946  0.00  0.00    +0.000 A 
ATOM     17  S   UNL     1      47.888   8.224  19.577  0.00  0.00    +0.000 S 
ATOM     18  C   UNL     1      48.155   6.561  19.840  0.00  0.00    +0.000 A 
ATOM     19  N   UNL     1      47.956   6.011  21.067  0.00  0.00    +0.000 NA
ATOM     20  C   UNL     1      48.229   4.751  21.139  0.00  0.00    +0.000 A 
ATOM     21  N   UNL     1      48.667   3.989  20.082  0.00  0.00    +0.000 N 
ATOM     22  C   UNL     1      48.815   4.488  18.811  0.00  0.00    +0.000 A 
ATOM     23  O   UNL     1      49.091   3.752  17.867  0.00  0.00    +0.000 OA
ATOM     24  C   UNL     1      48.572   5.911  18.694  0.00  0.00    +0.000 A 
ATOM     25  H   UNL     1      48.834   2.997  20.197  0.00  0.00    +0.000 HD
ENDBRANCH  12  15
ENDBRANCH  10  11
ENDBRANCH   3  10
BRANCH   6  26
ATOM     26  C   UNL     1      43.813   4.642  10.778  0.00  0.00    +0.000 C 
BRANCH  26  27
ATOM     27  N   UNL     1      44.141   4.710   9.365  0.00  0.00    +0.000 N 
ATOM     28  C   UNL     1      45.004   3.806   8.780  0.00  0.00    +0.000 A 
ATOM     29  C   UNL     1      45.092   2.471   9.152  0.00  0.00    +0.000 A 
ATOM     30  C   UNL     1      45.941   1.609   8.452  0.00  0.00    +0.000 A 
ATOM     31  C   UNL     1      46.691   2.091   7.381  0.00  0.00    +0.000 A 
ATOM     32  C   UNL     1      46.518   3.429   7.060  0.00  0.00    +0.000 A 
ATOM     33  N   UNL     1      45.712   4.286   7.739  0.00  0.00    +0.000 NA
ATOM     34  H   UNL     1      44.377   5.637   9.019  0.00  0.00    +0.000 HD
BRANCH  31  35
ATOM     35  C   UNL     1      47.577   1.212   6.546  0.00  0.00    +0.000 C 
BRANCH  35  36
ATOM     36  O   UNL     1      48.633   1.949   5.941  0.00  0.00    +0.000 OA
ATOM     37  H   UNL     1      48.388   2.084   5.010  0.00  0.00    +0.000 HD
ENDBRANCH  35  36
ENDBRANCH  31  35
ENDBRANCH  26  27
ENDBRANCH   6  26
TORSDOF 8
ENDMDL
MODEL 2
REMARK VINA RESULT:    -9.450      1.706      2.144
REMARK INTER + INTRA:         -14.345
REMARK INTER:                 -13.192
REMARK INTRA:                  -1.153
REMARK UNBOUND:                -1.028
REMARK  Name = 
REMARK  8 active torsions:
REMARK  status: ('A' for Active; 'I' for Inactive)
REMARK    1  A    between atoms: N_1  and  C_2
REMARK    2  A    between atoms: C_4  and  C_5
REMARK    3  A    between atoms: C_5  and  N_6
REMARK    4  A    between atoms: C_7  and  C_9
REMARK    5  A    between atoms: C_21  and  C_22
REMARK    6  A    between atoms: C_22  and  N_23
REMARK    7  A    between atoms: C_27  and  C_28
REMARK    8  A    between atoms: C_28  and  O_29
REMARK                            x       y       z     vdW  Elec       q    Type
REMARK                         _______ _______ _______ _____ _____    ______ ____
ROOT
ATOM      1  C   UNL     1      44.380   7.112  11.444  0.00  0.00    +0.000 A 
ATOM      2  C   UNL     1      45.270   7.891  12.204  0.00  0.00    +0.000 A 
ATOM      3  C   UNL     1      46.392   7.332  12.833  0.00  0.00    +0.000 A 
ATOM      4  C   UNL     1      46.630   5.964  12.688  0.00  0.00    +0.000 A 
ATOM      5  C   UNL     1      45.746   5.172  11.954  0.00  0.00    +0.000 A 
ATOM      6  C   UNL     1      44.600   5.723  11.348  0.00  0.00    +0.000 A 
ENDROOT
BRANCH   1   7
ATOM      7  N   UNL     1      43.179   7.714  11.026  0.00  0.00    +0.000 N 
ATOM      8  H   UNL     1      42.404   7.517  11.653  0.00  0.00    +0.000 HD
ATOM      9  H   UNL     1      43.261   8.710  10.846  0.00  0.00    +0.000 HD
ENDBRANCH   1   7
BRANCH   3  10
ATOM     10  C   UNL     1      47.311   8.199  13.648  0.00  0.00    +0.000 C 
BRANCH  10  11
ATOM     11  N   UNL     1      47.772   7.522  14.833  0.00  0.00    +0.000 N 
ATOM     12  C   UNL     1      49.035   7.003  14.946  0.00  0.00    +0.000 C 
ATOM     13  O   UNL     1      49.856   7.069  14.035  0.00  0.00    +0.000 OA
ATOM     14  H   UNL     1      47.068   7.281  15.522  0.00  0.00    +0.000 HD
BRANCH  12  15
ATOM     15  C   UNL     1      49.390   6.426  16.251  0.00  0.00    +0.000 A 
ATOM     16  C   UNL     1      50.400   7.012  17.002  0.00  0.00    +0.000 A 
ATOM     17  S   UNL     1      50.668   6.252  18.505  0.00  0.00    +0.000 S 
ATOM     18  C   UNL     1      49.472   5.082  18.184  0.00  0.00    +0.000 A 
ATOM     19  N   UNL     1      49.211   4.092  19.079  0.00  0.00    +0.000 NA
ATOM     20  C   UNL     1      48.308   3.252  18.700  0.00  0.00    +0.000 A 
ATOM     21  N   UNL     1      47.629   3.327  17.506  0.00  0.00    +0.000 N 
ATOM     22  C   UNL     1      47.812   4.346  16.605  0.00  0.00    +0.000 A 
ATOM     23  O   UNL     1      47.103   4.447  15.607  0.00  0.00    +0.000 OA
ATOM     24  C   UNL     1      48.855   5.285  16.965  0.00  0.00    +0.000 A 
ATOM     25  H   UNL     1      46.909   2.651  17.280  0.00  0.00    +0.000 HD
ENDBRANCH  12  15
ENDBRANCH  10  11
ENDBRANCH   3  10
BRANCH   6  26
ATOM     26  C   UNL     1      43.677   4.794  10.583  0.00  0.00    +0.000 C 
BRANCH  26  27
ATOM     27  N   UNL     1      44.048   4.777   9.179  0.00  0.00    +0.000 N 
ATOM     28  C   UNL     1      44.937   3.847   8.679  0.00  0.00    +0.000 A 
ATOM     29  C   UNL     1      45.027   2.540   9.137  0.00  0.00    +0.000 A 
ATOM     30  C   UNL     1      45.905   1.645   8.520  0.00  0.00    +0.000 A 
ATOM     31  C   UNL     1      46.683   2.067   7.444  0.00  0.00    +0.000 A 
ATOM     32  C   UNL     1      46.508   3.380   7.033  0.00  0.00    +0.000 A 
ATOM     33  N   UNL     1      45.673   4.268   7.632  0.00  0.00    +0.000 NA
ATOM     34  H   UNL     1      44.286   5.682   8.782  0.00  0.00    +0.000 HD
BRANCH  31  35
ATOM     35  C   UNL     1      47.603   1.147   6.693  0.00  0.00    +0.000 C 
BRANCH  35  36
ATOM     36  O   UNL     1      48.410   1.855   5.760  0.00  0.00    +0.000 OA
ATOM     37  H   UNL     1      47.831   2.494   5.311  0.00  0.00    +0.000 HD
ENDBRANCH  35  36
ENDBRANCH  31  35
ENDBRANCH  26  27
ENDBRANCH   6  26
TORSDOF 8
ENDMDL
MODEL 3
REMARK VINA RESULT:    -9.296      1.273      1.961
REMARK INTER + INTRA:         -14.129
REMARK INTER:                 -12.995
REMARK INTRA:                  -1.134
REMARK UNBOUND:                -1.028
REMARK  Name = 
REMARK  8 active torsions:
REMARK  status: ('A' for Active; 'I' for Inactive)
REMARK    1  A    between atoms: N_1  and  C_2
REMARK    2  A    between atoms: C_4  and  C_5
REMARK    3  A    between atoms: C_5  and  N_6
REMARK    4  A    between atoms: C_7  and  C_9
REMARK    5  A    between atoms: C_21  and  C_22
REMARK    6  A    between atoms: C_22  and  N_23
REMARK    7  A    between atoms: C_27  and  C_28
REMARK    8  A    between atoms: C_28  and  O_29
REMARK                            x       y       z     vdW  Elec       q    Type
REMARK                         _______ _______ _______ _____ _____    ______ ____
ROOT
ATOM      1  C   UNL     1      45.524   4.288  12.587  0.00  0.00    +0.000 A 
ATOM      2  C   UNL     1      46.598   4.835  13.310  0.00  0.00    +0.000 A 
ATOM      3  C   UNL     1      47.010   6.164  13.134  0.00  0.00    +0.000 A 
ATOM      4  C   UNL     1      46.322   6.962  12.218  0.00  0.00    +0.000 A 
ATOM      5  C   UNL     1      45.266   6.431  11.477  0.00  0.00    +0.000 A 
ATOM      6  C   UNL     1      44.871   5.087  11.627  0.00  0.00    +0.000 A 
ENDROOT
BRANCH   1   7
ATOM      7  N   UNL     1      45.316   2.899  12.677  0.00  0.00    +0.000 N 
ATOM      8  H   UNL     1      45.453   2.425  11.788  0.00  0.00    +0.000 HD
ATOM      9  H   UNL     1      45.848   2.452  13.416  0.00  0.00    +0.000 HD
ENDBRANCH   1   7
BRANCH   3  10
ATOM     10  C   UNL     1      48.173   6.705  13.919  0.00  0.00    +0.000 C 
BRANCH  10  11
ATOM     11  N   UNL     1      48.006   6.494  15.333  0.00  0.00    +0.000 N 
ATOM     12  C   UNL     1      49.064   6.323  16.187  0.00  0.00    +0.000 C 
ATOM     13  O   UNL     1      50.229   6.325  15.798  0.00  0.00    +0.000 OA
ATOM     14  H   UNL     1      47.066   6.296  15.657  0.00  0.00    +0.000 HD
BRANCH  12  15
ATOM     15  C   UNL     1      48.739   6.215  17.617  0.00  0.00    +0.000 A 
ATOM     16  C   UNL     1      48.921   5.002  18.267  0.00  0.00    +0.000 A 
ATOM     17  S   UNL     1      48.537   5.048  19.928  0.00  0.00    +0.000 S 
ATOM     18  C   UNL     1      48.069   6.683  19.827  0.00  0.00    +0.000 A 
ATOM     19  N   UNL     1      47.599   7.340  20.921  0.00  0.00    +0.000 NA
ATOM     20  C   UNL     1      47.246   8.562  20.701  0.00  0.00    +0.000 A 
ATOM     21  N   UNL     1      47.340   9.190  19.481  0.00  0.00    +0.000 N 
ATOM     22  C   UNL     1      47.871   8.587  18.368  0.00  0.00    +0.000 A 
ATOM     23  O   UNL     1      48.052   9.217  17.329  0.00  0.00    +0.000 OA
ATOM     24  C   UNL     1      48.232   7.197  18.555  0.00  0.00    +0.000 A 
ATOM     25  H   UNL     1      47.074  10.163  19.381  0.00  0.00    +0.000 HD
ENDBRANCH  12  15
ENDBRANCH  10  11
ENDBRANCH   3  10
BRANCH   6  26
ATOM     26  C   UNL     1      43.727   4.577  10.771  0.00  0.00    +0.000 C 
BRANCH  26  27
ATOM     27  N   UNL     1      44.084   4.668   9.366  0.00  0.00    +0.000 N 
ATOM     28  C   UNL     1      44.960   3.774   8.785  0.00  0.00    +0.000 A 
ATOM     29  C   UNL     1      45.043   2.434   9.137  0.00  0.00    +0.000 A 
ATOM     30  C   UNL     1      45.907   1.584   8.442  0.00  0.00    +0.000 A 
ATOM     31  C   UNL     1      46.678   2.084   7.394  0.00  0.00    +0.000 A 
ATOM     32  C   UNL     1      46.510   3.427   7.091  0.00  0.00    +0.000 A 
ATOM     33  N   UNL     1      45.689   4.271   7.766  0.00  0.00    +0.000 NA
ATOM     34  H   UNL     1      44.326   5.601   9.040  0.00  0.00    +0.000 HD
BRANCH  31  35
ATOM     35  C   UNL     1      47.582   1.219   6.563  0.00  0.00    +0.000 C 
BRANCH  35  36
ATOM     36  O   UNL     1      48.569   1.987   5.884  0.00  0.00    +0.000 OA
ATOM     37  H   UNL     1      49.435   1.622   6.135  0.00  0.00    +0.000 HD
ENDBRANCH  35  36
ENDBRANCH  31  35
ENDBRANCH  26  27
ENDBRANCH   6  26
TORSDOF 8
ENDMDL
MODEL 4
REMARK VINA RESULT:    -9.219      1.098      1.240
REMARK INTER + INTRA:         -14.020
REMARK INTER:                 -12.733
REMARK INTRA:                  -1.287
REMARK UNBOUND:                -1.028
REMARK  Name = 
REMARK  8 active torsions:
REMARK  status: ('A' for Active; 'I' for Inactive)
REMARK    1  A    between atoms: N_1  and  C_2
REMARK    2  A    between atoms: C_4  and  C_5
REMARK    3  A    between atoms: C_5  and  N_6
REMARK    4  A    between atoms: C_7  and  C_9
REMARK    5  A    between atoms: C_21  and  C_22
REMARK    6  A    between atoms: C_22  and  N_23
REMARK    7  A    between atoms: C_27  and  C_28
REMARK    8  A    between atoms: C_28  and  O_29
REMARK                            x       y       z     vdW  Elec       q    Type
REMARK                         _______ _______ _______ _____ _____    ______ ____
ROOT
ATOM      1  C   UNL     1      45.445   4.506  12.517  0.00  0.00    +0.000 A 
ATOM      2  C   UNL     1      46.434   5.282  13.144  0.00  0.00    +0.000 A 
ATOM      3  C   UNL     1      46.600   6.645  12.856  0.00  0.00    +0.000 A 
ATOM      4  C   UNL     1      45.749   7.241  11.925  0.00  0.00    +0.000 A 
ATOM      5  C   UNL     1      44.774   6.482  11.277  0.00  0.00    +0.000 A 
ATOM      6  C   UNL     1      44.625   5.105  11.539  0.00  0.00    +0.000 A 
ENDROOT
BRANCH   1   7
ATOM      7  N   UNL     1      45.486   3.113  12.713  0.00  0.00    +0.000 N 
ATOM      8  H   UNL     1      46.077   2.641  12.034  0.00  0.00    +0.000 HD
ATOM      9  H   UNL     1      45.725   2.839  13.660  0.00  0.00    +0.000 HD
ENDBRANCH   1   7
BRANCH   3  10
ATOM     10  C   UNL     1      47.681   7.436  13.541  0.00  0.00    +0.000 C 
BRANCH  10  11
ATOM     11  N   UNL     1      47.902   6.981  14.889  0.00  0.00    +0.000 N 
ATOM     12  C   UNL     1      49.154   6.827  15.424  0.00  0.00    +0.000 C 
ATOM     13  O   UNL     1      50.175   7.056  14.781  0.00  0.00    +0.000 OA
ATOM     14  H   UNL     1      47.099   6.603  15.379  0.00  0.00    +0.000 HD
BRANCH  12  15
ATOM     15  C   UNL     1      49.217   6.449  16.843  0.00  0.00    +0.000 A 
ATOM     16  C   UNL     1      49.711   7.357  17.769  0.00  0.00    +0.000 A 
ATOM     17  S   UNL     1      49.684   6.785  19.375  0.00  0.00    +0.000 S 
ATOM     18  C   UNL     1      49.052   5.281  18.883  0.00  0.00    +0.000 A 
ATOM     19  N   UNL     1      48.814   4.297  19.791  0.00  0.00    +0.000 NA
ATOM     20  C   UNL     1      48.370   3.197  19.283  0.00  0.00    +0.000 A 
ATOM     21  N   UNL     1      48.126   3.002  17.944  0.00  0.00    +0.000 N 
ATOM     22  C   UNL     1      48.287   3.989  17.003  0.00  0.00    +0.000 A 
ATOM     23  O   UNL     1      47.944   3.816  15.836  0.00  0.00    +0.000 OA
ATOM     24  C   UNL     1      48.835   5.226  17.520  0.00  0.00    +0.000 A 
ATOM     25  H   UNL     1      47.748   2.122  17.612  0.00  0.00    +0.000 HD
ENDBRANCH  12  15
ENDBRANCH  10  11
ENDBRANCH   3  10
BRANCH   6  26
ATOM     26  C   UNL     1      43.556   4.343  10.781  0.00  0.00    +0.000 C 
BRANCH  26  27
ATOM     27  N   UNL     1      43.810   4.426   9.353  0.00  0.00    +0.000 N 
ATOM     28  C   UNL     1      44.797   3.672   8.752  0.00  0.00    +0.000 A 
ATOM     29  C   UNL     1      45.139   2.387   9.149  0.00  0.00    +0.000 A 
ATOM     30  C   UNL     1      46.101   1.670   8.433  0.00  0.00    +0.000 A 
ATOM     31  C   UNL     1      46.709   2.245   7.319  0.00  0.00    +0.000 A 
ATOM     32  C   UNL     1      46.286   3.520   6.975  0.00  0.00    +0.000 A 
ATOM     33  N   UNL     1      45.367   4.239   7.669  0.00  0.00    +0.000 NA
ATOM     34  H   UNL     1      43.862   5.369   8.976  0.00  0.00    +0.000 HD
BRANCH  31  35
ATOM     35  C   UNL     1      47.705   1.513   6.465  0.00  0.00    +0.000 C 
BRANCH  35  36
ATOM     36  O   UNL     1      48.667   2.396   5.902  0.00  0.00    +0.000 OA
ATOM     37  H   UNL     1      48.181   3.170   5.569  0.00  0.00    +0.000 HD
ENDBRANCH  35  36
ENDBRANCH  31  35
ENDBRANCH  26  27
ENDBRANCH   6  26
TORSDOF 8
ENDMDL
MODEL 5
REMARK VINA RESULT:    -8.901      1.967      2.426
REMARK INTER + INTRA:         -13.571
REMARK INTER:                 -12.546
REMARK INTRA:                  -1.026
REMARK UNBOUND:                -1.028
REMARK  Name = 
REMARK  8 active torsions:
REMARK  status: ('A' for Active; 'I' for Inactive)
REMARK    1  A    between atoms: N_1  and  C_2
REMARK    2  A    between atoms: C_4  and  C_5
REMARK    3  A    between atoms: C_5  and  N_6
REMARK    4  A    between atoms: C_7  and  C_9
REMARK    5  A    between atoms: C_21  and  C_22
REMARK    6  A    between atoms: C_22  and  N_23
REMARK    7  A    between atoms: C_27  and  C_28
REMARK    8  A    between atoms: C_28  and  O_29
REMARK                            x       y       z     vdW  Elec       q    Type
REMARK                         _______ _______ _______ _____ _____    ______ ____
ROOT
ATOM      1  C   UNL     1      45.270   4.495  12.481  0.00  0.00    +0.000 A 
ATOM      2  C   UNL     1      46.237   5.193  13.224  0.00  0.00    +0.000 A 
ATOM      3  C   UNL     1      46.471   6.563  13.034  0.00  0.00    +0.000 A 
ATOM      4  C   UNL     1      45.711   7.247  12.083  0.00  0.00    +0.000 A 
ATOM      5  C   UNL     1      44.760   6.566  11.322  0.00  0.00    +0.000 A 
ATOM      6  C   UNL     1      44.545   5.183  11.487  0.00  0.00    +0.000 A 
ENDROOT
BRANCH   1   7
ATOM      7  N   UNL     1      45.249   3.092  12.592  0.00  0.00    +0.000 N 
ATOM      8  H   UNL     1      44.622   2.657  11.920  0.00  0.00    +0.000 HD
ATOM      9  H   UNL     1      46.169   2.665  12.564  0.00  0.00    +0.000 HD
ENDBRANCH   1   7
BRANCH   3  10
ATOM     10  C   UNL     1      47.525   7.269  13.841  0.00  0.00    +0.000 C 
BRANCH  10  11
ATOM     11  N   UNL     1      48.134   6.392  14.807  0.00  0.00    +0.000 N 
ATOM     12  C   UNL     1      48.822   6.854  15.898  0.00  0.00    +0.000 C 
ATOM     13  O   UNL     1      48.976   8.052  16.118  0.00  0.00    +0.000 OA
ATOM     14  H   UNL     1      48.192   5.410  14.558  0.00  0.00    +0.000 HD
BRANCH  12  15
ATOM     15  C   UNL     1      49.303   5.838  16.846  0.00  0.00    +0.000 A 
ATOM     16  C   UNL     1      48.383   5.063  17.539  0.00  0.00    +0.000 A 
ATOM     17  S   UNL     1      49.096   3.907  18.569  0.00  0.00    +0.000 S 
ATOM     18  C   UNL     1      50.664   4.434  18.161  0.00  0.00    +0.000 A 
ATOM     19  N   UNL     1      51.759   3.863  18.729  0.00  0.00    +0.000 NA
ATOM     20  C   UNL     1      52.884   4.378  18.360  0.00  0.00    +0.000 A 
ATOM     21  N   UNL     1      53.008   5.406  17.456  0.00  0.00    +0.000 N 
ATOM     22  C   UNL     1      51.934   5.965  16.807  0.00  0.00    +0.000 A 
ATOM     23  O   UNL     1      52.093   6.796  15.917  0.00  0.00    +0.000 OA
ATOM     24  C   UNL     1      50.647   5.454  17.229  0.00  0.00    +0.000 A 
ATOM     25  H   UNL     1      53.923   5.746  17.185  0.00  0.00    +0.000 HD
ENDBRANCH  12  15
ENDBRANCH  10  11
ENDBRANCH   3  10
BRANCH   6  26
ATOM     26  C   UNL     1      43.508   4.510  10.609  0.00  0.00    +0.000 C 
BRANCH  26  27
ATOM     27  N   UNL     1      43.918   4.583   9.217  0.00  0.00    +0.000 N 
ATOM     28  C   UNL     1      44.845   3.707   8.691  0.00  0.00    +0.000 A 
ATOM     29  C   UNL     1      44.956   2.377   9.076  0.00  0.00    +0.000 A 
ATOM     30  C   UNL     1      45.875   1.542   8.434  0.00  0.00    +0.000 A 
ATOM     31  C   UNL     1      46.671   2.045   7.407  0.00  0.00    +0.000 A 
ATOM     32  C   UNL     1      46.472   3.375   7.067  0.00  0.00    +0.000 A 
ATOM     33  N   UNL     1      45.598   4.206   7.691  0.00  0.00    +0.000 NA
ATOM     34  H   UNL     1      44.142   5.516   8.880  0.00  0.00    +0.000 HD
BRANCH  31  35
ATOM     35  C   UNL     1      47.635   1.194   6.632  0.00  0.00    +0.000 C 
BRANCH  35  36
ATOM     36  O   UNL     1      48.550   1.983   5.881  0.00  0.00    +0.000 OA
ATOM     37  H   UNL     1      48.020   2.567   5.312  0.00  0.00    +0.000 HD
ENDBRANCH  35  36
ENDBRANCH  31  35
ENDBRANCH  26  27
ENDBRANCH   6  26
TORSDOF 8
ENDMDL
MODEL 6
REMARK VINA RESULT:    -8.536      2.970      4.609
REMARK INTER + INTRA:         -13.057
REMARK INTER:                 -11.806
REMARK INTRA:                  -1.251
REMARK UNBOUND:                -1.028
REMARK  Name = 
REMARK  8 active torsions:
REMARK  status: ('A' for Active; 'I' for Inactive)
REMARK    1  A    between atoms: N_1  and  C_2
REMARK    2  A    between atoms: C_4  and  C_5
REMARK    3  A    between atoms: C_5  and  N_6
REMARK    4  A    between atoms: C_7  and  C_9
REMARK    5  A    between atoms: C_21  and  C_22
REMARK    6  A    between atoms: C_22  and  N_23
REMARK    7  A    between atoms: C_27  and  C_28
REMARK    8  A    between atoms: C_28  and  O_29
REMARK                            x       y       z     vdW  Elec       q    Type
REMARK                         _______ _______ _______ _____ _____    ______ ____
ROOT
ATOM      1  C   UNL     1      44.736   3.832  12.542  0.00  0.00    +0.000 A 
ATOM      2  C   UNL     1      45.751   4.093  13.479  0.00  0.00    +0.000 A 
ATOM      3  C   UNL     1      46.458   5.304  13.487  0.00  0.00    +0.000 A 
ATOM      4  C   UNL     1      46.133   6.276  12.539  0.00  0.00    +0.000 A 
ATOM      5  C   UNL     1      45.142   6.026  11.588  0.00  0.00    +0.000 A 
ATOM      6  C   UNL     1      44.452   4.798  11.556  0.00  0.00    +0.000 A 
ENDROOT
BRANCH   1   7
ATOM      7  N   UNL     1      44.228   2.521  12.479  0.00  0.00    +0.000 N 
ATOM      8  H   UNL     1      44.831   1.845  12.940  0.00  0.00    +0.000 HD
ATOM      9  H   UNL     1      43.269   2.437  12.803  0.00  0.00    +0.000 HD
ENDBRANCH   1   7
BRANCH   3  10
ATOM     10  C   UNL     1      47.546   5.537  14.498  0.00  0.00    +0.000 C 
BRANCH  10  11
ATOM     11  N   UNL     1      48.105   6.860  14.385  0.00  0.00    +0.000 N 
ATOM     12  C   UNL     1      49.321   7.198  14.918  0.00  0.00    +0.000 C 
ATOM     13  O   UNL     1      50.012   6.396  15.540  0.00  0.00    +0.000 OA
ATOM     14  H   UNL     1      47.485   7.589  14.052  0.00  0.00    +0.000 HD
BRANCH  12  15
ATOM     15  C   UNL     1      49.801   8.559  14.638  0.00  0.00    +0.000 A 
ATOM     16  C   UNL     1      50.286   9.339  15.680  0.00  0.00    +0.000 A 
ATOM     17  S   UNL     1      50.839  10.875  15.189  0.00  0.00    +0.000 S 
ATOM     18  C   UNL     1      50.407  10.571  13.569  0.00  0.00    +0.000 A 
ATOM     19  N   UNL     1      50.595  11.516  12.611  0.00  0.00    +0.000 NA
ATOM     20  C   UNL     1      50.193  11.172  11.433  0.00  0.00    +0.000 A 
ATOM     21  N   UNL     1      49.635   9.953  11.129  0.00  0.00    +0.000 N 
ATOM     22  C   UNL     1      49.489   8.945  12.050  0.00  0.00    +0.000 A 
ATOM     23  O   UNL     1      49.100   7.830  11.716  0.00  0.00    +0.000 OA
ATOM     24  C   UNL     1      49.878   9.306  13.398  0.00  0.00    +0.000 A 
ATOM     25  H   UNL     1      49.367   9.733  10.177  0.00  0.00    +0.000 HD
ENDBRANCH  12  15
ENDBRANCH  10  11
ENDBRANCH   3  10
BRANCH   6  26
ATOM     26  C   UNL     1      43.403   4.594  10.481  0.00  0.00    +0.000 C 
BRANCH  26  27
ATOM     27  N   UNL     1      44.003   4.759   9.168  0.00  0.00    +0.000 N 
ATOM     28  C   UNL     1      44.954   3.879   8.695  0.00  0.00    +0.000 A 
ATOM     29  C   UNL     1      44.954   2.518   8.972  0.00  0.00    +0.000 A 
ATOM     30  C   UNL     1      45.916   1.690   8.387  0.00  0.00    +0.000 A 
ATOM     31  C   UNL     1      46.866   2.230   7.524  0.00  0.00    +0.000 A 
ATOM     32  C   UNL     1      46.774   3.593   7.280  0.00  0.00    +0.000 A 
ATOM     33  N   UNL     1      45.859   4.417   7.853  0.00  0.00    +0.000 NA
ATOM     34  H   UNL     1      44.312   5.703   8.949  0.00  0.00    +0.000 HD
BRANCH  31  35
ATOM     35  C   UNL     1      47.890   1.394   6.812  0.00  0.00    +0.000 C 
BRANCH  35  36
ATOM     36  O   UNL     1      48.277   1.975   5.573  0.00  0.00    +0.000 OA
ATOM     37  H   UNL     1      47.818   2.829   5.504  0.00  0.00    +0.000 HD
ENDBRANCH  35  36
ENDBRANCH  31  35
ENDBRANCH  26  27
ENDBRANCH   6  26
TORSDOF 8
ENDMDL
MODEL 7
REMARK VINA RESULT:    -7.879      2.952      4.123
REMARK INTER + INTRA:         -12.131
REMARK INTER:                 -11.550
REMARK INTRA:                  -0.581
REMARK UNBOUND:                -1.028
REMARK  Name = 
REMARK  8 active torsions:
REMARK  status: ('A' for Active; 'I' for Inactive)
REMARK    1  A    between atoms: N_1  and  C_2
REMARK    2  A    between atoms: C_4  and  C_5
REMARK    3  A    between atoms: C_5  and  N_6
REMARK    4  A    between atoms: C_7  and  C_9
REMARK    5  A    between atoms: C_21  and  C_22
REMARK    6  A    between atoms: C_22  and  N_23
REMARK    7  A    between atoms: C_27  and  C_28
REMARK    8  A    between atoms: C_28  and  O_29
REMARK                            x       y       z     vdW  Elec       q    Type
REMARK                         _______ _______ _______ _____ _____    ______ ____
ROOT
ATOM      1  C   UNL     1      44.784   3.891  12.539  0.00  0.00    +0.000 A 
ATOM      2  C   UNL     1      45.819   4.138  13.456  0.00  0.00    +0.000 A 
ATOM      3  C   UNL     1      46.538   5.342  13.457  0.00  0.00    +0.000 A 
ATOM      4  C   UNL     1      46.203   6.322  12.521  0.00  0.00    +0.000 A 
ATOM      5  C   UNL     1      45.191   6.087  11.590  0.00  0.00    +0.000 A 
ATOM      6  C   UNL     1      44.489   4.866  11.565  0.00  0.00    +0.000 A 
ENDROOT
BRANCH   1   7
ATOM      7  N   UNL     1      44.262   2.586  12.479  0.00  0.00    +0.000 N 
ATOM      8  H   UNL     1      44.361   2.168  11.557  0.00  0.00    +0.000 HD
ATOM      9  H   UNL     1      44.617   1.968  13.202  0.00  0.00    +0.000 HD
ENDBRANCH   1   7
BRANCH   3  10
ATOM     10  C   UNL     1      47.649   5.559  14.447  0.00  0.00    +0.000 C 
BRANCH  10  11
ATOM     11  N   UNL     1      48.129   6.916  14.421  0.00  0.00    +0.000 N 
ATOM     12  C   UNL     1      49.290   7.304  15.038  0.00  0.00    +0.000 C 
ATOM     13  O   UNL     1      49.993   6.518  15.667  0.00  0.00    +0.000 OA
ATOM     14  H   UNL     1      47.485   7.621  14.080  0.00  0.00    +0.000 HD
BRANCH  12  15
ATOM     15  C   UNL     1      49.699   8.702  14.841  0.00  0.00    +0.000 A 
ATOM     16  C   UNL     1      48.728   9.693  14.774  0.00  0.00    +0.000 A 
ATOM     17  S   UNL     1      49.362  11.264  14.582  0.00  0.00    +0.000 S 
ATOM     18  C   UNL     1      50.958  10.670  14.535  0.00  0.00    +0.000 A 
ATOM     19  N   UNL     1      52.009  11.515  14.359  0.00  0.00    +0.000 NA
ATOM     20  C   UNL     1      53.160  10.933  14.307  0.00  0.00    +0.000 A 
ATOM     21  N   UNL     1      53.353   9.578  14.433  0.00  0.00    +0.000 N 
ATOM     22  C   UNL     1      52.328   8.697  14.681  0.00  0.00    +0.000 A 
ATOM     23  O   UNL     1      52.552   7.511  14.910  0.00  0.00    +0.000 OA
ATOM     24  C   UNL     1      51.011   9.299  14.695  0.00  0.00    +0.000 A 
ATOM     25  H   UNL     1      54.287   9.186  14.414  0.00  0.00    +0.000 HD
ENDBRANCH  12  15
ENDBRANCH  10  11
ENDBRANCH   3  10
BRANCH   6  26
ATOM     26  C   UNL     1      43.415   4.678  10.510  0.00  0.00    +0.000 C 
BRANCH  26  27
ATOM     27  N   UNL     1      44.001   4.792   9.185  0.00  0.00    +0.000 N 
ATOM     28  C   UNL     1      44.897   3.857   8.710  0.00  0.00    +0.000 A 
ATOM     29  C   UNL     1      44.830   2.502   9.008  0.00  0.00    +0.000 A 
ATOM     30  C   UNL     1      45.737   1.616   8.420  0.00  0.00    +0.000 A 
ATOM     31  C   UNL     1      46.700   2.093   7.533  0.00  0.00    +0.000 A 
ATOM     32  C   UNL     1      46.674   3.455   7.270  0.00  0.00    +0.000 A 
ATOM     33  N   UNL     1      45.814   4.334   7.845  0.00  0.00    +0.000 NA
ATOM     34  H   UNL     1      44.355   5.715   8.946  0.00  0.00    +0.000 HD
BRANCH  31  35
ATOM     35  C   UNL     1      47.666   1.194   6.817  0.00  0.00    +0.000 C 
BRANCH  35  36
ATOM     36  O   UNL     1      48.378   1.887   5.800  0.00  0.00    +0.000 OA
ATOM     37  H   UNL     1      49.145   1.337   5.565  0.00  0.00    +0.000 HD
ENDBRANCH  35  36
ENDBRANCH  31  35
ENDBRANCH  26  27
ENDBRANCH   6  26
TORSDOF 8
ENDMDL
MODEL 8
REMARK VINA RESULT:    -7.873      4.367      5.553
REMARK INTER + INTRA:         -12.122
REMARK INTER:                 -10.931
REMARK INTRA:                  -1.192
REMARK UNBOUND:                -1.028
REMARK  Name = 
REMARK  8 active torsions:
REMARK  status: ('A' for Active; 'I' for Inactive)
REMARK    1  A    between atoms: N_1  and  C_2
REMARK    2  A    between atoms: C_4  and  C_5
REMARK    3  A    between atoms: C_5  and  N_6
REMARK    4  A    between atoms: C_7  and  C_9
REMARK    5  A    between atoms: C_21  and  C_22
REMARK    6  A    between atoms: C_22  and  N_23
REMARK    7  A    between atoms: C_27  and  C_28
REMARK    8  A    between atoms: C_28  and  O_29
REMARK                            x       y       z     vdW  Elec       q    Type
REMARK                         _______ _______ _______ _____ _____    ______ ____
ROOT
ATOM      1  C   UNL     1      45.013   5.300  12.716  0.00  0.00    +0.000 A 
ATOM      2  C   UNL     1      45.705   6.367  13.312  0.00  0.00    +0.000 A 
ATOM      3  C   UNL     1      45.648   7.669  12.795  0.00  0.00    +0.000 A 
ATOM      4  C   UNL     1      44.871   7.905  11.659  0.00  0.00    +0.000 A 
ATOM      5  C   UNL     1      44.193   6.853  11.041  0.00  0.00    +0.000 A 
ATOM      6  C   UNL     1      44.275   5.538  11.539  0.00  0.00    +0.000 A 
ENDROOT
BRANCH   1   7
ATOM      7  N   UNL     1      45.292   4.000  13.178  0.00  0.00    +0.000 N 
ATOM      8  H   UNL     1      46.260   3.889  13.469  0.00  0.00    +0.000 HD
ATOM      9  H   UNL     1      44.654   3.674  13.897  0.00  0.00    +0.000 HD
ENDBRANCH   1   7
BRANCH   3  10
ATOM     10  C   UNL     1      46.415   8.780  13.457  0.00  0.00    +0.000 C 
BRANCH  10  11
ATOM     11  N   UNL     1      47.570   9.163  12.687  0.00  0.00    +0.000 N 
ATOM     12  C   UNL     1      48.625   9.852  13.226  0.00  0.00    +0.000 C 
ATOM     13  O   UNL     1      48.649  10.201  14.403  0.00  0.00    +0.000 OA
ATOM     14  H   UNL     1      47.500   9.064  11.680  0.00  0.00    +0.000 HD
BRANCH  12  15
ATOM     15  C   UNL     1      49.774  10.087  12.339  0.00  0.00    +0.000 A 
ATOM     16  C   UNL     1      50.217  11.385  12.128  0.00  0.00    +0.000 A 
ATOM     17  S   UNL     1      51.579  11.490  11.107  0.00  0.00    +0.000 S 
ATOM     18  C   UNL     1      51.597   9.802  10.874  0.00  0.00    +0.000 A 
ATOM     19  N   UNL     1      52.522   9.223  10.063  0.00  0.00    +0.000 NA
ATOM     20  C   UNL     1      52.403   7.943   9.944  0.00  0.00    +0.000 A 
ATOM     21  N   UNL     1      51.448   7.189  10.584  0.00  0.00    +0.000 N 
ATOM     22  C   UNL     1      50.539   7.723  11.464  0.00  0.00    +0.000 A 
ATOM     23  O   UNL     1      49.781   7.003  12.108  0.00  0.00    +0.000 OA
ATOM     24  C   UNL     1      50.600   9.164  11.587  0.00  0.00    +0.000 A 
ATOM     25  H   UNL     1      51.427   6.182  10.473  0.00  0.00    +0.000 HD
ENDBRANCH  12  15
ENDBRANCH  10  11
ENDBRANCH   3  10
BRANCH   6  26
ATOM     26  C   UNL     1      43.525   4.445  10.801  0.00  0.00    +0.000 C 
BRANCH  26  27
ATOM     27  N   UNL     1      43.816   4.521   9.380  0.00  0.00    +0.000 N 
ATOM     28  C   UNL     1      44.793   3.735   8.801  0.00  0.00    +0.000 A 
ATOM     29  C   UNL     1      45.081   2.438   9.205  0.00  0.00    +0.000 A 
ATOM     30  C   UNL     1      46.036   1.690   8.511  0.00  0.00    +0.000 A 
ATOM     31  C   UNL     1      46.690   2.245   7.413  0.00  0.00    +0.000 A 
ATOM     32  C   UNL     1      46.318   3.535   7.061  0.00  0.00    +0.000 A 
ATOM     33  N   UNL     1      45.407   4.283   7.734  0.00  0.00    +0.000 NA
ATOM     34  H   UNL     1      43.909   5.461   9.005  0.00  0.00    +0.000 HD
BRANCH  31  35
ATOM     35  C   UNL     1      47.681   1.481   6.583  0.00  0.00    +0.000 C 
BRANCH  35  36
ATOM     36  O   UNL     1      48.574   2.349   5.896  0.00  0.00    +0.000 OA
ATOM     37  H   UNL     1      48.304   3.259   6.107  0.00  0.00    +0.000 HD
ENDBRANCH  35  36
ENDBRANCH  31  35
ENDBRANCH  26  27
ENDBRANCH   6  26
TORSDOF 8
ENDMDL
MODEL 9
REMARK VINA RESULT:    -7.813      3.078      3.836
REMARK INTER + INTRA:         -12.039
REMARK INTER:                 -11.524
REMARK INTRA:                  -0.515
REMARK UNBOUND:                -1.028
REMARK  Name = 
REMARK  8 active torsions:
REMARK  status: ('A' for Active; 'I' for Inactive)
REMARK    1  A    between atoms: N_1  and  C_2
REMARK    2  A    between atoms: C_4  and  C_5
REMARK    3  A    between atoms: C_5  and  N_6
REMARK    4  A    between atoms: C_7  and  C_9
REMARK    5  A    between atoms: C_21  and  C_22
REMARK    6  A    between atoms: C_22  and  N_23
REMARK    7  A    between atoms: C_27  and  C_28
REMARK    8  A    between atoms: C_28  and  O_29
REMARK                            x       y       z     vdW  Elec       q    Type
REMARK                         _______ _______ _______ _____ _____    ______ ____
ROOT
ATOM      1  C   UNL     1      45.250   4.503  12.667  0.00  0.00    +0.000 A 
ATOM      2  C   UNL     1      45.806   5.680  13.198  0.00  0.00    +0.000 A 
ATOM      3  C   UNL     1      45.546   6.940  12.639  0.00  0.00    +0.000 A 
ATOM      4  C   UNL     1      44.703   7.020  11.529  0.00  0.00    +0.000 A 
ATOM      5  C   UNL     1      44.159   5.860  10.976  0.00  0.00    +0.000 A 
ATOM      6  C   UNL     1      44.444   4.589  11.514  0.00  0.00    +0.000 A 
ENDROOT
BRANCH   1   7
ATOM      7  N   UNL     1      45.728   3.275  13.160  0.00  0.00    +0.000 N 
ATOM      8  H   UNL     1      46.620   3.367  13.640  0.00  0.00    +0.000 HD
ATOM      9  H   UNL     1      45.055   2.773  13.731  0.00  0.00    +0.000 HD
ENDBRANCH   1   7
BRANCH   3  10
ATOM     10  C   UNL     1      46.172   8.172  13.231  0.00  0.00    +0.000 C 
BRANCH  10  11
ATOM     11  N   UNL     1      47.334   7.854  14.020  0.00  0.00    +0.000 N 
ATOM     12  C   UNL     1      48.307   8.775  14.311  0.00  0.00    +0.000 C 
ATOM     13  O   UNL     1      48.257   9.933  13.906  0.00  0.00    +0.000 OA
ATOM     14  H   UNL     1      47.503   6.872  14.206  0.00  0.00    +0.000 HD
BRANCH  12  15
ATOM     15  C   UNL     1      49.383   8.327  15.207  0.00  0.00    +0.000 A 
ATOM     16  C   UNL     1      49.094   8.061  16.539  0.00  0.00    +0.000 A 
ATOM     17  S   UNL     1      50.436   7.516  17.438  0.00  0.00    +0.000 S 
ATOM     18  C   UNL     1      51.464   7.660  16.087  0.00  0.00    +0.000 A 
ATOM     19  N   UNL     1      52.788   7.367  16.188  0.00  0.00    +0.000 NA
ATOM     20  C   UNL     1      53.461   7.552  15.102  0.00  0.00    +0.000 A 
ATOM     21  N   UNL     1      52.919   7.989  13.917  0.00  0.00    +0.000 N 
ATOM     22  C   UNL     1      51.577   8.230  13.752  0.00  0.00    +0.000 A 
ATOM     23  O   UNL     1      51.111   8.501  12.649  0.00  0.00    +0.000 OA
ATOM     24  C   UNL     1      50.790   8.087  14.959  0.00  0.00    +0.000 A 
ATOM     25  H   UNL     1      53.497   8.085  13.090  0.00  0.00    +0.000 HD
ENDBRANCH  12  15
ENDBRANCH  10  11
ENDBRANCH   3  10
BRANCH   6  26
ATOM     26  C   UNL     1      43.830   3.374  10.845  0.00  0.00    +0.000 C 
BRANCH  26  27
ATOM     27  N   UNL     1      44.878   2.468  10.410  0.00  0.00    +0.000 N 
ATOM     28  C   UNL     1      45.419   2.548   9.142  0.00  0.00    +0.000 A 
ATOM     29  C   UNL     1      45.602   3.739   8.453  0.00  0.00    +0.000 A 
ATOM     30  C   UNL     1      46.228   3.731   7.204  0.00  0.00    +0.000 A 
ATOM     31  C   UNL     1      46.671   2.528   6.657  0.00  0.00    +0.000 A 
ATOM     32  C   UNL     1      46.475   1.391   7.427  0.00  0.00    +0.000 A 
ATOM     33  N   UNL     1      45.853   1.377   8.634  0.00  0.00    +0.000 NA
ATOM     34  H   UNL     1      44.719   1.487  10.621  0.00  0.00    +0.000 HD
BRANCH  31  35
ATOM     35  C   UNL     1      47.406   2.449   5.350  0.00  0.00    +0.000 C 
BRANCH  35  36
ATOM     36  O   UNL     1      48.672   1.817   5.492  0.00  0.00    +0.000 OA
ATOM     37  H   UNL     1      48.836   1.722   6.446  0.00  0.00    +0.000 HD
ENDBRANCH  35  36
ENDBRANCH  31  35
ENDBRANCH  26  27
ENDBRANCH   6  26
TORSDOF 8
ENDMDL
