MODEL 1
REMARK VINA RESULT:    -9.763      0.000      0.000
REMARK INTER + INTRA:         -14.031
REMARK INTER:                 -13.188
REMARK INTRA:                  -0.843
REMARK UNBOUND:                -0.843
REMARK  Name = 
REMARK  6 active torsions:
REMARK  status: ('A' for Active; 'I' for Inactive)
REMARK    1  A    between atoms: C_2  and  C_4
REMARK    2  A    between atoms: N_8  and  C_9
REMARK    3  A    between atoms: C_9  and  C_10
REMARK    4  A    between atoms: C_10  and  C_13
REMARK    5  A    between atoms: C_17  and  O_18
REMARK    6  A    between atoms: O_18  and  C_19
REMARK                            x       y       z     vdW  Elec       q    Type
REMARK                         _______ _______ _______ _____ _____    ______ ____
ROOT
ATOM      1  C   UNL     1      43.280   4.400  11.149  0.00  0.00    +0.000 C 
ENDROOT
BRANCH   1   6
ATOM      2  C   UNL     1      46.523   2.517   7.694  0.00  0.00    +0.000 A 
ATOM      3  C   UNL     1      45.671   1.852   8.567  0.00  0.00    +0.000 A 
ATOM      4  C   UNL     1      44.743   2.588   9.304  0.00  0.00    +0.000 A 
ATOM      5  C   UNL     1      44.691   3.973   9.171  0.00  0.00    +0.000 A 
ATOM      6  N   UNL     1      43.741   4.755   9.801  0.00  0.00    +0.000 N 
ATOM      7  N   UNL     1      45.536   4.630   8.352  0.00  0.00    +0.000 NA
ATOM      8  C   UNL     1      46.433   3.898   7.637  0.00  0.00    +0.000 A 
ATOM      9  H   UNL     1      43.980   5.736   9.655  0.00  0.00    +0.000 HD
BRANCH   2  11
ATOM     10  N   UNL     1      48.580   2.532   6.399  0.00  0.00    +0.000 N 
ATOM     11  C   UNL     1      47.502   1.811   6.840  0.00  0.00    +0.000 C 
ATOM     12  O   UNL     1      47.375   0.625   6.568  0.00  0.00    +0.000 OA
ATOM     13  H   UNL     1      49.297   2.010   5.909  0.00  0.00    +0.000 HD
ATOM     14  H   UNL     1      48.846   3.417   6.804  0.00  0.00    +0.000 HD
ENDBRANCH   2  11
ENDBRANCH   1   6
BRANCH   1  15
ATOM     15  C   UNL     1      43.500   5.528  12.195  0.00  0.00    +0.000 C 
ATOM     16  F   UNL     1      43.172   6.720  11.613  0.00  0.00    +0.000 F 
ATOM     17  F   UNL     1      42.610   5.370  13.219  0.00  0.00    +0.000 F 
BRANCH  15  18
ATOM     18  C   UNL     1      44.925   5.513  12.696  0.00  0.00    +0.000 A 
ATOM     19  C   UNL     1      45.795   6.553  12.390  0.00  0.00    +0.000 A 
ATOM     20  N   UNL     1      47.096   6.574  12.752  0.00  0.00    +0.000 NA
ATOM     21  C   UNL     1      47.550   5.514  13.464  0.00  0.00    +0.000 A 
ATOM     22  C   UNL     1      46.762   4.436  13.842  0.00  0.00    +0.000 A 
ATOM     23  C   UNL     1      45.430   4.436  13.442  0.00  0.00    +0.000 A 
BRANCH  22  24
ATOM     24  O   UNL     1      47.372   3.423  14.533  0.00  0.00    +0.000 OA
BRANCH  24  25
ATOM     25  C   UNL     1      47.732   3.667  15.908  0.00  0.00    +0.000 C 
ATOM     26  C   UNL     1      48.448   2.507  16.615  0.00  0.00    +0.000 C 
ATOM     27  C   UNL     1      47.460   2.778  17.743  0.00  0.00    +0.000 C 
ATOM     28  O   UNL     1      46.627   3.567  16.856  0.00  0.00    +0.000 OA
ENDBRANCH  24  25
ENDBRANCH  22  24
ENDBRANCH  15  18
ENDBRANCH   1  15
TORSDOF 6
ENDMDL
MODEL 2
REMARK VINA RESULT:    -9.095      1.273      1.567
REMARK INTER + INTRA:         -13.128
REMARK INTER:                 -12.197
REMARK INTRA:                  -0.931
REMARK UNBOUND:                -0.843
REMARK  Name = 
REMARK  6 active torsions:
REMARK  status: ('A' for Active; 'I' for Inactive)
REMARK    1  A    between atoms: C_2  and  C_4
REMARK    2  A    between atoms: N_8  and  C_9
REMARK    3  A    between atoms: C_9  and  C_10
REMARK    4  A    between atoms: C_10  and  C_13
REMARK    5  A    between atoms: C_17  and  O_18
REMARK    6  A    between atoms: O_18  and  C_19
REMARK                            x       y       z     vdW  Elec       q    Type
REMARK                         _______ _______ _______ _____ _____    ______ ____
ROOT
ATOM      1  C   UNL     1      43.263   3.947  11.024  0.00  0.00    +0.000 C 
ENDROOT
BRANCH   1   6
ATOM      2  C   UNL     1      46.575   2.573   7.399  0.00  0.00    +0.000 A 
ATOM      3  C   UNL     1      46.204   3.841   7.828  0.00  0.00    +0.000 A 
ATOM      4  C   UNL     1      45.403   3.967   8.963  0.00  0.00    +0.000 A 
ATOM      5  C   UNL     1      44.973   2.830   9.640  0.00  0.00    +0.000 A 
ATOM      6  N   UNL     1      44.253   2.883  10.820  0.00  0.00    +0.000 N 
ATOM      7  N   UNL     1      45.300   1.595   9.213  0.00  0.00    +0.000 NA
ATOM      8  C   UNL     1      46.085   1.488   8.107  0.00  0.00    +0.000 A 
ATOM      9  H   UNL     1      43.949   1.938  11.055  0.00  0.00    +0.000 HD
BRANCH   2  11
ATOM     10  N   UNL     1      47.267   3.150   5.142  0.00  0.00    +0.000 N 
ATOM     11  C   UNL     1      47.461   2.350   6.236  0.00  0.00    +0.000 C 
ATOM     12  O   UNL     1      48.351   1.512   6.262  0.00  0.00    +0.000 OA
ATOM     13  H   UNL     1      47.949   3.064   4.397  0.00  0.00    +0.000 HD
ATOM     14  H   UNL     1      46.728   4.003   5.179  0.00  0.00    +0.000 HD
ENDBRANCH   2  11
ENDBRANCH   1   6
BRANCH   1  15
ATOM     15  C   UNL     1      43.356   4.620  12.420  0.00  0.00    +0.000 C 
ATOM     16  F   UNL     1      42.340   5.527  12.527  0.00  0.00    +0.000 F 
ATOM     17  F   UNL     1      43.109   3.687  13.386  0.00  0.00    +0.000 F 
BRANCH  15  18
ATOM     18  C   UNL     1      44.711   5.261  12.608  0.00  0.00    +0.000 A 
ATOM     19  C   UNL     1      45.139   6.276  11.760  0.00  0.00    +0.000 A 
ATOM     20  N   UNL     1      46.360   6.849  11.831  0.00  0.00    +0.000 NA
ATOM     21  C   UNL     1      47.192   6.398  12.801  0.00  0.00    +0.000 A 
ATOM     22  C   UNL     1      46.857   5.407  13.713  0.00  0.00    +0.000 A 
ATOM     23  C   UNL     1      45.598   4.826  13.606  0.00  0.00    +0.000 A 
BRANCH  22  24
ATOM     24  O   UNL     1      47.816   5.034  14.617  0.00  0.00    +0.000 OA
BRANCH  24  25
ATOM     25  C   UNL     1      47.472   4.023  15.586  0.00  0.00    +0.000 C 
ATOM     26  C   UNL     1      48.077   4.220  16.984  0.00  0.00    +0.000 C 
ATOM     27  C   UNL     1      48.439   2.744  16.873  0.00  0.00    +0.000 C 
ATOM     28  O   UNL     1      48.201   2.767  15.443  0.00  0.00    +0.000 OA
ENDBRANCH  24  25
ENDBRANCH  22  24
ENDBRANCH  15  18
ENDBRANCH   1  15
TORSDOF 6
ENDMDL
MODEL 3
REMARK VINA RESULT:    -8.930      1.516      1.725
REMARK INTER + INTRA:         -12.905
REMARK INTER:                 -12.098
REMARK INTRA:                  -0.806
REMARK UNBOUND:                -0.843
REMARK  Name = 
REMARK  6 active torsions:
REMARK  status: ('A' for Active; 'I' for Inactive)
REMARK    1  A    between atoms: C_2  and  C_4
REMARK    2  A    between atoms: N_8  and  C_9
REMARK    3  A    between atoms: C_9  and  C_10
REMARK    4  A    between atoms: C_10  and  C_13
REMARK    5  A    between atoms: C_17  and  O_18
REMARK    6  A    between atoms: O_18  and  C_19
REMARK                            x       y       z     vdW  Elec       q    Type
REMARK                         _______ _______ _______ _____ _____    ______ ____
ROOT
ATOM      1  C   UNL     1      43.336   4.595  11.033  0.00  0.00    +0.000 C 
ENDROOT
BRANCH   1   6
ATOM      2  C   UNL     1      46.512   2.499   7.639  0.00  0.00    +0.000 A 
ATOM      3  C   UNL     1      45.630   1.891   8.523  0.00  0.00    +0.000 A 
ATOM      4  C   UNL     1      44.730   2.681   9.237  0.00  0.00    +0.000 A 
ATOM      5  C   UNL     1      44.736   4.064   9.073  0.00  0.00    +0.000 A 
ATOM      6  N   UNL     1      43.816   4.899   9.679  0.00  0.00    +0.000 N 
ATOM      7  N   UNL     1      45.610   4.666   8.243  0.00  0.00    +0.000 NA
ATOM      8  C   UNL     1      46.479   3.881   7.549  0.00  0.00    +0.000 A 
ATOM      9  H   UNL     1      44.096   5.865   9.512  0.00  0.00    +0.000 HD
BRANCH   2  11
ATOM     10  N   UNL     1      48.417   2.448   6.131  0.00  0.00    +0.000 N 
ATOM     11  C   UNL     1      47.464   1.734   6.806  0.00  0.00    +0.000 C 
ATOM     12  O   UNL     1      47.426   0.512   6.750  0.00  0.00    +0.000 OA
ATOM     13  H   UNL     1      49.129   1.907   5.654  0.00  0.00    +0.000 HD
ATOM     14  H   UNL     1      48.636   3.409   6.351  0.00  0.00    +0.000 HD
ENDBRANCH   2  11
ENDBRANCH   1   6
BRANCH   1  15
ATOM     15  C   UNL     1      43.921   5.535  12.123  0.00  0.00    +0.000 C 
ATOM     16  F   UNL     1      44.235   6.728  11.535  0.00  0.00    +0.000 F 
ATOM     17  F   UNL     1      42.947   5.827  13.033  0.00  0.00    +0.000 F 
BRANCH  15  18
ATOM     18  C   UNL     1      45.119   4.895  12.784  0.00  0.00    +0.000 A 
ATOM     19  C   UNL     1      45.338   3.526  12.681  0.00  0.00    +0.000 A 
ATOM     20  N   UNL     1      46.352   2.880  13.298  0.00  0.00    +0.000 NA
ATOM     21  C   UNL     1      47.195   3.634  14.043  0.00  0.00    +0.000 A 
ATOM     22  C   UNL     1      47.081   5.009  14.194  0.00  0.00    +0.000 A 
ATOM     23  C   UNL     1      46.019   5.644  13.559  0.00  0.00    +0.000 A 
BRANCH  22  24
ATOM     24  O   UNL     1      47.991   5.631  15.006  0.00  0.00    +0.000 OA
BRANCH  24  25
ATOM     25  C   UNL     1      48.225   5.066  16.312  0.00  0.00    +0.000 C 
ATOM     26  C   UNL     1      48.433   6.087  17.441  0.00  0.00    +0.000 C 
ATOM     27  C   UNL     1      49.621   5.209  17.815  0.00  0.00    +0.000 C 
ATOM     28  O   UNL     1      49.573   4.551  16.524  0.00  0.00    +0.000 OA
ENDBRANCH  24  25
ENDBRANCH  22  24
ENDBRANCH  15  18
ENDBRANCH   1  15
TORSDOF 6
ENDMDL
MODEL 4
REMARK VINA RESULT:    -8.859      1.931      3.085
REMARK INTER + INTRA:         -12.810
REMARK INTER:                 -11.855
REMARK INTRA:                  -0.955
REMARK UNBOUND:                -0.843
REMARK  Name = 
REMARK  6 active torsions:
REMARK  status: ('A' for Active; 'I' for Inactive)
REMARK    1  A    between atoms: C_2  and  C_4
REMARK    2  A    between atoms: N_8  and  C_9
REMARK    3  A    between atoms: C_9  and  C_10
REMARK    4  A    between atoms: C_10  and  C_13
REMARK    5  A    between atoms: C_17  and  O_18
REMARK    6  A    between atoms: O_18  and  C_19
REMARK                            x       y       z     vdW  Elec       q    Type
REMARK                         _______ _______ _______ _____ _____    ______ ____
ROOT
ATOM      1  C   UNL     1      43.193   4.503  11.068  0.00  0.00    +0.000 C 
ENDROOT
BRANCH   1   6
ATOM      2  C   UNL     1      46.470   2.513   7.706  0.00  0.00    +0.000 A 
ATOM      3  C   UNL     1      45.604   1.876   8.586  0.00  0.00    +0.000 A 
ATOM      4  C   UNL     1      44.670   2.635   9.291  0.00  0.00    +0.000 A 
ATOM      5  C   UNL     1      44.626   4.016   9.120  0.00  0.00    +0.000 A 
ATOM      6  N   UNL     1      43.671   4.819   9.717  0.00  0.00    +0.000 N 
ATOM      7  N   UNL     1      45.484   4.647   8.294  0.00  0.00    +0.000 NA
ATOM      8  C   UNL     1      46.386   3.893   7.611  0.00  0.00    +0.000 A 
ATOM      9  H   UNL     1      43.917   5.794   9.547  0.00  0.00    +0.000 HD
BRANCH   2  11
ATOM     10  N   UNL     1      48.548   2.482   6.446  0.00  0.00    +0.000 N 
ATOM     11  C   UNL     1      47.456   1.781   6.884  0.00  0.00    +0.000 C 
ATOM     12  O   UNL     1      47.322   0.590   6.634  0.00  0.00    +0.000 OA
ATOM     13  H   UNL     1      49.268   1.944   5.979  0.00  0.00    +0.000 HD
ATOM     14  H   UNL     1      48.816   3.373   6.837  0.00  0.00    +0.000 HD
ENDBRANCH   2  11
ENDBRANCH   1   6
BRANCH   1  15
ATOM     15  C   UNL     1      43.580   5.571  12.128  0.00  0.00    +0.000 C 
ATOM     16  F   UNL     1      43.493   6.803  11.544  0.00  0.00    +0.000 F 
ATOM     17  F   UNL     1      42.644   5.576  13.122  0.00  0.00    +0.000 F 
BRANCH  15  18
ATOM     18  C   UNL     1      44.961   5.297  12.673  0.00  0.00    +0.000 A 
ATOM     19  C   UNL     1      45.340   4.008  13.030  0.00  0.00    +0.000 A 
ATOM     20  N   UNL     1      46.534   3.701  13.581  0.00  0.00    +0.000 NA
ATOM     21  C   UNL     1      47.400   4.726  13.775  0.00  0.00    +0.000 A 
ATOM     22  C   UNL     1      47.132   6.044  13.434  0.00  0.00    +0.000 A 
ATOM     23  C   UNL     1      45.888   6.330  12.882  0.00  0.00    +0.000 A 
BRANCH  22  24
ATOM     24  O   UNL     1      48.094   6.976  13.721  0.00  0.00    +0.000 OA
BRANCH  24  25
ATOM     25  C   UNL     1      49.213   7.089  12.818  0.00  0.00    +0.000 C 
ATOM     26  C   UNL     1      50.163   8.263  13.095  0.00  0.00    +0.000 C 
ATOM     27  C   UNL     1      50.055   8.511  11.595  0.00  0.00    +0.000 C 
ATOM     28  O   UNL     1      48.890   7.653  11.512  0.00  0.00    +0.000 OA
ENDBRANCH  24  25
ENDBRANCH  22  24
ENDBRANCH  15  18
ENDBRANCH   1  15
TORSDOF 6
ENDMDL
MODEL 5
REMARK VINA RESULT:    -8.448      2.093      2.420
REMARK INTER + INTRA:         -12.253
REMARK INTER:                 -11.381
REMARK INTRA:                  -0.872
REMARK UNBOUND:                -0.843
REMARK  Name = 
REMARK  6 active torsions:
REMARK  status: ('A' for Active; 'I' for Inactive)
REMARK    1  A    between atoms: C_2  and  C_4
REMARK    2  A    between atoms: N_8  and  C_9
REMARK    3  A    between atoms: C_9  and  C_10
REMARK    4  A    between atoms: C_10  and  C_13
REMARK    5  A    between atoms: C_17  and  O_18
REMARK    6  A    between atoms: O_18  and  C_19
REMARK                            x       y       z     vdW  Elec       q    Type
REMARK                         _______ _______ _______ _____ _____    ______ ____
ROOT
ATOM      1  C   UNL     1      43.197   3.925  11.186  0.00  0.00    +0.000 C 
ENDROOT
BRANCH   1   6
ATOM      2  C   UNL     1      46.439   2.901   7.386  0.00  0.00    +0.000 A 
ATOM      3  C   UNL     1      46.036   4.126   7.903  0.00  0.00    +0.000 A 
ATOM      4  C   UNL     1      45.268   4.152   9.067  0.00  0.00    +0.000 A 
ATOM      5  C   UNL     1      44.901   2.960   9.686  0.00  0.00    +0.000 A 
ATOM      6  N   UNL     1      44.219   2.914  10.887  0.00  0.00    +0.000 N 
ATOM      7  N   UNL     1      45.259   1.767   9.173  0.00  0.00    +0.000 NA
ATOM      8  C   UNL     1      46.012   1.757   8.039  0.00  0.00    +0.000 A 
ATOM      9  H   UNL     1      43.956   1.946  11.073  0.00  0.00    +0.000 HD
BRANCH   2  11
ATOM     10  N   UNL     1      48.622   2.514   6.389  0.00  0.00    +0.000 N 
ATOM     11  C   UNL     1      47.294   2.783   6.186  0.00  0.00    +0.000 C 
ATOM     12  O   UNL     1      46.831   2.886   5.058  0.00  0.00    +0.000 OA
ATOM     13  H   UNL     1      49.173   2.327   5.559  0.00  0.00    +0.000 HD
ATOM     14  H   UNL     1      48.981   2.176   7.269  0.00  0.00    +0.000 HD
ENDBRANCH   2  11
ENDBRANCH   1   6
BRANCH   1  15
ATOM     15  C   UNL     1      43.393   4.614  12.564  0.00  0.00    +0.000 C 
ATOM     16  F   UNL     1      42.272   5.344  12.841  0.00  0.00    +0.000 F 
ATOM     17  F   UNL     1      43.452   3.660  13.539  0.00  0.00    +0.000 F 
BRANCH  15  18
ATOM     18  C   UNL     1      44.639   5.469  12.554  0.00  0.00    +0.000 A 
ATOM     19  C   UNL     1      44.701   6.622  11.781  0.00  0.00    +0.000 A 
ATOM     20  N   UNL     1      45.802   7.398  11.677  0.00  0.00    +0.000 NA
ATOM     21  C   UNL     1      46.891   7.013  12.386  0.00  0.00    +0.000 A 
ATOM     22  C   UNL     1      46.929   5.895  13.207  0.00  0.00    +0.000 A 
ATOM     23  C   UNL     1      45.784   5.108  13.282  0.00  0.00    +0.000 A 
BRANCH  22  24
ATOM     24  O   UNL     1      48.112   5.616  13.837  0.00  0.00    +0.000 OA
BRANCH  24  25
ATOM     25  C   UNL     1      48.551   6.517  14.874  0.00  0.00    +0.000 C 
ATOM     26  C   UNL     1      49.788   7.361  14.529  0.00  0.00    +0.000 C 
ATOM     27  C   UNL     1      50.279   6.935  15.908  0.00  0.00    +0.000 C 
ATOM     28  O   UNL     1      49.283   5.883  15.965  0.00  0.00    +0.000 OA
ENDBRANCH  24  25
ENDBRANCH  22  24
ENDBRANCH  15  18
ENDBRANCH   1  15
TORSDOF 6
ENDMDL
MODEL 6
REMARK VINA RESULT:    -8.201      3.032      4.688
REMARK INTER + INTRA:         -11.921
REMARK INTER:                 -11.344
REMARK INTRA:                  -0.577
REMARK UNBOUND:                -0.843
REMARK  Name = 
REMARK  6 active torsions:
REMARK  status: ('A' for Active; 'I' for Inactive)
REMARK    1  A    between atoms: C_2  and  C_4
REMARK    2  A    between atoms: N_8  and  C_9
REMARK    3  A    between atoms: C_9  and  C_10
REMARK    4  A    between atoms: C_10  and  C_13
REMARK    5  A    between atoms: C_17  and  O_18
REMARK    6  A    between atoms: O_18  and  C_19
REMARK                            x       y       z     vdW  Elec       q    Type
REMARK                         _______ _______ _______ _____ _____    ______ ____
ROOT
ATOM      1  C   UNL     1      43.257   4.629  11.078  0.00  0.00    +0.000 C 
ENDROOT
BRANCH   1   6
ATOM      2  C   UNL     1      46.493   2.550   7.730  0.00  0.00    +0.000 A 
ATOM      3  C   UNL     1      45.483   1.955   8.476  0.00  0.00    +0.000 A 
ATOM      4  C   UNL     1      44.607   2.763   9.200  0.00  0.00    +0.000 A 
ATOM      5  C   UNL     1      44.761   4.147   9.183  0.00  0.00    +0.000 A 
ATOM      6  N   UNL     1      43.878   5.011   9.804  0.00  0.00    +0.000 N 
ATOM      7  N   UNL     1      45.758   4.731   8.489  0.00  0.00    +0.000 NA
ATOM      8  C   UNL     1      46.602   3.930   7.784  0.00  0.00    +0.000 A 
ATOM      9  H   UNL     1      44.265   5.954   9.760  0.00  0.00    +0.000 HD
BRANCH   2  11
ATOM     10  N   UNL     1      48.516   2.441   6.387  0.00  0.00    +0.000 N 
ATOM     11  C   UNL     1      47.434   1.773   6.896  0.00  0.00    +0.000 C 
ATOM     12  O   UNL     1      47.273   0.577   6.696  0.00  0.00    +0.000 OA
ATOM     13  H   UNL     1      49.209   1.875   5.911  0.00  0.00    +0.000 HD
ATOM     14  H   UNL     1      48.812   3.342   6.734  0.00  0.00    +0.000 HD
ENDBRANCH   2  11
ENDBRANCH   1   6
BRANCH   1  15
ATOM     15  C   UNL     1      44.242   4.656  12.279  0.00  0.00    +0.000 C 
ATOM     16  F   UNL     1      43.510   4.683  13.432  0.00  0.00    +0.000 F 
ATOM     17  F   UNL     1      44.933   3.479  12.319  0.00  0.00    +0.000 F 
BRANCH  15  18
ATOM     18  C   UNL     1      45.176   5.838  12.170  0.00  0.00    +0.000 A 
ATOM     19  C   UNL     1      46.538   5.689  12.404  0.00  0.00    +0.000 A 
ATOM     20  N   UNL     1      47.419   6.713  12.384  0.00  0.00    +0.000 NA
ATOM     21  C   UNL     1      46.922   7.943  12.107  0.00  0.00    +0.000 A 
ATOM     22  C   UNL     1      45.585   8.198  11.836  0.00  0.00    +0.000 A 
ATOM     23  C   UNL     1      44.700   7.126  11.877  0.00  0.00    +0.000 A 
BRANCH  22  24
ATOM     24  O   UNL     1      45.228   9.500  11.604  0.00  0.00    +0.000 OA
BRANCH  24  25
ATOM     25  C   UNL     1      43.853   9.769  11.261  0.00  0.00    +0.000 C 
ATOM     26  C   UNL     1      43.641  10.503   9.928  0.00  0.00    +0.000 C 
ATOM     27  C   UNL     1      42.696  11.385  10.733  0.00  0.00    +0.000 C 
ATOM     28  O   UNL     1      43.253  10.890  11.977  0.00  0.00    +0.000 OA
ENDBRANCH  24  25
ENDBRANCH  22  24
ENDBRANCH  15  18
ENDBRANCH   1  15
TORSDOF 6
ENDMDL
MODEL 7
REMARK VINA RESULT:    -7.764      2.761      8.168
REMARK INTER + INTRA:         -11.329
REMARK INTER:                 -10.785
REMARK INTRA:                  -0.544
REMARK UNBOUND:                -0.843
REMARK  Name = 
REMARK  6 active torsions:
REMARK  status: ('A' for Active; 'I' for Inactive)
REMARK    1  A    between atoms: C_2  and  C_4
REMARK    2  A    between atoms: N_8  and  C_9
REMARK    3  A    between atoms: C_9  and  C_10
REMARK    4  A    between atoms: C_10  and  C_13
REMARK    5  A    between atoms: C_17  and  O_18
REMARK    6  A    between atoms: O_18  and  C_19
REMARK                            x       y       z     vdW  Elec       q    Type
REMARK                         _______ _______ _______ _____ _____    ______ ____
ROOT
ATOM      1  C   UNL     1      46.764   4.996  13.134  0.00  0.00    +0.000 C 
ENDROOT
BRANCH   1   6
ATOM      2  C   UNL     1      48.546   4.357  17.868  0.00  0.00    +0.000 A 
ATOM      3  C   UNL     1      48.656   5.450  17.018  0.00  0.00    +0.000 A 
ATOM      4  C   UNL     1      47.932   5.460  15.826  0.00  0.00    +0.000 A 
ATOM      5  C   UNL     1      47.124   4.376  15.494  0.00  0.00    +0.000 A 
ATOM      6  N   UNL     1      46.312   4.356  14.375  0.00  0.00    +0.000 N 
ATOM      7  N   UNL     1      47.037   3.297  16.296  0.00  0.00    +0.000 NA
ATOM      8  C   UNL     1      47.746   3.303  17.457  0.00  0.00    +0.000 A 
ATOM      9  H   UNL     1      45.919   3.420  14.278  0.00  0.00    +0.000 HD
BRANCH   2  11
ATOM     10  N   UNL     1      48.580   3.661  20.197  0.00  0.00    +0.000 N 
ATOM     11  C   UNL     1      49.240   4.285  19.172  0.00  0.00    +0.000 C 
ATOM     12  O   UNL     1      50.368   4.733  19.321  0.00  0.00    +0.000 OA
ATOM     13  H   UNL     1      49.108   3.521  21.050  0.00  0.00    +0.000 HD
ATOM     14  H   UNL     1      47.777   3.067  20.046  0.00  0.00    +0.000 HD
ENDBRANCH   2  11
ENDBRANCH   1   6
BRANCH   1  15
ATOM     15  C   UNL     1      45.618   5.681  12.338  0.00  0.00    +0.000 C 
ATOM     16  F   UNL     1      44.628   6.017  13.218  0.00  0.00    +0.000 F 
ATOM     17  F   UNL     1      46.070   6.867  11.834  0.00  0.00    +0.000 F 
BRANCH  15  18
ATOM     18  C   UNL     1      45.120   4.770  11.241  0.00  0.00    +0.000 A 
ATOM     19  C   UNL     1      44.276   3.705  11.534  0.00  0.00    +0.000 A 
ATOM     20  N   UNL     1      43.842   2.816  10.614  0.00  0.00    +0.000 NA
ATOM     21  C   UNL     1      44.259   3.003   9.338  0.00  0.00    +0.000 A 
ATOM     22  C   UNL     1      45.082   4.046   8.934  0.00  0.00    +0.000 A 
ATOM     23  C   UNL     1      45.523   4.936   9.907  0.00  0.00    +0.000 A 
BRANCH  22  24
ATOM     24  O   UNL     1      45.445   4.085   7.614  0.00  0.00    +0.000 OA
BRANCH  24  25
ATOM     25  C   UNL     1      46.746   3.575   7.258  0.00  0.00    +0.000 C 
ATOM     26  C   UNL     1      46.896   3.123   5.798  0.00  0.00    +0.000 C 
ATOM     27  C   UNL     1      47.545   1.884   6.403  0.00  0.00    +0.000 C 
ATOM     28  O   UNL     1      47.013   2.214   7.711  0.00  0.00    +0.000 OA
ENDBRANCH  24  25
ENDBRANCH  22  24
ENDBRANCH  15  18
ENDBRANCH   1  15
TORSDOF 6
ENDMDL
MODEL 8
REMARK VINA RESULT:    -7.568      2.448      7.813
REMARK INTER + INTRA:         -11.065
REMARK INTER:                 -10.433
REMARK INTRA:                  -0.632
REMARK UNBOUND:                -0.843
REMARK  Name = 
REMARK  6 active torsions:
REMARK  status: ('A' for Active; 'I' for Inactive)
REMARK    1  A    between atoms: C_2  and  C_4
REMARK    2  A    between atoms: N_8  and  C_9
REMARK    3  A    between atoms: C_9  and  C_10
REMARK    4  A    between atoms: C_10  and  C_13
REMARK    5  A    between atoms: C_17  and  O_18
REMARK    6  A    between atoms: O_18  and  C_19
REMARK                            x       y       z     vdW  Elec       q    Type
REMARK                         _______ _______ _______ _____ _____    ______ ____
ROOT
ATOM      1  C   UNL     1      45.885   6.103  13.102  0.00  0.00    +0.000 C 
ENDROOT
BRANCH   1   6
ATOM      2  C   UNL     1      48.601   4.331  17.037  0.00  0.00    +0.000 A 
ATOM      3  C   UNL     1      47.608   3.708  16.291  0.00  0.00    +0.000 A 
ATOM      4  C   UNL     1      47.127   4.335  15.142  0.00  0.00    +0.000 A 
ATOM      5  C   UNL     1      47.629   5.578  14.766  0.00  0.00    +0.000 A 
ATOM      6  N   UNL     1      47.264   6.215  13.594  0.00  0.00    +0.000 N 
ATOM      7  N   UNL     1      48.568   6.205  15.501  0.00  0.00    +0.000 NA
ATOM      8  C   UNL     1      49.031   5.579  16.617  0.00  0.00    +0.000 A 
ATOM      9  H   UNL     1      47.661   7.154  13.599  0.00  0.00    +0.000 HD
BRANCH   2  11
ATOM     10  N   UNL     1      48.342   3.265  19.206  0.00  0.00    +0.000 N 
ATOM     11  C   UNL     1      49.202   3.716  18.240  0.00  0.00    +0.000 C 
ATOM     12  O   UNL     1      50.412   3.583  18.353  0.00  0.00    +0.000 OA
ATOM     13  H   UNL     1      48.759   2.748  19.971  0.00  0.00    +0.000 HD
ATOM     14  H   UNL     1      47.356   3.126  19.037  0.00  0.00    +0.000 HD
ENDBRANCH   2  11
ENDBRANCH   1   6
BRANCH   1  15
ATOM     15  C   UNL     1      45.737   6.442  11.593  0.00  0.00    +0.000 C 
ATOM     16  F   UNL     1      44.913   7.526  11.478  0.00  0.00    +0.000 F 
ATOM     17  F   UNL     1      46.944   6.854  11.106  0.00  0.00    +0.000 F 
BRANCH  15  18
ATOM     18  C   UNL     1      45.214   5.247  10.833  0.00  0.00    +0.000 A 
ATOM     19  C   UNL     1      44.462   4.271  11.476  0.00  0.00    +0.000 A 
ATOM     20  N   UNL     1      44.016   3.148  10.872  0.00  0.00    +0.000 NA
ATOM     21  C   UNL     1      44.324   2.994   9.562  0.00  0.00    +0.000 A 
ATOM     22  C   UNL     1      45.048   3.916   8.820  0.00  0.00    +0.000 A 
ATOM     23  C   UNL     1      45.506   5.056   9.472  0.00  0.00    +0.000 A 
BRANCH  22  24
ATOM     24  O   UNL     1      45.309   3.606   7.512  0.00  0.00    +0.000 OA
BRANCH  24  25
ATOM     25  C   UNL     1      46.683   3.393   7.131  0.00  0.00    +0.000 C 
ATOM     26  C   UNL     1      46.906   3.024   5.656  0.00  0.00    +0.000 C 
ATOM     27  C   UNL     1      47.811   1.935   6.219  0.00  0.00    +0.000 C 
ATOM     28  O   UNL     1      47.239   2.108   7.541  0.00  0.00    +0.000 OA
ENDBRANCH  24  25
ENDBRANCH  22  24
ENDBRANCH  15  18
ENDBRANCH   1  15
TORSDOF 6
ENDMDL
MODEL 9
REMARK VINA RESULT:    -7.140      3.568      7.049
REMARK INTER + INTRA:         -10.487
REMARK INTER:                  -9.602
REMARK INTRA:                  -0.885
REMARK UNBOUND:                -0.843
REMARK  Name = 
REMARK  6 active torsions:
REMARK  status: ('A' for Active; 'I' for Inactive)
REMARK    1  A    between atoms: C_2  and  C_4
REMARK    2  A    between atoms: N_8  and  C_9
REMARK    3  A    between atoms: C_9  and  C_10
REMARK    4  A    between atoms: C_10  and  C_13
REMARK    5  A    between atoms: C_17  and  O_18
REMARK    6  A    between atoms: O_18  and  C_19
REMARK                            x       y       z     vdW  Elec       q    Type
REMARK                         _______ _______ _______ _____ _____    ______ ____
ROOT
ATOM      1  C   UNL     1      44.498   5.775  12.792  0.00  0.00    +0.000 C 
ENDROOT
BRANCH   1   6
ATOM      2  C   UNL     1      48.843   8.413  12.385  0.00  0.00    +0.000 A 
ATOM      3  C   UNL     1      48.367   7.361  11.613  0.00  0.00    +0.000 A 
ATOM      4  C   UNL     1      47.062   6.910  11.808  0.00  0.00    +0.000 A 
ATOM      5  C   UNL     1      46.260   7.502  12.779  0.00  0.00    +0.000 A 
ATOM      6  N   UNL     1      44.931   7.167  12.967  0.00  0.00    +0.000 N 
ATOM      7  N   UNL     1      46.724   8.501  13.556  0.00  0.00    +0.000 NA
ATOM      8  C   UNL     1      47.997   8.933  13.351  0.00  0.00    +0.000 A 
ATOM      9  H   UNL     1      44.595   7.638  13.806  0.00  0.00    +0.000 HD
BRANCH   2  11
ATOM     10  N   UNL     1      50.979   8.447  11.225  0.00  0.00    +0.000 N 
ATOM     11  C   UNL     1      50.195   8.985  12.211  0.00  0.00    +0.000 C 
ATOM     12  O   UNL     1      50.586   9.922  12.893  0.00  0.00    +0.000 OA
ATOM     13  H   UNL     1      51.857   8.918  11.043  0.00  0.00    +0.000 HD
ATOM     14  H   UNL     1      50.605   7.862  10.491  0.00  0.00    +0.000 HD
ENDBRANCH   2  11
ENDBRANCH   1   6
BRANCH   1  15
ATOM     15  C   UNL     1      43.465   5.587  11.648  0.00  0.00    +0.000 C 
ATOM     16  F   UNL     1      42.262   5.261  12.208  0.00  0.00    +0.000 F 
ATOM     17  F   UNL     1      43.260   6.786  11.028  0.00  0.00    +0.000 F 
BRANCH  15  18
ATOM     18  C   UNL     1      43.941   4.537  10.674  0.00  0.00    +0.000 A 
ATOM     19  C   UNL     1      43.600   3.201  10.848  0.00  0.00    +0.000 A 
ATOM     20  N   UNL     1      44.041   2.203  10.052  0.00  0.00    +0.000 NA
ATOM     21  C   UNL     1      44.852   2.553   9.025  0.00  0.00    +0.000 A 
ATOM     22  C   UNL     1      45.236   3.858   8.747  0.00  0.00    +0.000 A 
ATOM     23  C   UNL     1      44.777   4.861   9.593  0.00  0.00    +0.000 A 
BRANCH  22  24
ATOM     24  O   UNL     1      46.087   4.052   7.692  0.00  0.00    +0.000 OA
BRANCH  24  25
ATOM     25  C   UNL     1      46.386   2.919   6.851  0.00  0.00    +0.000 C 
ATOM     26  C   UNL     1      47.818   2.376   6.968  0.00  0.00    +0.000 C 
ATOM     27  C   UNL     1      47.789   2.385   5.445  0.00  0.00    +0.000 C 
ATOM     28  O   UNL     1      46.621   3.244   5.448  0.00  0.00    +0.000 OA
ENDBRANCH  24  25
ENDBRANCH  22  24
ENDBRANCH  15  18
ENDBRANCH   1  15
TORSDOF 6
ENDMDL
