MODEL 1
REMARK VINA RESULT:    -9.662      0.000      0.000
REMARK INTER + INTRA:         -14.570
REMARK INTER:                 -13.334
REMARK INTRA:                  -1.237
REMARK UNBOUND:                -1.237
REMARK  Name = 
REMARK  7 active torsions:
REMARK  status: ('A' for Active; 'I' for Inactive)
REMARK    1  A    between atoms: C_2  and  C_20
REMARK    2  A    between atoms: N_3  and  C_4
REMARK    3  A    between atoms: C_4  and  C_5
REMARK    4  A    between atoms: C_7  and  C_8
REMARK    5  A    between atoms: C_8  and  N_9
REMARK    6  A    between atoms: N_9  and  C_10
REMARK    7  A    between atoms: C_13  and  O_14
REMARK                            x       y       z     vdW  Elec       q    Type
REMARK                         _______ _______ _______ _____ _____    ______ ____
ROOT
ATOM      1  C   UNL     1      45.143   6.270  12.283  0.00  0.00    +0.000 A 
ATOM      2  C   UNL     1      45.044   5.861  10.960  0.00  0.00    +0.000 A 
ATOM      3  C   UNL     1      44.055   4.937  10.627  0.00  0.00    +0.000 A 
ATOM      4  C   UNL     1      43.214   4.467  11.625  0.00  0.00    +0.000 A 
ATOM      5  C   UNL     1      43.370   4.947  12.914  0.00  0.00    +0.000 A 
ATOM      6  N   UNL     1      44.316   5.845  13.268  0.00  0.00    +0.000 NA
ENDROOT
BRANCH   1   7
ATOM      7  C   UNL     1      46.211   7.275  12.625  0.00  0.00    +0.000 C 
BRANCH   7  10
ATOM      8  O   UNL     1      48.766   6.278  12.899  0.00  0.00    +0.000 OA
ATOM      9  C   UNL     1      48.120   6.505  13.903  0.00  0.00    +0.000 C 
ATOM     10  N   UNL     1      46.825   6.979  13.889  0.00  0.00    +0.000 N 
ATOM     11  H   UNL     1      46.413   7.377  14.715  0.00  0.00    +0.000 HD
BRANCH   9  12
ATOM     12  C   UNL     1      48.624   6.266  15.249  0.00  0.00    +0.000 A 
ATOM     13  C   UNL     1      49.550   7.082  15.878  0.00  0.00    +0.000 A 
ATOM     14  S   UNL     1      49.885   6.585  17.478  0.00  0.00    +0.000 S 
ATOM     15  C   UNL     1      48.809   5.270  17.351  0.00  0.00    +0.000 A 
ATOM     16  N   UNL     1      48.616   4.400  18.377  0.00  0.00    +0.000 NA
ATOM     17  C   UNL     1      47.784   3.458  18.133  0.00  0.00    +0.000 A 
ATOM     18  N   UNL     1      47.092   3.300  16.950  0.00  0.00    +0.000 N 
ATOM     19  C   UNL     1      47.304   4.103  15.855  0.00  0.00    +0.000 A 
ATOM     20  O   UNL     1      46.799   3.815  14.783  0.00  0.00    +0.000 OA
ATOM     21  C   UNL     1      48.210   5.205  16.109  0.00  0.00    +0.000 A 
ATOM     22  H   UNL     1      46.474   2.512  16.820  0.00  0.00    +0.000 HD
ENDBRANCH   9  12
ENDBRANCH   7  10
ENDBRANCH   1   7
BRANCH   3  23
ATOM     23  C   UNL     1      44.071   4.339   9.258  0.00  0.00    +0.000 C 
BRANCH  23  24
ATOM     24  N   UNL     1      44.153   2.879   9.114  0.00  0.00    +0.000 NA
ATOM     25  H   UNL     1      43.234   2.549   8.805  0.00  0.00    +0.000 HD
BRANCH  24  26
ATOM     26  C   UNL     1      45.145   2.607   8.031  0.00  0.00    +0.000 C 
ATOM     27  C   UNL     1      46.040   3.804   7.589  0.00  0.00    +0.000 C 
ATOM     28  C   UNL     1      46.975   3.376   6.441  0.00  0.00    +0.000 C 
ATOM     29  C   UNL     1      47.824   2.154   6.796  0.00  0.00    +0.000 C 
ATOM     30  C   UNL     1      46.950   1.012   7.279  0.00  0.00    +0.000 C 
ATOM     31  C   UNL     1      46.067   1.446   8.433  0.00  0.00    +0.000 C 
BRANCH  29  32
ATOM     32  O   UNL     1      48.560   1.715   5.659  0.00  0.00    +0.000 OA
ATOM     33  H   UNL     1      47.951   1.669   4.901  0.00  0.00    +0.000 HD
ENDBRANCH  29  32
ENDBRANCH  24  26
ENDBRANCH  23  24
ENDBRANCH   3  23
TORSDOF 7
ENDMDL
MODEL 2
REMARK VINA RESULT:    -9.344      1.916      2.835
REMARK INTER + INTRA:         -14.131
REMARK INTER:                 -13.153
REMARK INTRA:                  -0.978
REMARK UNBOUND:                -1.237
REMARK  Name = 
REMARK  7 active torsions:
REMARK  status: ('A' for Active; 'I' for Inactive)
REMARK    1  A    between atoms: C_2  and  C_20
REMARK    2  A    between atoms: N_3  and  C_4
REMARK    3  A    between atoms: C_4  and  C_5
REMARK    4  A    between atoms: C_7  and  C_8
REMARK    5  A    between atoms: C_8  and  N_9
REMARK    6  A    between atoms: N_9  and  C_10
REMARK    7  A    between atoms: C_13  and  O_14
REMARK                            x       y       z     vdW  Elec       q    Type
REMARK                         _______ _______ _______ _____ _____    ______ ____
ROOT
ATOM      1  C   UNL     1      46.023   4.959  13.116  0.00  0.00    +0.000 A 
ATOM      2  C   UNL     1      45.297   4.338  12.109  0.00  0.00    +0.000 A 
ATOM      3  C   UNL     1      45.313   4.908  10.836  0.00  0.00    +0.000 A 
ATOM      4  C   UNL     1      46.050   6.064  10.630  0.00  0.00    +0.000 A 
ATOM      5  C   UNL     1      46.763   6.603  11.687  0.00  0.00    +0.000 A 
ATOM      6  N   UNL     1      46.771   6.073  12.931  0.00  0.00    +0.000 NA
ENDROOT
BRANCH   1   7
ATOM      7  C   UNL     1      46.003   4.327  14.482  0.00  0.00    +0.000 C 
BRANCH   7  10
ATOM      8  O   UNL     1      46.579   3.305  16.977  0.00  0.00    +0.000 OA
ATOM      9  C   UNL     1      47.373   4.068  16.464  0.00  0.00    +0.000 C 
ATOM     10  N   UNL     1      47.180   4.662  15.234  0.00  0.00    +0.000 N 
ATOM     11  H   UNL     1      47.945   5.087  14.741  0.00  0.00    +0.000 HD
BRANCH   9  12
ATOM     12  C   UNL     1      48.613   4.483  17.106  0.00  0.00    +0.000 A 
ATOM     13  C   UNL     1      48.806   5.734  17.666  0.00  0.00    +0.000 A 
ATOM     14  S   UNL     1      50.336   5.893  18.413  0.00  0.00    +0.000 S 
ATOM     15  C   UNL     1      50.765   4.299  17.990  0.00  0.00    +0.000 A 
ATOM     16  N   UNL     1      51.977   3.774  18.314  0.00  0.00    +0.000 NA
ATOM     17  C   UNL     1      52.159   2.568  17.924  0.00  0.00    +0.000 A 
ATOM     18  N   UNL     1      51.231   1.806  17.247  0.00  0.00    +0.000 N 
ATOM     19  C   UNL     1      50.023   2.309  16.828  0.00  0.00    +0.000 A 
ATOM     20  O   UNL     1      49.314   1.651  16.084  0.00  0.00    +0.000 OA
ATOM     21  C   UNL     1      49.765   3.659  17.287  0.00  0.00    +0.000 A 
ATOM     22  H   UNL     1      51.461   0.870  16.944  0.00  0.00    +0.000 HD
ENDBRANCH   9  12
ENDBRANCH   7  10
ENDBRANCH   1   7
BRANCH   3  23
ATOM     23  C   UNL     1      44.378   4.370   9.803  0.00  0.00    +0.000 C 
BRANCH  23  24
ATOM     24  N   UNL     1      44.362   2.926   9.532  0.00  0.00    +0.000 NA
ATOM     25  H   UNL     1      43.535   2.730   8.961  0.00  0.00    +0.000 HD
BRANCH  24  26
ATOM     26  C   UNL     1      45.581   2.625   8.723  0.00  0.00    +0.000 C 
ATOM     27  C   UNL     1      45.799   1.137   8.317  0.00  0.00    +0.000 C 
ATOM     28  C   UNL     1      47.114   0.985   7.528  0.00  0.00    +0.000 C 
ATOM     29  C   UNL     1      47.179   1.905   6.308  0.00  0.00    +0.000 C 
ATOM     30  C   UNL     1      46.910   3.345   6.703  0.00  0.00    +0.000 C 
ATOM     31  C   UNL     1      45.594   3.475   7.444  0.00  0.00    +0.000 C 
BRANCH  29  32
ATOM     32  O   UNL     1      48.465   1.832   5.700  0.00  0.00    +0.000 OA
ATOM     33  H   UNL     1      48.348   1.859   4.735  0.00  0.00    +0.000 HD
ENDBRANCH  29  32
ENDBRANCH  24  26
ENDBRANCH  23  24
ENDBRANCH   3  23
TORSDOF 7
ENDMDL
MODEL 3
REMARK VINA RESULT:    -8.965      1.663      2.586
REMARK INTER + INTRA:         -13.608
REMARK INTER:                 -12.449
REMARK INTRA:                  -1.160
REMARK UNBOUND:                -1.237
REMARK  Name = 
REMARK  7 active torsions:
REMARK  status: ('A' for Active; 'I' for Inactive)
REMARK    1  A    between atoms: C_2  and  C_20
REMARK    2  A    between atoms: N_3  and  C_4
REMARK    3  A    between atoms: C_4  and  C_5
REMARK    4  A    between atoms: C_7  and  C_8
REMARK    5  A    between atoms: C_8  and  N_9
REMARK    6  A    between atoms: N_9  and  C_10
REMARK    7  A    between atoms: C_13  and  O_14
REMARK                            x       y       z     vdW  Elec       q    Type
REMARK                         _______ _______ _______ _____ _____    ______ ____
ROOT
ATOM      1  C   UNL     1      45.356   4.205  12.933  0.00  0.00    +0.000 A 
ATOM      2  C   UNL     1      45.364   4.070  11.552  0.00  0.00    +0.000 A 
ATOM      3  C   UNL     1      44.239   4.483  10.841  0.00  0.00    +0.000 A 
ATOM      4  C   UNL     1      43.163   5.012  11.538  0.00  0.00    +0.000 A 
ATOM      5  C   UNL     1      43.249   5.131  12.915  0.00  0.00    +0.000 A 
ATOM      6  N   UNL     1      44.328   4.743  13.633  0.00  0.00    +0.000 NA
ENDROOT
BRANCH   1   7
ATOM      7  C   UNL     1      46.582   3.762  13.686  0.00  0.00    +0.000 C 
BRANCH   7  10
ATOM      8  O   UNL     1      48.162   2.981  15.805  0.00  0.00    +0.000 OA
ATOM      9  C   UNL     1      47.620   4.067  15.854  0.00  0.00    +0.000 C 
ATOM     10  N   UNL     1      46.787   4.552  14.867  0.00  0.00    +0.000 N 
ATOM     11  H   UNL     1      46.554   5.529  14.825  0.00  0.00    +0.000 HD
BRANCH   9  12
ATOM     12  C   UNL     1      47.753   4.976  16.984  0.00  0.00    +0.000 A 
ATOM     13  C   UNL     1      47.157   4.761  18.216  0.00  0.00    +0.000 A 
ATOM     14  S   UNL     1      47.562   5.963  19.362  0.00  0.00    +0.000 S 
ATOM     15  C   UNL     1      48.528   6.792  18.229  0.00  0.00    +0.000 A 
ATOM     16  N   UNL     1      49.177   7.944  18.546  0.00  0.00    +0.000 NA
ATOM     17  C   UNL     1      49.858   8.456  17.591  0.00  0.00    +0.000 A 
ATOM     18  N   UNL     1      49.980   7.916  16.328  0.00  0.00    +0.000 N 
ATOM     19  C   UNL     1      49.288   6.799  15.929  0.00  0.00    +0.000 A 
ATOM     20  O   UNL     1      49.294   6.465  14.756  0.00  0.00    +0.000 OA
ATOM     21  C   UNL     1      48.537   6.169  16.998  0.00  0.00    +0.000 A 
ATOM     22  H   UNL     1      50.512   8.397  15.615  0.00  0.00    +0.000 HD
ENDBRANCH   9  12
ENDBRANCH   7  10
ENDBRANCH   1   7
BRANCH   3  23
ATOM     23  C   UNL     1      44.155   4.155   9.386  0.00  0.00    +0.000 C 
BRANCH  23  24
ATOM     24  N   UNL     1      44.048   2.749   8.973  0.00  0.00    +0.000 NA
ATOM     25  H   UNL     1      43.130   2.627   8.536  0.00  0.00    +0.000 HD
BRANCH  24  26
ATOM     26  C   UNL     1      45.101   2.521   7.939  0.00  0.00    +0.000 C 
ATOM     27  C   UNL     1      45.963   3.756   7.537  0.00  0.00    +0.000 C 
ATOM     28  C   UNL     1      46.969   3.370   6.436  0.00  0.00    +0.000 C 
ATOM     29  C   UNL     1      47.853   2.186   6.833  0.00  0.00    +0.000 C 
ATOM     30  C   UNL     1      47.008   1.007   7.276  0.00  0.00    +0.000 C 
ATOM     31  C   UNL     1      46.053   1.401   8.386  0.00  0.00    +0.000 C 
BRANCH  29  32
ATOM     32  O   UNL     1      48.660   1.781   5.733  0.00  0.00    +0.000 OA
ATOM     33  H   UNL     1      48.073   1.537   4.997  0.00  0.00    +0.000 HD
ENDBRANCH  29  32
ENDBRANCH  24  26
ENDBRANCH  23  24
ENDBRANCH   3  23
TORSDOF 7
ENDMDL
MODEL 4
REMARK VINA RESULT:    -8.696      2.031      2.952
REMARK INTER + INTRA:         -13.236
REMARK INTER:                 -12.145
REMARK INTRA:                  -1.091
REMARK UNBOUND:                -1.237
REMARK  Name = 
REMARK  7 active torsions:
REMARK  status: ('A' for Active; 'I' for Inactive)
REMARK    1  A    between atoms: C_2  and  C_20
REMARK    2  A    between atoms: N_3  and  C_4
REMARK    3  A    between atoms: C_4  and  C_5
REMARK    4  A    between atoms: C_7  and  C_8
REMARK    5  A    between atoms: C_8  and  N_9
REMARK    6  A    between atoms: N_9  and  C_10
REMARK    7  A    between atoms: C_13  and  O_14
REMARK                            x       y       z     vdW  Elec       q    Type
REMARK                         _______ _______ _______ _____ _____    ______ ____
ROOT
ATOM      1  C   UNL     1      46.338   4.390  13.549  0.00  0.00    +0.000 A 
ATOM      2  C   UNL     1      45.656   3.755  12.520  0.00  0.00    +0.000 A 
ATOM      3  C   UNL     1      45.002   4.545  11.575  0.00  0.00    +0.000 A 
ATOM      4  C   UNL     1      45.061   5.924  11.700  0.00  0.00    +0.000 A 
ATOM      5  C   UNL     1      45.783   6.473  12.745  0.00  0.00    +0.000 A 
ATOM      6  N   UNL     1      46.431   5.735  13.675  0.00  0.00    +0.000 NA
ENDROOT
BRANCH   1   7
ATOM      7  C   UNL     1      47.045   3.524  14.556  0.00  0.00    +0.000 C 
BRANCH   7  10
ATOM      8  O   UNL     1      46.436   3.009  17.195  0.00  0.00    +0.000 OA
ATOM      9  C   UNL     1      47.186   3.931  16.941  0.00  0.00    +0.000 C 
ATOM     10  N   UNL     1      47.541   4.299  15.659  0.00  0.00    +0.000 N 
ATOM     11  H   UNL     1      48.333   4.895  15.495  0.00  0.00    +0.000 HD
BRANCH   9  12
ATOM     12  C   UNL     1      47.772   4.789  17.962  0.00  0.00    +0.000 A 
ATOM     13  C   UNL     1      47.072   5.787  18.620  0.00  0.00    +0.000 A 
ATOM     14  S   UNL     1      48.009   6.569  19.816  0.00  0.00    +0.000 S 
ATOM     15  C   UNL     1      49.364   5.596  19.465  0.00  0.00    +0.000 A 
ATOM     16  N   UNL     1      50.543   5.746  20.125  0.00  0.00    +0.000 NA
ATOM     17  C   UNL     1      51.472   4.949  19.748  0.00  0.00    +0.000 A 
ATOM     18  N   UNL     1      51.339   3.982  18.774  0.00  0.00    +0.000 N 
ATOM     19  C   UNL     1      50.197   3.838  18.024  0.00  0.00    +0.000 A 
ATOM     20  O   UNL     1      50.191   3.088  17.062  0.00  0.00    +0.000 OA
ATOM     21  C   UNL     1      49.110   4.696  18.451  0.00  0.00    +0.000 A 
ATOM     22  H   UNL     1      52.129   3.411  18.509  0.00  0.00    +0.000 HD
ENDBRANCH   9  12
ENDBRANCH   7  10
ENDBRANCH   1   7
BRANCH   3  23
ATOM     23  C   UNL     1      44.100   3.876  10.589  0.00  0.00    +0.000 C 
BRANCH  23  24
ATOM     24  N   UNL     1      43.981   4.431   9.234  0.00  0.00    +0.000 NA
ATOM     25  H   UNL     1      44.366   5.380   9.256  0.00  0.00    +0.000 HD
BRANCH  24  26
ATOM     26  C   UNL     1      44.838   3.590   8.346  0.00  0.00    +0.000 C 
ATOM     27  C   UNL     1      46.130   4.258   7.787  0.00  0.00    +0.000 C 
ATOM     28  C   UNL     1      46.879   3.281   6.860  0.00  0.00    +0.000 C 
ATOM     29  C   UNL     1      47.196   1.948   7.540  0.00  0.00    +0.000 C 
ATOM     30  C   UNL     1      45.943   1.332   8.130  0.00  0.00    +0.000 C 
ATOM     31  C   UNL     1      45.245   2.297   9.068  0.00  0.00    +0.000 C 
BRANCH  29  32
ATOM     32  O   UNL     1      47.755   1.035   6.601  0.00  0.00    +0.000 OA
ATOM     33  H   UNL     1      47.681   0.137   6.968  0.00  0.00    +0.000 HD
ENDBRANCH  29  32
ENDBRANCH  24  26
ENDBRANCH  23  24
ENDBRANCH   3  23
TORSDOF 7
ENDMDL
MODEL 5
REMARK VINA RESULT:    -8.393      3.015      4.370
REMARK INTER + INTRA:         -12.819
REMARK INTER:                 -11.352
REMARK INTRA:                  -1.467
REMARK UNBOUND:                -1.237
REMARK  Name = 
REMARK  7 active torsions:
REMARK  status: ('A' for Active; 'I' for Inactive)
REMARK    1  A    between atoms: C_2  and  C_20
REMARK    2  A    between atoms: N_3  and  C_4
REMARK    3  A    between atoms: C_4  and  C_5
REMARK    4  A    between atoms: C_7  and  C_8
REMARK    5  A    between atoms: C_8  and  N_9
REMARK    6  A    between atoms: N_9  and  C_10
REMARK    7  A    between atoms: C_13  and  O_14
REMARK                            x       y       z     vdW  Elec       q    Type
REMARK                         _______ _______ _______ _____ _____    ______ ____
ROOT
ATOM      1  C   UNL     1      45.038   5.864  12.215  0.00  0.00    +0.000 A 
ATOM      2  C   UNL     1      44.615   4.973  11.239  0.00  0.00    +0.000 A 
ATOM      3  C   UNL     1      44.891   3.618  11.417  0.00  0.00    +0.000 A 
ATOM      4  C   UNL     1      45.573   3.218  12.556  0.00  0.00    +0.000 A 
ATOM      5  C   UNL     1      45.938   4.173  13.489  0.00  0.00    +0.000 A 
ATOM      6  N   UNL     1      45.681   5.493  13.347  0.00  0.00    +0.000 NA
ENDROOT
BRANCH   1   7
ATOM      7  C   UNL     1      44.725   7.323  12.012  0.00  0.00    +0.000 C 
BRANCH   7  10
ATOM      8  O   UNL     1      46.175   8.991  13.658  0.00  0.00    +0.000 OA
ATOM      9  C   UNL     1      46.545   8.843  12.510  0.00  0.00    +0.000 C 
ATOM     10  N   UNL     1      45.885   8.056  11.589  0.00  0.00    +0.000 N 
ATOM     11  H   UNL     1      46.338   7.767  10.740  0.00  0.00    +0.000 HD
BRANCH   9  12
ATOM     12  C   UNL     1      47.712   9.513  11.953  0.00  0.00    +0.000 A 
ATOM     13  C   UNL     1      47.716  10.838  11.551  0.00  0.00    +0.000 A 
ATOM     14  S   UNL     1      49.253  11.358  11.013  0.00  0.00    +0.000 S 
ATOM     15  C   UNL     1      49.931   9.820  11.299  0.00  0.00    +0.000 A 
ATOM     16  N   UNL     1      51.238   9.553  11.037  0.00  0.00    +0.000 NA
ATOM     17  C   UNL     1      51.602   8.353  11.295  0.00  0.00    +0.000 A 
ATOM     18  N   UNL     1      50.784   7.374  11.820  0.00  0.00    +0.000 N 
ATOM     19  C   UNL     1      49.441   7.565  12.032  0.00  0.00    +0.000 A 
ATOM     20  O   UNL     1      48.731   6.619  12.331  0.00  0.00    +0.000 OA
ATOM     21  C   UNL     1      49.002   8.925  11.789  0.00  0.00    +0.000 A 
ATOM     22  H   UNL     1      51.137   6.439  11.968  0.00  0.00    +0.000 HD
ENDBRANCH   9  12
ENDBRANCH   7  10
ENDBRANCH   1   7
BRANCH   3  23
ATOM     23  C   UNL     1      44.624   2.682  10.284  0.00  0.00    +0.000 C 
BRANCH  23  24
ATOM     24  N   UNL     1      44.147   3.222   9.004  0.00  0.00    +0.000 NA
ATOM     25  H   UNL     1      44.135   4.242   9.086  0.00  0.00    +0.000 HD
BRANCH  24  26
ATOM     26  C   UNL     1      45.155   2.839   7.970  0.00  0.00    +0.000 C 
ATOM     27  C   UNL     1      46.132   3.959   7.501  0.00  0.00    +0.000 C 
ATOM     28  C   UNL     1      47.077   3.420   6.409  0.00  0.00    +0.000 C 
ATOM     29  C   UNL     1      47.841   2.172   6.853  0.00  0.00    +0.000 C 
ATOM     30  C   UNL     1      46.886   1.108   7.361  0.00  0.00    +0.000 C 
ATOM     31  C   UNL     1      45.994   1.649   8.461  0.00  0.00    +0.000 C 
BRANCH  29  32
ATOM     32  O   UNL     1      48.585   1.634   5.764  0.00  0.00    +0.000 OA
ATOM     33  H   UNL     1      47.960   1.367   5.069  0.00  0.00    +0.000 HD
ENDBRANCH  29  32
ENDBRANCH  24  26
ENDBRANCH  23  24
ENDBRANCH   3  23
TORSDOF 7
ENDMDL
MODEL 6
REMARK VINA RESULT:    -8.370      1.767      2.793
REMARK INTER + INTRA:         -12.787
REMARK INTER:                 -11.589
REMARK INTRA:                  -1.198
REMARK UNBOUND:                -1.237
REMARK  Name = 
REMARK  7 active torsions:
REMARK  status: ('A' for Active; 'I' for Inactive)
REMARK    1  A    between atoms: C_2  and  C_20
REMARK    2  A    between atoms: N_3  and  C_4
REMARK    3  A    between atoms: C_4  and  C_5
REMARK    4  A    between atoms: C_7  and  C_8
REMARK    5  A    between atoms: C_8  and  N_9
REMARK    6  A    between atoms: N_9  and  C_10
REMARK    7  A    between atoms: C_13  and  O_14
REMARK                            x       y       z     vdW  Elec       q    Type
REMARK                         _______ _______ _______ _____ _____    ______ ____
ROOT
ATOM      1  C   UNL     1      45.196   6.025  12.256  0.00  0.00    +0.000 A 
ATOM      2  C   UNL     1      45.395   5.072  11.267  0.00  0.00    +0.000 A 
ATOM      3  C   UNL     1      44.481   4.023  11.167  0.00  0.00    +0.000 A 
ATOM      4  C   UNL     1      43.417   3.976  12.054  0.00  0.00    +0.000 A 
ATOM      5  C   UNL     1      43.283   4.982  12.995  0.00  0.00    +0.000 A 
ATOM      6  N   UNL     1      44.149   6.014  13.115  0.00  0.00    +0.000 NA
ENDROOT
BRANCH   1   7
ATOM      7  C   UNL     1      46.186   7.155  12.345  0.00  0.00    +0.000 C 
BRANCH   7  10
ATOM      8  O   UNL     1      48.670   6.152  12.992  0.00  0.00    +0.000 OA
ATOM      9  C   UNL     1      48.032   6.722  13.854  0.00  0.00    +0.000 C 
ATOM     10  N   UNL     1      46.769   7.241  13.655  0.00  0.00    +0.000 N 
ATOM     11  H   UNL     1      46.376   7.903  14.301  0.00  0.00    +0.000 HD
BRANCH   9  12
ATOM     12  C   UNL     1      48.507   6.893  15.220  0.00  0.00    +0.000 A 
ATOM     13  C   UNL     1      48.654   5.849  16.118  0.00  0.00    +0.000 A 
ATOM     14  S   UNL     1      49.305   6.354  17.616  0.00  0.00    +0.000 S 
ATOM     15  C   UNL     1      49.390   7.974  17.091  0.00  0.00    +0.000 A 
ATOM     16  N   UNL     1      49.851   8.965  17.899  0.00  0.00    +0.000 NA
ATOM     17  C   UNL     1      49.850  10.131  17.371  0.00  0.00    +0.000 A 
ATOM     18  N   UNL     1      49.446  10.416  16.083  0.00  0.00    +0.000 N 
ATOM     19  C   UNL     1      48.901   9.469  15.251  0.00  0.00    +0.000 A 
ATOM     20  O   UNL     1      48.400   9.806  14.190  0.00  0.00    +0.000 OA
ATOM     21  C   UNL     1      48.925   8.129  15.802  0.00  0.00    +0.000 A 
ATOM     22  H   UNL     1      49.444  11.369  15.747  0.00  0.00    +0.000 HD
ENDBRANCH   9  12
ENDBRANCH   7  10
ENDBRANCH   1   7
BRANCH   3  23
ATOM     23  C   UNL     1      44.797   2.889  10.248  0.00  0.00    +0.000 C 
BRANCH  23  24
ATOM     24  N   UNL     1      44.094   2.791   8.961  0.00  0.00    +0.000 NA
ATOM     25  H   UNL     1      43.657   3.699   8.780  0.00  0.00    +0.000 HD
BRANCH  24  26
ATOM     26  C   UNL     1      45.135   2.548   7.918  0.00  0.00    +0.000 C 
ATOM     27  C   UNL     1      45.974   3.782   7.468  0.00  0.00    +0.000 C 
ATOM     28  C   UNL     1      46.969   3.378   6.364  0.00  0.00    +0.000 C 
ATOM     29  C   UNL     1      47.875   2.218   6.781  0.00  0.00    +0.000 C 
ATOM     30  C   UNL     1      47.053   1.041   7.270  0.00  0.00    +0.000 C 
ATOM     31  C   UNL     1      46.109   1.454   8.383  0.00  0.00    +0.000 C 
BRANCH  29  32
ATOM     32  O   UNL     1      48.672   1.791   5.681  0.00  0.00    +0.000 OA
ATOM     33  H   UNL     1      49.390   1.231   6.023  0.00  0.00    +0.000 HD
ENDBRANCH  29  32
ENDBRANCH  24  26
ENDBRANCH  23  24
ENDBRANCH   3  23
TORSDOF 7
ENDMDL
MODEL 7
REMARK VINA RESULT:    -8.078      2.094      2.852
REMARK INTER + INTRA:         -12.384
REMARK INTER:                 -11.303
REMARK INTRA:                  -1.081
REMARK UNBOUND:                -1.237
REMARK  Name = 
REMARK  7 active torsions:
REMARK  status: ('A' for Active; 'I' for Inactive)
REMARK    1  A    between atoms: C_2  and  C_20
REMARK    2  A    between atoms: N_3  and  C_4
REMARK    3  A    between atoms: C_4  and  C_5
REMARK    4  A    between atoms: C_7  and  C_8
REMARK    5  A    between atoms: C_8  and  N_9
REMARK    6  A    between atoms: N_9  and  C_10
REMARK    7  A    between atoms: C_13  and  O_14
REMARK                            x       y       z     vdW  Elec       q    Type
REMARK                         _______ _______ _______ _____ _____    ______ ____
ROOT
ATOM      1  C   UNL     1      46.382   4.874  13.582  0.00  0.00    +0.000 A 
ATOM      2  C   UNL     1      45.630   4.082  12.726  0.00  0.00    +0.000 A 
ATOM      3  C   UNL     1      45.281   4.602  11.480  0.00  0.00    +0.000 A 
ATOM      4  C   UNL     1      45.698   5.883  11.149  0.00  0.00    +0.000 A 
ATOM      5  C   UNL     1      46.464   6.594  12.055  0.00  0.00    +0.000 A 
ATOM      6  N   UNL     1      46.822   6.116  13.269  0.00  0.00    +0.000 NA
ENDROOT
BRANCH   1   7
ATOM      7  C   UNL     1      46.758   4.296  14.920  0.00  0.00    +0.000 C 
BRANCH   7  10
ATOM      8  O   UNL     1      48.819   3.526  16.580  0.00  0.00    +0.000 OA
ATOM      9  C   UNL     1      48.579   4.711  16.463  0.00  0.00    +0.000 C 
ATOM     10  N   UNL     1      47.557   5.212  15.683  0.00  0.00    +0.000 N 
ATOM     11  H   UNL     1      47.537   6.182  15.421  0.00  0.00    +0.000 HD
BRANCH   9  12
ATOM     12  C   UNL     1      49.320   5.750  17.166  0.00  0.00    +0.000 A 
ATOM     13  C   UNL     1      50.597   6.153  16.815  0.00  0.00    +0.000 A 
ATOM     14  S   UNL     1      51.169   7.443  17.779  0.00  0.00    +0.000 S 
ATOM     15  C   UNL     1      49.725   7.475  18.685  0.00  0.00    +0.000 A 
ATOM     16  N   UNL     1      49.540   8.351  19.708  0.00  0.00    +0.000 NA
ATOM     17  C   UNL     1      48.410   8.252  20.300  0.00  0.00    +0.000 A 
ATOM     18  N   UNL     1      47.412   7.363  19.958  0.00  0.00    +0.000 N 
ATOM     19  C   UNL     1      47.573   6.407  18.985  0.00  0.00    +0.000 A 
ATOM     20  O   UNL     1      46.730   5.536  18.841  0.00  0.00    +0.000 OA
ATOM     21  C   UNL     1      48.827   6.515  18.265  0.00  0.00    +0.000 A 
ATOM     22  H   UNL     1      46.557   7.323  20.494  0.00  0.00    +0.000 HD
ENDBRANCH   9  12
ENDBRANCH   7  10
ENDBRANCH   1   7
BRANCH   3  23
ATOM     23  C   UNL     1      44.306   3.845  10.639  0.00  0.00    +0.000 C 
BRANCH  23  24
ATOM     24  N   UNL     1      44.014   4.314   9.278  0.00  0.00    +0.000 NA
ATOM     25  H   UNL     1      44.308   5.294   9.222  0.00  0.00    +0.000 HD
BRANCH  24  26
ATOM     26  C   UNL     1      44.865   3.509   8.352  0.00  0.00    +0.000 C 
ATOM     27  C   UNL     1      46.093   4.233   7.724  0.00  0.00    +0.000 C 
ATOM     28  C   UNL     1      46.839   3.286   6.765  0.00  0.00    +0.000 C 
ATOM     29  C   UNL     1      47.255   1.976   7.434  0.00  0.00    +0.000 C 
ATOM     30  C   UNL     1      46.064   1.304   8.091  0.00  0.00    +0.000 C 
ATOM     31  C   UNL     1      45.369   2.241   9.059  0.00  0.00    +0.000 C 
BRANCH  29  32
ATOM     32  O   UNL     1      47.809   1.083   6.473  0.00  0.00    +0.000 OA
ATOM     33  H   UNL     1      47.956   0.223   6.904  0.00  0.00    +0.000 HD
ENDBRANCH  29  32
ENDBRANCH  24  26
ENDBRANCH  23  24
ENDBRANCH   3  23
TORSDOF 7
ENDMDL
MODEL 8
REMARK VINA RESULT:    -8.018      2.280      3.827
REMARK INTER + INTRA:         -12.301
REMARK INTER:                 -11.227
REMARK INTRA:                  -1.074
REMARK UNBOUND:                -1.237
REMARK  Name = 
REMARK  7 active torsions:
REMARK  status: ('A' for Active; 'I' for Inactive)
REMARK    1  A    between atoms: C_2  and  C_20
REMARK    2  A    between atoms: N_3  and  C_4
REMARK    3  A    between atoms: C_4  and  C_5
REMARK    4  A    between atoms: C_7  and  C_8
REMARK    5  A    between atoms: C_8  and  N_9
REMARK    6  A    between atoms: N_9  and  C_10
REMARK    7  A    between atoms: C_13  and  O_14
REMARK                            x       y       z     vdW  Elec       q    Type
REMARK                         _______ _______ _______ _____ _____    ______ ____
ROOT
ATOM      1  C   UNL     1      45.492   4.723  13.160  0.00  0.00    +0.000 A 
ATOM      2  C   UNL     1      45.560   4.020  11.965  0.00  0.00    +0.000 A 
ATOM      3  C   UNL     1      44.385   3.839  11.237  0.00  0.00    +0.000 A 
ATOM      4  C   UNL     1      43.203   4.366  11.734  0.00  0.00    +0.000 A 
ATOM      5  C   UNL     1      43.230   5.073  12.923  0.00  0.00    +0.000 A 
ATOM      6  N   UNL     1      44.354   5.269  13.650  0.00  0.00    +0.000 NA
ENDROOT
BRANCH   1   7
ATOM      7  C   UNL     1      46.771   4.917  13.930  0.00  0.00    +0.000 C 
BRANCH   7  10
ATOM      8  O   UNL     1      49.014   5.853  15.229  0.00  0.00    +0.000 OA
ATOM      9  C   UNL     1      48.290   6.653  14.672  0.00  0.00    +0.000 C 
ATOM     10  N   UNL     1      47.128   6.305  14.014  0.00  0.00    +0.000 N 
ATOM     11  H   UNL     1      46.689   6.942  13.372  0.00  0.00    +0.000 HD
BRANCH   9  12
ATOM     12  C   UNL     1      48.539   8.089  14.664  0.00  0.00    +0.000 A 
ATOM     13  C   UNL     1      48.600   8.862  15.811  0.00  0.00    +0.000 A 
ATOM     14  S   UNL     1      48.984  10.495  15.484  0.00  0.00    +0.000 S 
ATOM     15  C   UNL     1      49.064  10.195  13.809  0.00  0.00    +0.000 A 
ATOM     16  N   UNL     1      49.343  11.182  12.917  0.00  0.00    +0.000 NA
ATOM     17  C   UNL     1      49.362  10.808  11.692  0.00  0.00    +0.000 A 
ATOM     18  N   UNL     1      49.148   9.518  11.255  0.00  0.00    +0.000 N 
ATOM     19  C   UNL     1      48.788   8.499  12.103  0.00  0.00    +0.000 A 
ATOM     20  O   UNL     1      48.440   7.422  11.648  0.00  0.00    +0.000 OA
ATOM     21  C   UNL     1      48.796   8.877  13.503  0.00  0.00    +0.000 A 
ATOM     22  H   UNL     1      49.148   9.305  10.268  0.00  0.00    +0.000 HD
ENDBRANCH   9  12
ENDBRANCH   7  10
ENDBRANCH   1   7
BRANCH   3  23
ATOM     23  C   UNL     1      44.409   2.916  10.063  0.00  0.00    +0.000 C 
BRANCH  23  24
ATOM     24  N   UNL     1      44.053   3.433   8.735  0.00  0.00    +0.000 NA
ATOM     25  H   UNL     1      44.105   4.455   8.780  0.00  0.00    +0.000 HD
BRANCH  24  26
ATOM     26  C   UNL     1      45.097   2.944   7.786  0.00  0.00    +0.000 C 
ATOM     27  C   UNL     1      46.113   4.002   7.260  0.00  0.00    +0.000 C 
ATOM     28  C   UNL     1      47.093   3.354   6.264  0.00  0.00    +0.000 C 
ATOM     29  C   UNL     1      47.816   2.141   6.853  0.00  0.00    +0.000 C 
ATOM     30  C   UNL     1      46.822   1.141   7.413  0.00  0.00    +0.000 C 
ATOM     31  C   UNL     1      45.894   1.793   8.419  0.00  0.00    +0.000 C 
BRANCH  29  32
ATOM     32  O   UNL     1      48.596   1.496   5.852  0.00  0.00    +0.000 OA
ATOM     33  H   UNL     1      49.260   0.938   6.294  0.00  0.00    +0.000 HD
ENDBRANCH  29  32
ENDBRANCH  24  26
ENDBRANCH  23  24
ENDBRANCH   3  23
TORSDOF 7
ENDMDL
MODEL 9
REMARK VINA RESULT:    -7.872      2.341      3.007
REMARK INTER + INTRA:         -12.099
REMARK INTER:                 -11.009
REMARK INTRA:                  -1.090
REMARK UNBOUND:                -1.237
REMARK  Name = 
REMARK  7 active torsions:
REMARK  status: ('A' for Active; 'I' for Inactive)
REMARK    1  A    between atoms: C_2  and  C_20
REMARK    2  A    between atoms: N_3  and  C_4
REMARK    3  A    between atoms: C_4  and  C_5
REMARK    4  A    between atoms: C_7  and  C_8
REMARK    5  A    between atoms: C_8  and  N_9
REMARK    6  A    between atoms: N_9  and  C_10
REMARK    7  A    between atoms: C_13  and  O_14
REMARK                            x       y       z     vdW  Elec       q    Type
REMARK                         _______ _______ _______ _____ _____    ______ ____
ROOT
ATOM      1  C   UNL     1      45.394   6.073  12.073  0.00  0.00    +0.000 A 
ATOM      2  C   UNL     1      44.931   5.192  11.106  0.00  0.00    +0.000 A 
ATOM      3  C   UNL     1      44.945   3.828  11.394  0.00  0.00    +0.000 A 
ATOM      4  C   UNL     1      45.417   3.410  12.629  0.00  0.00    +0.000 A 
ATOM      5  C   UNL     1      45.838   4.360  13.543  0.00  0.00    +0.000 A 
ATOM      6  N   UNL     1      45.834   5.690  13.295  0.00  0.00    +0.000 NA
ENDROOT
BRANCH   1   7
ATOM      7  C   UNL     1      45.364   7.543  11.750  0.00  0.00    +0.000 C 
BRANCH   7  10
ATOM      8  O   UNL     1      48.079   7.783  11.336  0.00  0.00    +0.000 OA
ATOM      9  C   UNL     1      47.583   8.356  12.285  0.00  0.00    +0.000 C 
ATOM     10  N   UNL     1      46.243   8.287  12.607  0.00  0.00    +0.000 N 
ATOM     11  H   UNL     1      45.831   8.951  13.240  0.00  0.00    +0.000 HD
BRANCH   9  12
ATOM     12  C   UNL     1      48.354   9.157  13.227  0.00  0.00    +0.000 A 
ATOM     13  C   UNL     1      48.440  10.538  13.169  0.00  0.00    +0.000 A 
ATOM     14  S   UNL     1      49.354  11.195  14.455  0.00  0.00    +0.000 S 
ATOM     15  C   UNL     1      49.655   9.647  15.101  0.00  0.00    +0.000 A 
ATOM     16  N   UNL     1      50.405   9.471  16.221  0.00  0.00    +0.000 NA
ATOM     17  C   UNL     1      50.551   8.252  16.583  0.00  0.00    +0.000 A 
ATOM     18  N   UNL     1      49.997   7.164  15.941  0.00  0.00    +0.000 N 
ATOM     19  C   UNL     1      49.296   7.276  14.765  0.00  0.00    +0.000 A 
ATOM     20  O   UNL     1      48.979   6.273  14.147  0.00  0.00    +0.000 OA
ATOM     21  C   UNL     1      49.077   8.647  14.347  0.00  0.00    +0.000 A 
ATOM     22  H   UNL     1      50.183   6.227  16.269  0.00  0.00    +0.000 HD
ENDBRANCH   9  12
ENDBRANCH   7  10
ENDBRANCH   1   7
BRANCH   3  23
ATOM     23  C   UNL     1      44.645   2.864  10.293  0.00  0.00    +0.000 C 
BRANCH  23  24
ATOM     24  N   UNL     1      44.166   3.376   9.002  0.00  0.00    +0.000 NA
ATOM     25  H   UNL     1      44.157   4.398   9.061  0.00  0.00    +0.000 HD
BRANCH  24  26
ATOM     26  C   UNL     1      45.171   2.967   7.975  0.00  0.00    +0.000 C 
ATOM     27  C   UNL     1      46.206   4.050   7.543  0.00  0.00    +0.000 C 
ATOM     28  C   UNL     1      47.141   3.490   6.454  0.00  0.00    +0.000 C 
ATOM     29  C   UNL     1      47.840   2.198   6.882  0.00  0.00    +0.000 C 
ATOM     30  C   UNL     1      46.830   1.170   7.355  0.00  0.00    +0.000 C 
ATOM     31  C   UNL     1      45.947   1.730   8.453  0.00  0.00    +0.000 C 
BRANCH  29  32
ATOM     32  O   UNL     1      48.575   1.649   5.794  0.00  0.00    +0.000 OA
ATOM     33  H   UNL     1      47.961   1.142   5.236  0.00  0.00    +0.000 HD
ENDBRANCH  29  32
ENDBRANCH  24  26
ENDBRANCH  23  24
ENDBRANCH   3  23
TORSDOF 7
ENDMDL
