MODEL 1
REMARK VINA RESULT:    -9.210      0.000      0.000
REMARK INTER + INTRA:         -11.892
REMARK INTER:                 -11.363
REMARK INTRA:                  -0.528
REMARK UNBOUND:                -0.528
REMARK  Name = 
REMARK  4 active torsions:
REMARK  status: ('A' for Active; 'I' for Inactive)
REMARK    1  A    between atoms: C_2  and  C_4
REMARK    2  A    between atoms: N_8  and  C_9
REMARK    3  A    between atoms: C_9  and  C_10
REMARK    4  A    between atoms: C_14  and  N_15
REMARK                            x       y       z     vdW  Elec       q    Type
REMARK                         _______ _______ _______ _____ _____    ______ ____
ROOT
ATOM      1  C   UNL     1      43.921   4.857  11.525  0.00  0.00    +0.000 C 
ATOM      2  C   UNL     1      42.654   5.141  12.327  0.00  0.00    +0.000 C 
ATOM      3  C   UNL     1      43.018   6.028  11.183  0.00  0.00    +0.000 C 
ENDROOT
BRANCH   1   8
ATOM      4  C   UNL     1      46.398   2.701   7.596  0.00  0.00    +0.000 A 
ATOM      5  C   UNL     1      45.882   1.758   8.449  0.00  0.00    +0.000 A 
ATOM      6  N   UNL     1      45.089   2.059   9.500  0.00  0.00    +0.000 NA
ATOM      7  C   UNL     1      44.825   3.360   9.726  0.00  0.00    +0.000 A 
ATOM      8  N   UNL     1      43.918   3.610  10.754  0.00  0.00    +0.000 N 
ATOM      9  N   UNL     1      45.337   4.352   8.978  0.00  0.00    +0.000 NA
ATOM     10  C   UNL     1      46.109   4.004   7.926  0.00  0.00    +0.000 A 
ATOM     11  H   UNL     1      43.800   2.740  11.259  0.00  0.00    +0.000 HD
BRANCH   4  13
ATOM     12  N   UNL     1      47.161   3.244   5.355  0.00  0.00    +0.000 N 
ATOM     13  C   UNL     1      47.211   2.382   6.414  0.00  0.00    +0.000 C 
ATOM     14  O   UNL     1      47.944   1.402   6.398  0.00  0.00    +0.000 OA
ATOM     15  H   UNL     1      47.817   3.064   4.602  0.00  0.00    +0.000 HD
ATOM     16  H   UNL     1      46.785   4.181   5.413  0.00  0.00    +0.000 HD
ENDBRANCH   4  13
ENDBRANCH   1   8
BRANCH   1  17
ATOM     17  C   UNL     1      45.263   5.197  12.169  0.00  0.00    +0.000 A 
ATOM     18  C   UNL     1      45.999   6.319  11.752  0.00  0.00    +0.000 A 
ATOM     19  C   UNL     1      47.160   6.716  12.416  0.00  0.00    +0.000 A 
ATOM     20  C   UNL     1      47.609   6.006  13.530  0.00  0.00    +0.000 A 
ATOM     21  C   UNL     1      46.912   4.869  13.953  0.00  0.00    +0.000 A 
ATOM     22  C   UNL     1      45.775   4.449  13.245  0.00  0.00    +0.000 A 
BRANCH  21  23
ATOM     23  N   UNL     1      47.299   4.166  15.123  0.00  0.00    +0.000 N 
ATOM     24  C   UNL     1      47.134   4.525  16.440  0.00  0.00    +0.000 A 
ATOM     25  N   UNL     1      47.589   3.586  17.237  0.00  0.00    +0.000 NA
ATOM     26  C   UNL     1      48.031   2.643  16.362  0.00  0.00    +0.000 A 
ATOM     27  N   UNL     1      47.875   2.937  15.070  0.00  0.00    +0.000 NA
ENDBRANCH  21  23
ENDBRANCH   1  17
TORSDOF 4
ENDMDL
MODEL 2
REMARK VINA RESULT:    -8.404      2.144      3.176
REMARK INTER + INTRA:         -10.898
REMARK INTER:                 -10.215
REMARK INTRA:                  -0.683
REMARK UNBOUND:                -0.528
REMARK  Name = 
REMARK  4 active torsions:
REMARK  status: ('A' for Active; 'I' for Inactive)
REMARK    1  A    between atoms: C_2  and  C_4
REMARK    2  A    between atoms: N_8  and  C_9
REMARK    3  A    between atoms: C_9  and  C_10
REMARK    4  A    between atoms: C_14  and  N_15
REMARK                            x       y       z     vdW  Elec       q    Type
REMARK                         _______ _______ _______ _____ _____    ______ ____
ROOT
ATOM      1  C   UNL     1      43.816   4.924  11.415  0.00  0.00    +0.000 C 
ATOM      2  C   UNL     1      42.485   5.294  12.063  0.00  0.00    +0.000 C 
ATOM      3  C   UNL     1      43.037   6.150  10.974  0.00  0.00    +0.000 C 
ENDROOT
BRANCH   1   8
ATOM      4  C   UNL     1      46.419   2.717   7.597  0.00  0.00    +0.000 A 
ATOM      5  C   UNL     1      45.848   1.785   8.427  0.00  0.00    +0.000 A 
ATOM      6  N   UNL     1      45.016   2.102   9.443  0.00  0.00    +0.000 NA
ATOM      7  C   UNL     1      44.768   3.408   9.657  0.00  0.00    +0.000 A 
ATOM      8  N   UNL     1      43.822   3.677  10.644  0.00  0.00    +0.000 N 
ATOM      9  N   UNL     1      45.331   4.390   8.932  0.00  0.00    +0.000 NA
ATOM     10  C   UNL     1      46.141   4.026   7.915  0.00  0.00    +0.000 A 
ATOM     11  H   UNL     1      43.665   2.810  11.144  0.00  0.00    +0.000 HD
BRANCH   4  13
ATOM     12  N   UNL     1      47.246   3.214   5.369  0.00  0.00    +0.000 N 
ATOM     13  C   UNL     1      47.276   2.382   6.452  0.00  0.00    +0.000 C 
ATOM     14  O   UNL     1      48.026   1.415   6.487  0.00  0.00    +0.000 OA
ATOM     15  H   UNL     1      47.929   3.026   4.643  0.00  0.00    +0.000 HD
ATOM     16  H   UNL     1      46.852   4.145   5.389  0.00  0.00    +0.000 HD
ENDBRANCH   4  13
ENDBRANCH   1   8
BRANCH   1  17
ATOM     17  C   UNL     1      45.092   5.179  12.214  0.00  0.00    +0.000 A 
ATOM     18  C   UNL     1      45.552   4.244  13.156  0.00  0.00    +0.000 A 
ATOM     19  C   UNL     1      46.780   4.401  13.799  0.00  0.00    +0.000 A 
ATOM     20  C   UNL     1      47.592   5.496  13.502  0.00  0.00    +0.000 A 
ATOM     21  C   UNL     1      47.149   6.459  12.587  0.00  0.00    +0.000 A 
ATOM     22  C   UNL     1      45.888   6.317  11.988  0.00  0.00    +0.000 A 
BRANCH  21  23
ATOM     23  N   UNL     1      47.978   7.546  12.209  0.00  0.00    +0.000 N 
ATOM     24  C   UNL     1      47.646   8.871  12.056  0.00  0.00    +0.000 A 
ATOM     25  N   UNL     1      48.705   9.580  11.735  0.00  0.00    +0.000 NA
ATOM     26  C   UNL     1      49.691   8.643  11.705  0.00  0.00    +0.000 A 
ATOM     27  N   UNL     1      49.310   7.396  11.988  0.00  0.00    +0.000 NA
ENDBRANCH  21  23
ENDBRANCH   1  17
TORSDOF 4
ENDMDL
MODEL 3
REMARK VINA RESULT:    -6.514      2.910      7.001
REMARK INTER + INTRA:          -8.566
REMARK INTER:                  -8.895
REMARK INTRA:                   0.329
REMARK UNBOUND:                -0.528
REMARK  Name = 
REMARK  4 active torsions:
REMARK  status: ('A' for Active; 'I' for Inactive)
REMARK    1  A    between atoms: C_2  and  C_4
REMARK    2  A    between atoms: N_8  and  C_9
REMARK    3  A    between atoms: C_9  and  C_10
REMARK    4  A    between atoms: C_14  and  N_15
REMARK                            x       y       z     vdW  Elec       q    Type
REMARK                         _______ _______ _______ _____ _____    ______ ____
ROOT
ATOM      1  C   UNL     1      44.611   3.466  12.298  0.00  0.00    +0.000 C 
ATOM      2  C   UNL     1      43.453   4.236  12.925  0.00  0.00    +0.000 C 
ATOM      3  C   UNL     1      43.248   2.826  12.483  0.00  0.00    +0.000 C 
ENDROOT
BRANCH   1   8
ATOM      4  C   UNL     1      48.157   5.968  15.016  0.00  0.00    +0.000 A 
ATOM      5  C   UNL     1      47.882   4.735  15.554  0.00  0.00    +0.000 A 
ATOM      6  N   UNL     1      47.070   3.831  14.966  0.00  0.00    +0.000 NA
ATOM      7  C   UNL     1      46.483   4.185  13.807  0.00  0.00    +0.000 A 
ATOM      8  N   UNL     1      45.741   3.181  13.188  0.00  0.00    +0.000 N 
ATOM      9  N   UNL     1      46.648   5.392  13.241  0.00  0.00    +0.000 NA
ATOM     10  C   UNL     1      47.484   6.258  13.854  0.00  0.00    +0.000 A 
ATOM     11  H   UNL     1      45.635   2.435  13.865  0.00  0.00    +0.000 HD
BRANCH   4  13
ATOM     12  N   UNL     1      48.556   8.045  16.210  0.00  0.00    +0.000 N 
ATOM     13  C   UNL     1      49.087   6.936  15.615  0.00  0.00    +0.000 C 
ATOM     14  O   UNL     1      50.294   6.731  15.620  0.00  0.00    +0.000 OA
ATOM     15  H   UNL     1      49.208   8.636  16.714  0.00  0.00    +0.000 HD
ATOM     16  H   UNL     1      47.580   8.133  16.458  0.00  0.00    +0.000 HD
ENDBRANCH   4  13
ENDBRANCH   1   8
BRANCH   1  17
ATOM     17  C   UNL     1      45.009   3.820  10.867  0.00  0.00    +0.000 A 
ATOM     18  C   UNL     1      45.045   5.157  10.438  0.00  0.00    +0.000 A 
ATOM     19  C   UNL     1      45.529   5.505   9.176  0.00  0.00    +0.000 A 
ATOM     20  C   UNL     1      46.006   4.519   8.312  0.00  0.00    +0.000 A 
ATOM     21  C   UNL     1      45.958   3.175   8.700  0.00  0.00    +0.000 A 
ATOM     22  C   UNL     1      45.420   2.834   9.951  0.00  0.00    +0.000 A 
BRANCH  21  23
ATOM     23  N   UNL     1      46.499   2.155   7.877  0.00  0.00    +0.000 N 
ATOM     24  C   UNL     1      47.294   2.278   6.761  0.00  0.00    +0.000 A 
ATOM     25  N   UNL     1      47.626   1.095   6.297  0.00  0.00    +0.000 NA
ATOM     26  C   UNL     1      47.013   0.250   7.170  0.00  0.00    +0.000 A 
ATOM     27  N   UNL     1      46.322   0.836   8.149  0.00  0.00    +0.000 NA
ENDBRANCH  21  23
ENDBRANCH   1  17
TORSDOF 4
ENDMDL
MODEL 4
REMARK VINA RESULT:    -6.441      3.106      6.924
REMARK INTER + INTRA:          -8.475
REMARK INTER:                  -8.087
REMARK INTRA:                  -0.388
REMARK UNBOUND:                -0.528
REMARK  Name = 
REMARK  4 active torsions:
REMARK  status: ('A' for Active; 'I' for Inactive)
REMARK    1  A    between atoms: C_2  and  C_4
REMARK    2  A    between atoms: N_8  and  C_9
REMARK    3  A    between atoms: C_9  and  C_10
REMARK    4  A    between atoms: C_14  and  N_15
REMARK                            x       y       z     vdW  Elec       q    Type
REMARK                         _______ _______ _______ _____ _____    ______ ____
ROOT
ATOM      1  C   UNL     1      44.073   5.557  11.415  0.00  0.00    +0.000 C 
ATOM      2  C   UNL     1      42.638   6.074  11.393  0.00  0.00    +0.000 C 
ATOM      3  C   UNL     1      43.195   5.502  12.653  0.00  0.00    +0.000 C 
ENDROOT
BRANCH   1   8
ATOM      4  C   UNL     1      48.585   6.903  13.429  0.00  0.00    +0.000 A 
ATOM      5  C   UNL     1      48.478   7.293  12.118  0.00  0.00    +0.000 A 
ATOM      6  N   UNL     1      47.348   7.162  11.391  0.00  0.00    +0.000 NA
ATOM      7  C   UNL     1      46.288   6.587  11.991  0.00  0.00    +0.000 A 
ATOM      8  N   UNL     1      45.116   6.572  11.237  0.00  0.00    +0.000 N 
ATOM      9  N   UNL     1      46.322   6.121  13.251  0.00  0.00    +0.000 NA
ATOM     10  C   UNL     1      47.468   6.291  13.946  0.00  0.00    +0.000 A 
ATOM     11  H   UNL     1      45.374   6.825  10.290  0.00  0.00    +0.000 HD
BRANCH   4  13
ATOM     12  N   UNL     1      50.822   7.807  13.705  0.00  0.00    +0.000 N 
ATOM     13  C   UNL     1      49.789   7.097  14.249  0.00  0.00    +0.000 C 
ATOM     14  O   UNL     1      49.846   6.677  15.397  0.00  0.00    +0.000 OA
ATOM     15  H   UNL     1      51.591   8.026  14.329  0.00  0.00    +0.000 HD
ATOM     16  H   UNL     1      50.730   8.386  12.880  0.00  0.00    +0.000 HD
ENDBRANCH   4  13
ENDBRANCH   1   8
BRANCH   1  17
ATOM     17  C   UNL     1      44.362   4.226  10.725  0.00  0.00    +0.000 A 
ATOM     18  C   UNL     1      43.678   3.057  11.098  0.00  0.00    +0.000 A 
ATOM     19  C   UNL     1      43.837   1.864  10.391  0.00  0.00    +0.000 A 
ATOM     20  C   UNL     1      44.678   1.814   9.279  0.00  0.00    +0.000 A 
ATOM     21  C   UNL     1      45.393   2.955   8.900  0.00  0.00    +0.000 A 
ATOM     22  C   UNL     1      45.265   4.135   9.650  0.00  0.00    +0.000 A 
BRANCH  21  23
ATOM     23  N   UNL     1      46.200   2.960   7.733  0.00  0.00    +0.000 N 
ATOM     24  C   UNL     1      47.015   1.966   7.245  0.00  0.00    +0.000 A 
ATOM     25  N   UNL     1      47.568   2.336   6.112  0.00  0.00    +0.000 NA
ATOM     26  C   UNL     1      47.058   3.583   5.926  0.00  0.00    +0.000 A 
ATOM     27  N   UNL     1      46.221   4.010   6.872  0.00  0.00    +0.000 NA
ENDBRANCH  21  23
ENDBRANCH   1  17
TORSDOF 4
ENDMDL
MODEL 5
REMARK VINA RESULT:    -6.388      2.741      4.617
REMARK INTER + INTRA:          -8.410
REMARK INTER:                  -8.393
REMARK INTRA:                  -0.017
REMARK UNBOUND:                -0.528
REMARK  Name = 
REMARK  4 active torsions:
REMARK  status: ('A' for Active; 'I' for Inactive)
REMARK    1  A    between atoms: C_2  and  C_4
REMARK    2  A    between atoms: N_8  and  C_9
REMARK    3  A    between atoms: C_9  and  C_10
REMARK    4  A    between atoms: C_14  and  N_15
REMARK                            x       y       z     vdW  Elec       q    Type
REMARK                         _______ _______ _______ _____ _____    ______ ____
ROOT
ATOM      1  C   UNL     1      47.888   8.399  13.350  0.00  0.00    +0.000 C 
ATOM      2  C   UNL     1      48.209   9.879  13.165  0.00  0.00    +0.000 C 
ATOM      3  C   UNL     1      48.605   8.902  12.110  0.00  0.00    +0.000 C 
ENDROOT
BRANCH   1   8
ATOM      4  C   UNL     1      44.671   5.155  11.036  0.00  0.00    +0.000 A 
ATOM      5  C   UNL     1      44.216   5.522  12.278  0.00  0.00    +0.000 A 
ATOM      6  N   UNL     1      44.819   6.454  13.047  0.00  0.00    +0.000 NA
ATOM      7  C   UNL     1      45.941   7.023  12.567  0.00  0.00    +0.000 A 
ATOM      8  N   UNL     1      46.464   8.052  13.348  0.00  0.00    +0.000 N 
ATOM      9  N   UNL     1      46.491   6.680  11.390  0.00  0.00    +0.000 NA
ATOM     10  C   UNL     1      45.844   5.757  10.646  0.00  0.00    +0.000 A 
ATOM     11  H   UNL     1      45.983   8.018  14.239  0.00  0.00    +0.000 HD
BRANCH   4  13
ATOM     12  N   UNL     1      44.087   4.369   8.815  0.00  0.00    +0.000 N 
ATOM     13  C   UNL     1      43.991   4.187  10.165  0.00  0.00    +0.000 C 
ATOM     14  O   UNL     1      43.398   3.224  10.634  0.00  0.00    +0.000 OA
ATOM     15  H   UNL     1      43.708   3.626   8.236  0.00  0.00    +0.000 HD
ATOM     16  H   UNL     1      44.763   4.981   8.379  0.00  0.00    +0.000 HD
ENDBRANCH   4  13
ENDBRANCH   1   8
BRANCH   1  17
ATOM     17  C   UNL     1      48.729   7.608  14.349  0.00  0.00    +0.000 A 
ATOM     18  C   UNL     1      50.009   8.050  14.723  0.00  0.00    +0.000 A 
ATOM     19  C   UNL     1      50.735   7.410  15.729  0.00  0.00    +0.000 A 
ATOM     20  C   UNL     1      50.189   6.315  16.400  0.00  0.00    +0.000 A 
ATOM     21  C   UNL     1      48.928   5.836  16.031  0.00  0.00    +0.000 A 
ATOM     22  C   UNL     1      48.230   6.455  14.982  0.00  0.00    +0.000 A 
BRANCH  21  23
ATOM     23  N   UNL     1      48.313   4.771  16.738  0.00  0.00    +0.000 N 
ATOM     24  C   UNL     1      47.102   4.163  16.503  0.00  0.00    +0.000 A 
ATOM     25  N   UNL     1      46.902   3.183  17.354  0.00  0.00    +0.000 NA
ATOM     26  C   UNL     1      48.033   3.212  18.111  0.00  0.00    +0.000 A 
ATOM     27  N   UNL     1      48.924   4.148  17.780  0.00  0.00    +0.000 NA
ENDBRANCH  21  23
ENDBRANCH   1  17
TORSDOF 4
ENDMDL
MODEL 6
REMARK VINA RESULT:    -6.341      3.035      7.563
REMARK INTER + INTRA:          -8.352
REMARK INTER:                  -8.684
REMARK INTRA:                   0.333
REMARK UNBOUND:                -0.528
REMARK  Name = 
REMARK  4 active torsions:
REMARK  status: ('A' for Active; 'I' for Inactive)
REMARK    1  A    between atoms: C_2  and  C_4
REMARK    2  A    between atoms: N_8  and  C_9
REMARK    3  A    between atoms: C_9  and  C_10
REMARK    4  A    between atoms: C_14  and  N_15
REMARK                            x       y       z     vdW  Elec       q    Type
REMARK                         _______ _______ _______ _____ _____    ______ ____
ROOT
ATOM      1  C   UNL     1      48.633   7.670  12.928  0.00  0.00    +0.000 C 
ATOM      2  C   UNL     1      49.746   7.032  12.103  0.00  0.00    +0.000 C 
ATOM      3  C   UNL     1      49.518   8.503  12.019  0.00  0.00    +0.000 C 
ENDROOT
BRANCH   1   8
ATOM      4  C   UNL     1      48.010   4.431  16.845  0.00  0.00    +0.000 A 
ATOM      5  C   UNL     1      48.988   5.359  17.104  0.00  0.00    +0.000 A 
ATOM      6  N   UNL     1      49.269   6.394  16.284  0.00  0.00    +0.000 NA
ATOM      7  C   UNL     1      48.564   6.488  15.141  0.00  0.00    +0.000 A 
ATOM      8  N   UNL     1      48.816   7.630  14.382  0.00  0.00    +0.000 N 
ATOM      9  N   UNL     1      47.631   5.592  14.778  0.00  0.00    +0.000 NA
ATOM     10  C   UNL     1      47.370   4.583  15.638  0.00  0.00    +0.000 A 
ATOM     11  H   UNL     1      49.649   8.060  14.767  0.00  0.00    +0.000 HD
BRANCH   4  13
ATOM     12  N   UNL     1      48.421   3.163  18.875  0.00  0.00    +0.000 N 
ATOM     13  C   UNL     1      47.653   3.336  17.759  0.00  0.00    +0.000 C 
ATOM     14  O   UNL     1      46.672   2.635  17.549  0.00  0.00    +0.000 OA
ATOM     15  H   UNL     1      48.086   2.478  19.545  0.00  0.00    +0.000 HD
ATOM     16  H   UNL     1      49.068   3.858  19.223  0.00  0.00    +0.000 HD
ENDBRANCH   4  13
ENDBRANCH   1   8
BRANCH   1  17
ATOM     17  C   UNL     1      47.193   7.456  12.467  0.00  0.00    +0.000 A 
ATOM     18  C   UNL     1      46.202   8.417  12.728  0.00  0.00    +0.000 A 
ATOM     19  C   UNL     1      44.915   8.297  12.202  0.00  0.00    +0.000 A 
ATOM     20  C   UNL     1      44.588   7.213  11.387  0.00  0.00    +0.000 A 
ATOM     21  C   UNL     1      45.546   6.226  11.131  0.00  0.00    +0.000 A 
ATOM     22  C   UNL     1      46.821   6.331  11.708  0.00  0.00    +0.000 A 
BRANCH  21  23
ATOM     23  N   UNL     1      45.271   5.149  10.250  0.00  0.00    +0.000 N 
ATOM     24  C   UNL     1      44.522   4.019  10.476  0.00  0.00    +0.000 A 
ATOM     25  N   UNL     1      44.468   3.274   9.395  0.00  0.00    +0.000 NA
ATOM     26  C   UNL     1      45.204   3.992   8.504  0.00  0.00    +0.000 A 
ATOM     27  N   UNL     1      45.709   5.138   8.964  0.00  0.00    +0.000 NA
ENDBRANCH  21  23
ENDBRANCH   1  17
TORSDOF 4
ENDMDL
