MODEL 1
REMARK VINA RESULT:    -9.236      0.000      0.000
REMARK INTER + INTRA:         -12.518
REMARK INTER:                 -12.205
REMARK INTRA:                  -0.313
REMARK UNBOUND:                -0.313
REMARK  Name = 
REMARK  7 active torsions:
REMARK  status: ('A' for Active; 'I' for Inactive)
REMARK    1  A    between atoms: C_1  and  C_2
REMARK    2  A    between atoms: C_2  and  O_3
REMARK    3  A    between atoms: C_5  and  N_6
REMARK    4  A    between atoms: C_9  and  C_10
REMARK    5  A    between atoms: C_10  and  C_13
REMARK    6  A    between atoms: C_13  and  N_14
REMARK    7  A    between atoms: C_17  and  C_18
REMARK                            x       y       z     vdW  Elec       q    Type
REMARK                         _______ _______ _______ _____ _____    ______ ____
ROOT
ATOM      1  C   UNL     1      44.094   6.009  11.777  0.00  0.00    +0.000 C 
ATOM      2  F   UNL     1      43.061   5.845  12.668  0.00  0.00    +0.000 F 
ATOM      3  F   UNL     1      43.998   7.313  11.385  0.00  0.00    +0.000 F 
ENDROOT
BRANCH   1   7
ATOM      4  N   UNL     1      46.879   3.727  15.166  0.00  0.00    +0.000 N 
ATOM      5  C   UNL     1      46.821   4.659  14.109  0.00  0.00    +0.000 A 
ATOM      6  C   UNL     1      45.592   4.805  13.475  0.00  0.00    +0.000 A 
ATOM      7  C   UNL     1      45.426   5.751  12.459  0.00  0.00    +0.000 A 
ATOM      8  C   UNL     1      46.549   6.496  12.084  0.00  0.00    +0.000 A 
ATOM      9  C   UNL     1      47.742   6.280  12.755  0.00  0.00    +0.000 A 
ATOM     10  N   UNL     1      47.891   5.396  13.768  0.00  0.00    +0.000 NA
ATOM     11  H   UNL     1      46.732   2.797  14.783  0.00  0.00    +0.000 HD
BRANCH   4  15
ATOM     12  C   UNL     1      47.522   5.472  19.161  0.00  0.00    +0.000 C 
ATOM     13  C   UNL     1      48.201   4.610  18.108  0.00  0.00    +0.000 C 
ATOM     14  C   UNL     1      48.161   5.197  16.673  0.00  0.00    +0.000 C 
ATOM     15  C   UNL     1      47.901   3.760  16.162  0.00  0.00    +0.000 C 
ATOM     16  C   UNL     1      47.341   3.434  17.566  0.00  0.00    +0.000 C 
BRANCH  13  17
ATOM     17  O   UNL     1      49.511   4.227  18.580  0.00  0.00    +0.000 OA
ATOM     18  H   UNL     1      50.017   5.057  18.622  0.00  0.00    +0.000 HD
ENDBRANCH  13  17
ENDBRANCH   4  15
ENDBRANCH   1   7
BRANCH   1  19
ATOM     19  C   UNL     1      43.801   5.060  10.579  0.00  0.00    +0.000 C 
BRANCH  19  20
ATOM     20  N   UNL     1      44.730   5.160   9.439  0.00  0.00    +0.000 N 
ATOM     21  C   UNL     1      45.193   3.925   8.963  0.00  0.00    +0.000 A 
ATOM     22  C   UNL     1      46.041   3.917   7.865  0.00  0.00    +0.000 A 
ATOM     23  C   UNL     1      46.487   2.697   7.355  0.00  0.00    +0.000 A 
ATOM     24  C   UNL     1      46.072   1.513   7.956  0.00  0.00    +0.000 A 
ATOM     25  C   UNL     1      45.216   1.611   9.034  0.00  0.00    +0.000 A 
ATOM     26  N   UNL     1      44.764   2.780   9.528  0.00  0.00    +0.000 NA
ATOM     27  H   UNL     1      45.519   5.772   9.638  0.00  0.00    +0.000 HD
BRANCH  23  28
ATOM     28  C   UNL     1      47.388   2.733   6.169  0.00  0.00    +0.000 C 
ATOM     29  N   UNL     1      48.725   2.512   6.354  0.00  0.00    +0.000 N 
ATOM     30  O   UNL     1      46.954   2.961   5.046  0.00  0.00    +0.000 OA
ATOM     31  H   UNL     1      49.179   2.350   7.234  0.00  0.00    +0.000 HD
ATOM     32  H   UNL     1      49.302   2.556   5.527  0.00  0.00    +0.000 HD
ENDBRANCH  23  28
ENDBRANCH  19  20
ENDBRANCH   1  19
TORSDOF 6
ENDMDL
MODEL 2
REMARK VINA RESULT:    -9.147      2.820      4.210
REMARK INTER + INTRA:         -12.401
REMARK INTER:                 -11.494
REMARK INTRA:                  -0.907
REMARK UNBOUND:                -0.313
REMARK  Name = 
REMARK  7 active torsions:
REMARK  status: ('A' for Active; 'I' for Inactive)
REMARK    1  A    between atoms: C_1  and  C_2
REMARK    2  A    between atoms: C_2  and  O_3
REMARK    3  A    between atoms: C_5  and  N_6
REMARK    4  A    between atoms: C_9  and  C_10
REMARK    5  A    between atoms: C_10  and  C_13
REMARK    6  A    between atoms: C_13  and  N_14
REMARK    7  A    between atoms: C_17  and  C_18
REMARK                            x       y       z     vdW  Elec       q    Type
REMARK                         _______ _______ _______ _____ _____    ______ ____
ROOT
ATOM      1  C   UNL     1      43.529   4.130  12.637  0.00  0.00    +0.000 C 
ATOM      2  F   UNL     1      43.272   2.915  13.225  0.00  0.00    +0.000 F 
ATOM      3  F   UNL     1      42.572   4.960  13.146  0.00  0.00    +0.000 F 
ENDROOT
BRANCH   1   7
ATOM      4  N   UNL     1      46.836   7.738  13.338  0.00  0.00    +0.000 N 
ATOM      5  C   UNL     1      46.566   6.355  13.362  0.00  0.00    +0.000 A 
ATOM      6  C   UNL     1      45.261   5.970  13.075  0.00  0.00    +0.000 A 
ATOM      7  C   UNL     1      44.917   4.616  13.014  0.00  0.00    +0.000 A 
ATOM      8  C   UNL     1      45.920   3.685  13.300  0.00  0.00    +0.000 A 
ATOM      9  C   UNL     1      47.193   4.150  13.591  0.00  0.00    +0.000 A 
ATOM     10  N   UNL     1      47.536   5.458  13.607  0.00  0.00    +0.000 NA
ATOM     11  H   UNL     1      46.319   8.181  14.093  0.00  0.00    +0.000 HD
BRANCH   4  15
ATOM     12  C   UNL     1      48.924  10.786  10.934  0.00  0.00    +0.000 C 
ATOM     13  C   UNL     1      49.161   9.749  12.021  0.00  0.00    +0.000 C 
ATOM     14  C   UNL     1      48.582   8.344  11.707  0.00  0.00    +0.000 C 
ATOM     15  C   UNL     1      48.157   8.259  13.192  0.00  0.00    +0.000 C 
ATOM     16  C   UNL     1      48.167   9.805  13.214  0.00  0.00    +0.000 C 
BRANCH  13  17
ATOM     17  O   UNL     1      50.555   9.770  12.400  0.00  0.00    +0.000 OA
ATOM     18  H   UNL     1      50.936   8.966  12.004  0.00  0.00    +0.000 HD
ENDBRANCH  13  17
ENDBRANCH   4  15
ENDBRANCH   1   7
BRANCH   1  19
ATOM     19  C   UNL     1      43.320   3.935  11.107  0.00  0.00    +0.000 C 
BRANCH  19  20
ATOM     20  N   UNL     1      43.949   2.738  10.521  0.00  0.00    +0.000 N 
ATOM     21  C   UNL     1      44.824   3.009   9.460  0.00  0.00    +0.000 A 
ATOM     22  C   UNL     1      45.496   1.947   8.871  0.00  0.00    +0.000 A 
ATOM     23  C   UNL     1      46.396   2.197   7.835  0.00  0.00    +0.000 A 
ATOM     24  C   UNL     1      46.604   3.507   7.413  0.00  0.00    +0.000 A 
ATOM     25  C   UNL     1      45.908   4.505   8.063  0.00  0.00    +0.000 A 
ATOM     26  N   UNL     1      45.048   4.280   9.076  0.00  0.00    +0.000 NA
ATOM     27  H   UNL     1      43.262   2.043  10.235  0.00  0.00    +0.000 HD
BRANCH  23  28
ATOM     28  C   UNL     1      47.103   1.030   7.238  0.00  0.00    +0.000 C 
ATOM     29  N   UNL     1      46.817  -0.222   7.709  0.00  0.00    +0.000 N 
ATOM     30  O   UNL     1      47.930   1.174   6.346  0.00  0.00    +0.000 OA
ATOM     31  H   UNL     1      46.182  -0.439   8.454  0.00  0.00    +0.000 HD
ATOM     32  H   UNL     1      47.325  -0.984   7.285  0.00  0.00    +0.000 HD
ENDBRANCH  23  28
ENDBRANCH  19  20
ENDBRANCH   1  19
TORSDOF 6
ENDMDL
MODEL 3
REMARK VINA RESULT:    -8.922      2.435      3.778
REMARK INTER + INTRA:         -12.104
REMARK INTER:                 -11.232
REMARK INTRA:                  -0.872
REMARK UNBOUND:                -0.313
REMARK  Name = 
REMARK  7 active torsions:
REMARK  status: ('A' for Active; 'I' for Inactive)
REMARK    1  A    between atoms: C_1  and  C_2
REMARK    2  A    between atoms: C_2  and  O_3
REMARK    3  A    between atoms: C_5  and  N_6
REMARK    4  A    between atoms: C_9  and  C_10
REMARK    5  A    between atoms: C_10  and  C_13
REMARK    6  A    between atoms: C_13  and  N_14
REMARK    7  A    between atoms: C_17  and  C_18
REMARK                            x       y       z     vdW  Elec       q    Type
REMARK                         _______ _______ _______ _____ _____    ______ ____
ROOT
ATOM      1  C   UNL     1      43.610   5.740  11.758  0.00  0.00    +0.000 C 
ATOM      2  F   UNL     1      42.650   5.401  12.681  0.00  0.00    +0.000 F 
ATOM      3  F   UNL     1      43.298   7.020  11.401  0.00  0.00    +0.000 F 
ENDROOT
BRANCH   1   7
ATOM      4  N   UNL     1      48.100   7.636  12.588  0.00  0.00    +0.000 N 
ATOM      5  C   UNL     1      47.201   6.573  12.810  0.00  0.00    +0.000 A 
ATOM      6  C   UNL     1      45.928   6.712  12.270  0.00  0.00    +0.000 A 
ATOM      7  C   UNL     1      44.991   5.680  12.385  0.00  0.00    +0.000 A 
ATOM      8  C   UNL     1      45.374   4.542  13.102  0.00  0.00    +0.000 A 
ATOM      9  C   UNL     1      46.658   4.486  13.622  0.00  0.00    +0.000 A 
ATOM     10  N   UNL     1      47.578   5.467  13.472  0.00  0.00    +0.000 NA
ATOM     11  H   UNL     1      47.756   8.458  13.079  0.00  0.00    +0.000 HD
BRANCH   4  15
ATOM     12  C   UNL     1      51.750   9.819  11.431  0.00  0.00    +0.000 C 
ATOM     13  C   UNL     1      51.284   8.554  12.134  0.00  0.00    +0.000 C 
ATOM     14  C   UNL     1      50.228   7.733  11.348  0.00  0.00    +0.000 C 
ATOM     15  C   UNL     1      49.515   7.480  12.697  0.00  0.00    +0.000 C 
ATOM     16  C   UNL     1      50.193   8.768  13.220  0.00  0.00    +0.000 C 
BRANCH  13  17
ATOM     17  O   UNL     1      52.437   7.807  12.581  0.00  0.00    +0.000 OA
ATOM     18  H   UNL     1      52.648   8.170  13.459  0.00  0.00    +0.000 HD
ENDBRANCH  13  17
ENDBRANCH   4  15
ENDBRANCH   1   7
BRANCH   1  19
ATOM     19  C   UNL     1      43.421   4.779  10.549  0.00  0.00    +0.000 C 
BRANCH  19  20
ATOM     20  N   UNL     1      44.361   4.964   9.429  0.00  0.00    +0.000 N 
ATOM     21  C   UNL     1      44.947   3.778   8.966  0.00  0.00    +0.000 A 
ATOM     22  C   UNL     1      45.816   3.848   7.887  0.00  0.00    +0.000 A 
ATOM     23  C   UNL     1      46.385   2.675   7.390  0.00  0.00    +0.000 A 
ATOM     24  C   UNL     1      46.070   1.458   7.986  0.00  0.00    +0.000 A 
ATOM     25  C   UNL     1      45.185   1.476   9.044  0.00  0.00    +0.000 A 
ATOM     26  N   UNL     1      44.615   2.598   9.525  0.00  0.00    +0.000 NA
ATOM     27  H   UNL     1      45.085   5.648   9.643  0.00  0.00    +0.000 HD
BRANCH  23  28
ATOM     28  C   UNL     1      47.304   2.794   6.224  0.00  0.00    +0.000 C 
ATOM     29  N   UNL     1      48.647   2.623   6.426  0.00  0.00    +0.000 N 
ATOM     30  O   UNL     1      46.881   3.045   5.102  0.00  0.00    +0.000 OA
ATOM     31  H   UNL     1      49.091   2.448   7.308  0.00  0.00    +0.000 HD
ATOM     32  H   UNL     1      49.235   2.723   5.612  0.00  0.00    +0.000 HD
ENDBRANCH  23  28
ENDBRANCH  19  20
ENDBRANCH   1  19
TORSDOF 6
ENDMDL
MODEL 4
REMARK VINA RESULT:    -8.836      2.381      3.033
REMARK INTER + INTRA:         -11.990
REMARK INTER:                 -11.157
REMARK INTRA:                  -0.833
REMARK UNBOUND:                -0.313
REMARK  Name = 
REMARK  7 active torsions:
REMARK  status: ('A' for Active; 'I' for Inactive)
REMARK    1  A    between atoms: C_1  and  C_2
REMARK    2  A    between atoms: C_2  and  O_3
REMARK    3  A    between atoms: C_5  and  N_6
REMARK    4  A    between atoms: C_9  and  C_10
REMARK    5  A    between atoms: C_10  and  C_13
REMARK    6  A    between atoms: C_13  and  N_14
REMARK    7  A    between atoms: C_17  and  C_18
REMARK                            x       y       z     vdW  Elec       q    Type
REMARK                         _______ _______ _______ _____ _____    ______ ____
ROOT
ATOM      1  C   UNL     1      43.729   4.355  12.492  0.00  0.00    +0.000 C 
ATOM      2  F   UNL     1      44.204   3.200  13.066  0.00  0.00    +0.000 F 
ATOM      3  F   UNL     1      42.632   4.677  13.239  0.00  0.00    +0.000 F 
ENDROOT
BRANCH   1   7
ATOM      4  N   UNL     1      47.869   6.296  14.371  0.00  0.00    +0.000 N 
ATOM      5  C   UNL     1      46.793   6.439  13.471  0.00  0.00    +0.000 A 
ATOM      6  C   UNL     1      45.905   5.373  13.389  0.00  0.00    +0.000 A 
ATOM      7  C   UNL     1      44.773   5.453  12.571  0.00  0.00    +0.000 A 
ATOM      8  C   UNL     1      44.608   6.618  11.815  0.00  0.00    +0.000 A 
ATOM      9  C   UNL     1      45.547   7.630  11.942  0.00  0.00    +0.000 A 
ATOM     10  N   UNL     1      46.618   7.569  12.767  0.00  0.00    +0.000 NA
ATOM     11  H   UNL     1      48.473   5.549  14.035  0.00  0.00    +0.000 HD
BRANCH   4  15
ATOM     12  C   UNL     1      51.779   7.094  16.242  0.00  0.00    +0.000 C 
ATOM     13  C   UNL     1      50.508   7.790  15.780  0.00  0.00    +0.000 C 
ATOM     14  C   UNL     1      49.196   7.128  16.275  0.00  0.00    +0.000 C 
ATOM     15  C   UNL     1      48.601   7.413  14.876  0.00  0.00    +0.000 C 
ATOM     16  C   UNL     1      50.050   7.436  14.338  0.00  0.00    +0.000 C 
BRANCH  13  17
ATOM     17  O   UNL     1      50.621   9.206  16.044  0.00  0.00    +0.000 OA
ATOM     18  H   UNL     1      50.070   9.634  15.365  0.00  0.00    +0.000 HD
ENDBRANCH  13  17
ENDBRANCH   4  15
ENDBRANCH   1   7
BRANCH   1  19
ATOM     19  C   UNL     1      43.306   3.986  11.041  0.00  0.00    +0.000 C 
BRANCH  19  20
ATOM     20  N   UNL     1      43.938   2.780  10.475  0.00  0.00    +0.000 N 
ATOM     21  C   UNL     1      44.823   3.035   9.419  0.00  0.00    +0.000 A 
ATOM     22  C   UNL     1      45.498   1.965   8.850  0.00  0.00    +0.000 A 
ATOM     23  C   UNL     1      46.408   2.200   7.819  0.00  0.00    +0.000 A 
ATOM     24  C   UNL     1      46.624   3.504   7.383  0.00  0.00    +0.000 A 
ATOM     25  C   UNL     1      45.924   4.511   8.014  0.00  0.00    +0.000 A 
ATOM     26  N   UNL     1      45.053   4.301   9.021  0.00  0.00    +0.000 NA
ATOM     27  H   UNL     1      43.252   2.083  10.192  0.00  0.00    +0.000 HD
BRANCH  23  28
ATOM     28  C   UNL     1      47.118   1.024   7.243  0.00  0.00    +0.000 C 
ATOM     29  N   UNL     1      46.774  -0.227   7.676  0.00  0.00    +0.000 N 
ATOM     30  O   UNL     1      47.998   1.160   6.401  0.00  0.00    +0.000 OA
ATOM     31  H   UNL     1      46.092  -0.439   8.381  0.00  0.00    +0.000 HD
ATOM     32  H   UNL     1      47.286  -0.996   7.269  0.00  0.00    +0.000 HD
ENDBRANCH  23  28
ENDBRANCH  19  20
ENDBRANCH   1  19
TORSDOF 6
ENDMDL
MODEL 5
REMARK VINA RESULT:    -8.826      3.197      4.059
REMARK INTER + INTRA:         -11.976
REMARK INTER:                 -11.269
REMARK INTRA:                  -0.708
REMARK UNBOUND:                -0.313
REMARK  Name = 
REMARK  7 active torsions:
REMARK  status: ('A' for Active; 'I' for Inactive)
REMARK    1  A    between atoms: C_1  and  C_2
REMARK    2  A    between atoms: C_2  and  O_3
REMARK    3  A    between atoms: C_5  and  N_6
REMARK    4  A    between atoms: C_9  and  C_10
REMARK    5  A    between atoms: C_10  and  C_13
REMARK    6  A    between atoms: C_13  and  N_14
REMARK    7  A    between atoms: C_17  and  C_18
REMARK                            x       y       z     vdW  Elec       q    Type
REMARK                         _______ _______ _______ _____ _____    ______ ____
ROOT
ATOM      1  C   UNL     1      44.100   3.839  12.521  0.00  0.00    +0.000 C 
ATOM      2  F   UNL     1      44.984   2.879  12.954  0.00  0.00    +0.000 F 
ATOM      3  F   UNL     1      43.203   3.956  13.543  0.00  0.00    +0.000 F 
ENDROOT
BRANCH   1   7
ATOM      4  N   UNL     1      48.137   6.686  12.726  0.00  0.00    +0.000 N 
ATOM      5  C   UNL     1      46.775   6.581  12.377  0.00  0.00    +0.000 A 
ATOM      6  C   UNL     1      46.183   5.335  12.547  0.00  0.00    +0.000 A 
ATOM      7  C   UNL     1      44.821   5.154  12.288  0.00  0.00    +0.000 A 
ATOM      8  C   UNL     1      44.107   6.257  11.808  0.00  0.00    +0.000 A 
ATOM      9  C   UNL     1      44.773   7.462  11.652  0.00  0.00    +0.000 A 
ATOM     10  N   UNL     1      46.081   7.647  11.945  0.00  0.00    +0.000 NA
ATOM     11  H   UNL     1      48.679   6.111  12.086  0.00  0.00    +0.000 HD
BRANCH   4  15
ATOM     12  C   UNL     1      52.119   8.536  12.339  0.00  0.00    +0.000 C 
ATOM     13  C   UNL     1      50.703   8.830  12.809  0.00  0.00    +0.000 C 
ATOM     14  C   UNL     1      50.104   7.757  13.756  0.00  0.00    +0.000 C 
ATOM     15  C   UNL     1      48.762   7.938  13.008  0.00  0.00    +0.000 C 
ATOM     16  C   UNL     1      49.582   8.452  11.801  0.00  0.00    +0.000 C 
BRANCH  13  17
ATOM     17  O   UNL     1      50.637  10.187  13.298  0.00  0.00    +0.000 OA
ATOM     18  H   UNL     1      49.844  10.215  13.862  0.00  0.00    +0.000 HD
ENDBRANCH  13  17
ENDBRANCH   4  15
ENDBRANCH   1   7
BRANCH   1  19
ATOM     19  C   UNL     1      43.406   3.263  11.254  0.00  0.00    +0.000 C 
BRANCH  19  20
ATOM     20  N   UNL     1      44.171   2.246  10.510  0.00  0.00    +0.000 N 
ATOM     21  C   UNL     1      44.930   2.758   9.448  0.00  0.00    +0.000 A 
ATOM     22  C   UNL     1      45.716   1.880   8.715  0.00  0.00    +0.000 A 
ATOM     23  C   UNL     1      46.504   2.374   7.675  0.00  0.00    +0.000 A 
ATOM     24  C   UNL     1      46.488   3.737   7.394  0.00  0.00    +0.000 A 
ATOM     25  C   UNL     1      45.691   4.541   8.182  0.00  0.00    +0.000 A 
ATOM     26  N   UNL     1      44.936   4.082   9.199  0.00  0.00    +0.000 NA
ATOM     27  H   UNL     1      43.579   1.486  10.178  0.00  0.00    +0.000 HD
BRANCH  23  28
ATOM     28  C   UNL     1      47.340   1.399   6.920  0.00  0.00    +0.000 C 
ATOM     29  N   UNL     1      48.387   1.870   6.176  0.00  0.00    +0.000 N 
ATOM     30  O   UNL     1      47.102   0.198   6.951  0.00  0.00    +0.000 OA
ATOM     31  H   UNL     1      48.641   2.834   6.061  0.00  0.00    +0.000 HD
ATOM     32  H   UNL     1      48.921   1.178   5.671  0.00  0.00    +0.000 HD
ENDBRANCH  23  28
ENDBRANCH  19  20
ENDBRANCH   1  19
TORSDOF 6
ENDMDL
MODEL 6
REMARK VINA RESULT:    -7.925      3.233      3.799
REMARK INTER + INTRA:         -10.787
REMARK INTER:                  -9.948
REMARK INTRA:                  -0.838
REMARK UNBOUND:                -0.313
REMARK  Name = 
REMARK  7 active torsions:
REMARK  status: ('A' for Active; 'I' for Inactive)
REMARK    1  A    between atoms: C_1  and  C_2
REMARK    2  A    between atoms: C_2  and  O_3
REMARK    3  A    between atoms: C_5  and  N_6
REMARK    4  A    between atoms: C_9  and  C_10
REMARK    5  A    between atoms: C_10  and  C_13
REMARK    6  A    between atoms: C_13  and  N_14
REMARK    7  A    between atoms: C_17  and  C_18
REMARK                            x       y       z     vdW  Elec       q    Type
REMARK                         _______ _______ _______ _____ _____    ______ ____
ROOT
ATOM      1  C   UNL     1      44.615   5.432  12.013  0.00  0.00    +0.000 C 
ATOM      2  F   UNL     1      45.351   4.323  12.356  0.00  0.00    +0.000 F 
ATOM      3  F   UNL     1      43.654   5.511  12.979  0.00  0.00    +0.000 F 
ENDROOT
BRANCH   1   7
ATOM      4  N   UNL     1      49.031   7.640  12.266  0.00  0.00    +0.000 N 
ATOM      5  C   UNL     1      47.634   7.790  12.151  0.00  0.00    +0.000 A 
ATOM      6  C   UNL     1      46.887   6.621  12.075  0.00  0.00    +0.000 A 
ATOM      7  C   UNL     1      45.490   6.672  12.024  0.00  0.00    +0.000 A 
ATOM      8  C   UNL     1      44.894   7.938  12.003  0.00  0.00    +0.000 A 
ATOM      9  C   UNL     1      45.710   9.056  12.068  0.00  0.00    +0.000 A 
ATOM     10  N   UNL     1      47.059   9.005  12.161  0.00  0.00    +0.000 NA
ATOM     11  H   UNL     1      49.382   7.226  11.406  0.00  0.00    +0.000 HD
BRANCH   4  15
ATOM     12  C   UNL     1      52.715   8.019  14.655  0.00  0.00    +0.000 C 
ATOM     13  C   UNL     1      51.672   8.850  13.923  0.00  0.00    +0.000 C 
ATOM     14  C   UNL     1      50.203   8.483  14.264  0.00  0.00    +0.000 C 
ATOM     15  C   UNL     1      49.876   8.678  12.764  0.00  0.00    +0.000 C 
ATOM     16  C   UNL     1      51.366   8.391  12.470  0.00  0.00    +0.000 C 
BRANCH  13  17
ATOM     17  O   UNL     1      52.003  10.249  14.054  0.00  0.00    +0.000 OA
ATOM     18  H   UNL     1      52.881  10.341  13.644  0.00  0.00    +0.000 HD
ENDBRANCH  13  17
ENDBRANCH   4  15
ENDBRANCH   1   7
BRANCH   1  19
ATOM     19  C   UNL     1      43.969   5.125  10.630  0.00  0.00    +0.000 C 
BRANCH  19  20
ATOM     20  N   UNL     1      44.872   5.206   9.468  0.00  0.00    +0.000 N 
ATOM     21  C   UNL     1      45.288   3.963   8.974  0.00  0.00    +0.000 A 
ATOM     22  C   UNL     1      46.108   3.938   7.855  0.00  0.00    +0.000 A 
ATOM     23  C   UNL     1      46.507   2.709   7.327  0.00  0.00    +0.000 A 
ATOM     24  C   UNL     1      46.074   1.533   7.931  0.00  0.00    +0.000 A 
ATOM     25  C   UNL     1      45.248   1.648   9.030  0.00  0.00    +0.000 A 
ATOM     26  N   UNL     1      44.842   2.826   9.542  0.00  0.00    +0.000 NA
ATOM     27  H   UNL     1      45.682   5.795   9.651  0.00  0.00    +0.000 HD
BRANCH  23  28
ATOM     28  C   UNL     1      47.379   2.728   6.119  0.00  0.00    +0.000 C 
ATOM     29  N   UNL     1      48.717   2.489   6.271  0.00  0.00    +0.000 N 
ATOM     30  O   UNL     1      46.921   2.958   5.006  0.00  0.00    +0.000 OA
ATOM     31  H   UNL     1      49.190   2.324   7.141  0.00  0.00    +0.000 HD
ATOM     32  H   UNL     1      49.274   2.522   5.430  0.00  0.00    +0.000 HD
ENDBRANCH  23  28
ENDBRANCH  19  20
ENDBRANCH   1  19
TORSDOF 6
ENDMDL
MODEL 7
REMARK VINA RESULT:    -7.513      3.370      8.388
REMARK INTER + INTRA:         -10.242
REMARK INTER:                  -9.445
REMARK INTRA:                  -0.798
REMARK UNBOUND:                -0.313
REMARK  Name = 
REMARK  7 active torsions:
REMARK  status: ('A' for Active; 'I' for Inactive)
REMARK    1  A    between atoms: C_1  and  C_2
REMARK    2  A    between atoms: C_2  and  O_3
REMARK    3  A    between atoms: C_5  and  N_6
REMARK    4  A    between atoms: C_9  and  C_10
REMARK    5  A    between atoms: C_10  and  C_13
REMARK    6  A    between atoms: C_13  and  N_14
REMARK    7  A    between atoms: C_17  and  C_18
REMARK                            x       y       z     vdW  Elec       q    Type
REMARK                         _______ _______ _______ _____ _____    ______ ____
ROOT
ATOM      1  C   UNL     1      49.131   7.635  15.014  0.00  0.00    +0.000 C 
ATOM      2  F   UNL     1      50.131   6.926  14.393  0.00  0.00    +0.000 F 
ATOM      3  F   UNL     1      49.610   8.912  15.073  0.00  0.00    +0.000 F 
ENDROOT
BRANCH   1   7
ATOM      4  N   UNL     1      45.785   5.172  12.334  0.00  0.00    +0.000 N 
ATOM      5  C   UNL     1      46.198   6.408  12.872  0.00  0.00    +0.000 A 
ATOM      6  C   UNL     1      47.335   6.390  13.672  0.00  0.00    +0.000 A 
ATOM      7  C   UNL     1      47.854   7.578  14.195  0.00  0.00    +0.000 A 
ATOM      8  C   UNL     1      47.157   8.760  13.920  0.00  0.00    +0.000 A 
ATOM      9  C   UNL     1      46.023   8.691  13.127  0.00  0.00    +0.000 A 
ATOM     10  N   UNL     1      45.547   7.547  12.585  0.00  0.00    +0.000 NA
ATOM     11  H   UNL     1      45.490   4.570  13.099  0.00  0.00    +0.000 HD
BRANCH   4  15
ATOM     12  C   UNL     1      45.851   3.387   8.305  0.00  0.00    +0.000 C 
ATOM     13  C   UNL     1      44.970   4.201   9.240  0.00  0.00    +0.000 C 
ATOM     14  C   UNL     1      45.673   5.424   9.885  0.00  0.00    +0.000 C 
ATOM     15  C   UNL     1      44.928   5.079  11.196  0.00  0.00    +0.000 C 
ATOM     16  C   UNL     1      44.825   3.626  10.676  0.00  0.00    +0.000 C 
BRANCH  13  17
ATOM     17  O   UNL     1      43.717   4.488   8.580  0.00  0.00    +0.000 OA
ATOM     18  H   UNL     1      43.876   5.310   8.084  0.00  0.00    +0.000 HD
ENDBRANCH  13  17
ENDBRANCH   4  15
ENDBRANCH   1   7
BRANCH   1  19
ATOM     19  C   UNL     1      48.992   7.042  16.446  0.00  0.00    +0.000 C 
BRANCH  19  20
ATOM     20  N   UNL     1      50.125   6.223  16.914  0.00  0.00    +0.000 N 
ATOM     21  C   UNL     1      49.859   4.848  16.966  0.00  0.00    +0.000 A 
ATOM     22  C   UNL     1      50.879   3.993  17.356  0.00  0.00    +0.000 A 
ATOM     23  C   UNL     1      50.646   2.617  17.384  0.00  0.00    +0.000 A 
ATOM     24  C   UNL     1      49.395   2.130  17.018  0.00  0.00    +0.000 A 
ATOM     25  C   UNL     1      48.442   3.048  16.628  0.00  0.00    +0.000 A 
ATOM     26  N   UNL     1      48.657   4.377  16.581  0.00  0.00    +0.000 NA
ATOM     27  H   UNL     1      50.484   6.541  17.813  0.00  0.00    +0.000 HD
BRANCH  23  28
ATOM     28  C   UNL     1      51.772   1.734  17.799  0.00  0.00    +0.000 C 
ATOM     29  N   UNL     1      51.513   0.415  18.052  0.00  0.00    +0.000 N 
ATOM     30  O   UNL     1      52.911   2.169  17.921  0.00  0.00    +0.000 OA
ATOM     31  H   UNL     1      50.612  -0.026  18.011  0.00  0.00    +0.000 HD
ATOM     32  H   UNL     1      52.300  -0.146  18.341  0.00  0.00    +0.000 HD
ENDBRANCH  23  28
ENDBRANCH  19  20
ENDBRANCH   1  19
TORSDOF 6
ENDMDL
MODEL 8
REMARK VINA RESULT:    -7.462      2.511      8.513
REMARK INTER + INTRA:         -10.174
REMARK INTER:                  -9.375
REMARK INTRA:                  -0.799
REMARK UNBOUND:                -0.313
REMARK  Name = 
REMARK  7 active torsions:
REMARK  status: ('A' for Active; 'I' for Inactive)
REMARK    1  A    between atoms: C_1  and  C_2
REMARK    2  A    between atoms: C_2  and  O_3
REMARK    3  A    between atoms: C_5  and  N_6
REMARK    4  A    between atoms: C_9  and  C_10
REMARK    5  A    between atoms: C_10  and  C_13
REMARK    6  A    between atoms: C_13  and  N_14
REMARK    7  A    between atoms: C_17  and  C_18
REMARK                            x       y       z     vdW  Elec       q    Type
REMARK                         _______ _______ _______ _____ _____    ______ ____
ROOT
ATOM      1  C   UNL     1      47.959   8.391  13.917  0.00  0.00    +0.000 C 
ATOM      2  F   UNL     1      48.608   9.452  13.332  0.00  0.00    +0.000 F 
ATOM      3  F   UNL     1      47.492   8.891  15.098  0.00  0.00    +0.000 F 
ENDROOT
BRANCH   1   7
ATOM      4  N   UNL     1      45.586   4.897  11.347  0.00  0.00    +0.000 N 
ATOM      5  C   UNL     1      45.623   6.243  11.767  0.00  0.00    +0.000 A 
ATOM      6  C   UNL     1      46.658   6.598  12.624  0.00  0.00    +0.000 A 
ATOM      7  C   UNL     1      46.811   7.924  13.040  0.00  0.00    +0.000 A 
ATOM      8  C   UNL     1      45.860   8.850  12.599  0.00  0.00    +0.000 A 
ATOM      9  C   UNL     1      44.850   8.413  11.757  0.00  0.00    +0.000 A 
ATOM     10  N   UNL     1      44.728   7.138  11.320  0.00  0.00    +0.000 NA
ATOM     11  H   UNL     1      45.394   4.312  12.156  0.00  0.00    +0.000 HD
BRANCH   4  15
ATOM     12  C   UNL     1      46.381   2.621   7.658  0.00  0.00    +0.000 C 
ATOM     13  C   UNL     1      45.274   3.363   8.392  0.00  0.00    +0.000 C 
ATOM     14  C   UNL     1      45.669   4.779   8.886  0.00  0.00    +0.000 C 
ATOM     15  C   UNL     1      44.878   4.477  10.181  0.00  0.00    +0.000 C 
ATOM     16  C   UNL     1      45.102   2.975   9.887  0.00  0.00    +0.000 C 
BRANCH  13  17
ATOM     17  O   UNL     1      44.061   3.298   7.612  0.00  0.00    +0.000 OA
ATOM     18  H   UNL     1      44.071   2.416   7.200  0.00  0.00    +0.000 HD
ENDBRANCH  13  17
ENDBRANCH   4  15
ENDBRANCH   1   7
BRANCH   1  19
ATOM     19  C   UNL     1      49.039   7.302  14.180  0.00  0.00    +0.000 C 
BRANCH  19  20
ATOM     20  N   UNL     1      49.377   7.061  15.594  0.00  0.00    +0.000 N 
ATOM     21  C   UNL     1      48.775   5.920  16.144  0.00  0.00    +0.000 A 
ATOM     22  C   UNL     1      49.067   5.590  17.460  0.00  0.00    +0.000 A 
ATOM     23  C   UNL     1      48.505   4.440  18.016  0.00  0.00    +0.000 A 
ATOM     24  C   UNL     1      47.664   3.647  17.241  0.00  0.00    +0.000 A 
ATOM     25  C   UNL     1      47.440   4.040  15.938  0.00  0.00    +0.000 A 
ATOM     26  N   UNL     1      47.987   5.138  15.382  0.00  0.00    +0.000 NA
ATOM     27  H   UNL     1      49.183   7.872  16.180  0.00  0.00    +0.000 HD
BRANCH  23  28
ATOM     28  C   UNL     1      48.852   4.117  19.428  0.00  0.00    +0.000 C 
ATOM     29  N   UNL     1      48.297   3.006  20.003  0.00  0.00    +0.000 N 
ATOM     30  O   UNL     1      49.612   4.826  20.076  0.00  0.00    +0.000 OA
ATOM     31  H   UNL     1      47.642   2.383  19.567  0.00  0.00    +0.000 HD
ATOM     32  H   UNL     1      48.549   2.828  20.964  0.00  0.00    +0.000 HD
ENDBRANCH  23  28
ENDBRANCH  19  20
ENDBRANCH   1  19
TORSDOF 6
ENDMDL
