MODEL 1
REMARK VINA RESULT:    -9.841      0.000      0.000
REMARK INTER + INTRA:         -11.505
REMARK INTER:                 -11.567
REMARK INTRA:                   0.062
REMARK UNBOUND:                 0.062
REMARK  Name = 
REMARK  5 active torsions:
REMARK  status: ('A' for Active; 'I' for Inactive)
REMARK    1  A    between atoms: C_1  and  C_2
REMARK    2  A    between atoms: C_6  and  C_7
REMARK    3  A    between atoms: C_13  and  C_14
REMARK    4  A    between atoms: C_14  and  N_15
REMARK    5  A    between atoms: C_19  and  C_20
REMARK                            x       y       z     vdW  Elec       q    Type
REMARK                         _______ _______ _______ _____ _____    ______ ____
ROOT
ATOM      1  C   UNL     1      43.986   5.134  11.214  0.00  0.00    +0.000 C 
ATOM      2  C   UNL     1      42.631   5.679  11.625  0.00  0.00    +0.000 C 
ATOM      3  C   UNL     1      42.809   4.199  11.526  0.00  0.00    +0.000 C 
ENDROOT
BRANCH   1  16
ATOM      4  C   UNL     1      49.651   7.578  14.997  0.00  0.00    +0.000 C 
ATOM      5  C   UNL     1      49.141   7.105  13.634  0.00  0.00    +0.000 C 
ATOM      6  C   UNL     1      49.904   7.780  12.472  0.00  0.00    +0.000 C 
ATOM      7  O   UNL     1      49.600   9.173  12.355  0.00  0.00    +0.000 OA
ATOM      8  C   UNL     1      48.199   9.350  12.093  0.00  0.00    +0.000 C 
ATOM      9  C   UNL     1      47.328   8.784  13.234  0.00  0.00    +0.000 C 
ATOM     10  C   UNL     1      45.856   9.085  12.981  0.00  0.00    +0.000 C 
ATOM     11  N   UNL     1      47.683   7.371  13.531  0.00  0.00    +0.000 N 
ATOM     12  C   UNL     1      46.849   6.276  13.367  0.00  0.00    +0.000 A 
ATOM     13  C   UNL     1      47.037   5.106  14.120  0.00  0.00    +0.000 A 
ATOM     14  N   UNL     1      46.339   3.958  13.961  0.00  0.00    +0.000 NA
ATOM     15  C   UNL     1      45.390   4.014  13.003  0.00  0.00    +0.000 A 
ATOM     16  C   UNL     1      45.112   5.154  12.258  0.00  0.00    +0.000 A 
ATOM     17  N   UNL     1      45.847   6.294  12.459  0.00  0.00    +0.000 NA
ENDBRANCH   1  16
BRANCH   1  18
ATOM     18  N   UNL     1      44.397   5.131   9.793  0.00  0.00    +0.000 N 
ATOM     19  C   UNL     1      45.124   4.154   9.117  0.00  0.00    +0.000 A 
ATOM     20  C   UNL     1      45.156   2.805   9.452  0.00  0.00    +0.000 A 
ATOM     21  C   UNL     1      45.852   1.897   8.648  0.00  0.00    +0.000 A 
ATOM     22  C   UNL     1      46.513   2.362   7.516  0.00  0.00    +0.000 A 
ATOM     23  C   UNL     1      46.425   3.714   7.235  0.00  0.00    +0.000 A 
ATOM     24  N   UNL     1      45.756   4.607   8.010  0.00  0.00    +0.000 NA
ATOM     25  H   UNL     1      44.658   6.017   9.367  0.00  0.00    +0.000 HD
BRANCH  22  26
ATOM     26  C   UNL     1      47.270   1.482   6.603  0.00  0.00    +0.000 C 
ATOM     27  N   UNL     1      48.232   2.060   5.823  0.00  0.00    +0.000 N 
ATOM     28  O   UNL     1      47.025   0.287   6.518  0.00  0.00    +0.000 OA
ATOM     29  H   UNL     1      48.304   3.059   5.689  0.00  0.00    +0.000 HD
ATOM     30  H   UNL     1      48.667   1.463   5.131  0.00  0.00    +0.000 HD
ENDBRANCH  22  26
ENDBRANCH   1  18
TORSDOF 3
ENDMDL
MODEL 2
REMARK VINA RESULT:    -7.357      4.987      8.096
REMARK INTER + INTRA:          -8.584
REMARK INTER:                  -8.216
REMARK INTRA:                  -0.369
REMARK UNBOUND:                 0.062
REMARK  Name = 
REMARK  5 active torsions:
REMARK  status: ('A' for Active; 'I' for Inactive)
REMARK    1  A    between atoms: C_1  and  C_2
REMARK    2  A    between atoms: C_6  and  C_7
REMARK    3  A    between atoms: C_13  and  C_14
REMARK    4  A    between atoms: C_14  and  N_15
REMARK    5  A    between atoms: C_19  and  C_20
REMARK                            x       y       z     vdW  Elec       q    Type
REMARK                         _______ _______ _______ _____ _____    ______ ____
ROOT
ATOM      1  C   UNL     1      49.131   5.349  17.528  0.00  0.00    +0.000 C 
ATOM      2  C   UNL     1      48.422   5.324  18.868  0.00  0.00    +0.000 C 
ATOM      3  C   UNL     1      48.820   6.643  18.293  0.00  0.00    +0.000 C 
ENDROOT
BRANCH   1  16
ATOM      4  C   UNL     1      45.992   6.652  11.138  0.00  0.00    +0.000 C 
ATOM      5  C   UNL     1      46.046   7.011  12.624  0.00  0.00    +0.000 C 
ATOM      6  C   UNL     1      45.651   8.484  12.872  0.00  0.00    +0.000 C 
ATOM      7  O   UNL     1      46.634   9.403  12.383  0.00  0.00    +0.000 OA
ATOM      8  C   UNL     1      47.885   9.188  13.054  0.00  0.00    +0.000 C 
ATOM      9  C   UNL     1      48.426   7.764  12.810  0.00  0.00    +0.000 C 
ATOM     10  C   UNL     1      49.805   7.602  13.440  0.00  0.00    +0.000 C 
ATOM     11  N   UNL     1      47.408   6.735  13.151  0.00  0.00    +0.000 N 
ATOM     12  C   UNL     1      47.518   5.791  14.160  0.00  0.00    +0.000 A 
ATOM     13  C   UNL     1      46.810   4.580  14.095  0.00  0.00    +0.000 A 
ATOM     14  N   UNL     1      46.777   3.645  15.073  0.00  0.00    +0.000 NA
ATOM     15  C   UNL     1      47.520   3.952  16.158  0.00  0.00    +0.000 A 
ATOM     16  C   UNL     1      48.288   5.104  16.268  0.00  0.00    +0.000 A 
ATOM     17  N   UNL     1      48.288   6.020  15.247  0.00  0.00    +0.000 NA
ENDBRANCH   1  16
BRANCH   1  18
ATOM     18  N   UNL     1      50.574   5.038  17.433  0.00  0.00    +0.000 N 
ATOM     19  C   UNL     1      51.191   3.797  17.575  0.00  0.00    +0.000 A 
ATOM     20  C   UNL     1      50.592   2.571  17.311  0.00  0.00    +0.000 A 
ATOM     21  C   UNL     1      51.335   1.390  17.405  0.00  0.00    +0.000 A 
ATOM     22  C   UNL     1      52.676   1.461  17.768  0.00  0.00    +0.000 A 
ATOM     23  C   UNL     1      53.211   2.716  17.999  0.00  0.00    +0.000 A 
ATOM     24  N   UNL     1      52.498   3.870  17.917  0.00  0.00    +0.000 NA
ATOM     25  H   UNL     1      51.236   5.722  17.792  0.00  0.00    +0.000 HD
BRANCH  22  26
ATOM     26  C   UNL     1      53.545   0.273  17.888  0.00  0.00    +0.000 C 
ATOM     27  N   UNL     1      53.898  -0.369  16.734  0.00  0.00    +0.000 N 
ATOM     28  O   UNL     1      53.908  -0.145  18.978  0.00  0.00    +0.000 OA
ATOM     29  H   UNL     1      53.438  -0.204  15.850  0.00  0.00    +0.000 HD
ATOM     30  H   UNL     1      54.406  -1.238  16.842  0.00  0.00    +0.000 HD
ENDBRANCH  22  26
ENDBRANCH   1  18
TORSDOF 3
ENDMDL
MODEL 3
REMARK VINA RESULT:    -7.312      3.905      6.159
REMARK INTER + INTRA:          -8.532
REMARK INTER:                  -8.132
REMARK INTRA:                  -0.400
REMARK UNBOUND:                 0.062
REMARK  Name = 
REMARK  5 active torsions:
REMARK  status: ('A' for Active; 'I' for Inactive)
REMARK    1  A    between atoms: C_1  and  C_2
REMARK    2  A    between atoms: C_6  and  C_7
REMARK    3  A    between atoms: C_13  and  C_14
REMARK    4  A    between atoms: C_14  and  N_15
REMARK    5  A    between atoms: C_19  and  C_20
REMARK                            x       y       z     vdW  Elec       q    Type
REMARK                         _______ _______ _______ _____ _____    ______ ____
ROOT
ATOM      1  C   UNL     1      48.520   7.810  13.371  0.00  0.00    +0.000 C 
ATOM      2  C   UNL     1      49.147   7.864  11.991  0.00  0.00    +0.000 C 
ATOM      3  C   UNL     1      48.890   9.146  12.712  0.00  0.00    +0.000 C 
ENDROOT
BRANCH   1  16
ATOM      4  C   UNL     1      50.354   5.082  19.819  0.00  0.00    +0.000 C 
ATOM      5  C   UNL     1      49.625   6.201  19.073  0.00  0.00    +0.000 C 
ATOM      6  C   UNL     1      48.435   6.753  19.889  0.00  0.00    +0.000 C 
ATOM      7  O   UNL     1      47.360   5.813  19.990  0.00  0.00    +0.000 OA
ATOM      8  C   UNL     1      46.858   5.499  18.681  0.00  0.00    +0.000 C 
ATOM      9  C   UNL     1      47.945   4.859  17.792  0.00  0.00    +0.000 C 
ATOM     10  C   UNL     1      47.357   4.435  16.452  0.00  0.00    +0.000 C 
ATOM     11  N   UNL     1      49.170   5.701  17.750  0.00  0.00    +0.000 N 
ATOM     12  C   UNL     1      49.683   6.327  16.625  0.00  0.00    +0.000 A 
ATOM     13  C   UNL     1      51.048   6.647  16.536  0.00  0.00    +0.000 A 
ATOM     14  N   UNL     1      51.620   7.342  15.526  0.00  0.00    +0.000 NA
ATOM     15  C   UNL     1      50.762   7.709  14.550  0.00  0.00    +0.000 A 
ATOM     16  C   UNL     1      49.412   7.380  14.545  0.00  0.00    +0.000 A 
ATOM     17  N   UNL     1      48.881   6.672  15.593  0.00  0.00    +0.000 NA
ENDBRANCH   1  16
BRANCH   1  18
ATOM     18  N   UNL     1      47.065   7.600  13.530  0.00  0.00    +0.000 N 
ATOM     19  C   UNL     1      46.306   6.517  13.091  0.00  0.00    +0.000 A 
ATOM     20  C   UNL     1      46.787   5.226  12.904  0.00  0.00    +0.000 A 
ATOM     21  C   UNL     1      45.913   4.195  12.544  0.00  0.00    +0.000 A 
ATOM     22  C   UNL     1      44.563   4.480  12.372  0.00  0.00    +0.000 A 
ATOM     23  C   UNL     1      44.152   5.783  12.591  0.00  0.00    +0.000 A 
ATOM     24  N   UNL     1      44.991   6.795  12.936  0.00  0.00    +0.000 NA
ATOM     25  H   UNL     1      46.454   8.411  13.470  0.00  0.00    +0.000 HD
BRANCH  22  26
ATOM     26  C   UNL     1      43.562   3.461  11.998  0.00  0.00    +0.000 C 
ATOM     27  N   UNL     1      43.728   2.200  12.500  0.00  0.00    +0.000 N 
ATOM     28  O   UNL     1      42.638   3.720  11.241  0.00  0.00    +0.000 OA
ATOM     29  H   UNL     1      44.589   1.888  12.928  0.00  0.00    +0.000 HD
ATOM     30  H   UNL     1      43.095   1.492  12.152  0.00  0.00    +0.000 HD
ENDBRANCH  22  26
ENDBRANCH   1  18
TORSDOF 3
ENDMDL
MODEL 4
REMARK VINA RESULT:    -7.016      3.389      8.480
REMARK INTER + INTRA:          -8.184
REMARK INTER:                  -7.644
REMARK INTRA:                  -0.540
REMARK UNBOUND:                 0.062
REMARK  Name = 
REMARK  5 active torsions:
REMARK  status: ('A' for Active; 'I' for Inactive)
REMARK    1  A    between atoms: C_1  and  C_2
REMARK    2  A    between atoms: C_6  and  C_7
REMARK    3  A    between atoms: C_13  and  C_14
REMARK    4  A    between atoms: C_14  and  N_15
REMARK    5  A    between atoms: C_19  and  C_20
REMARK                            x       y       z     vdW  Elec       q    Type
REMARK                         _______ _______ _______ _____ _____    ______ ____
ROOT
ATOM      1  C   UNL     1      49.115   7.862  12.654  0.00  0.00    +0.000 C 
ATOM      2  C   UNL     1      49.952   9.033  12.176  0.00  0.00    +0.000 C 
ATOM      3  C   UNL     1      49.946   7.778  11.366  0.00  0.00    +0.000 C 
ENDROOT
BRANCH   1  16
ATOM      4  C   UNL     1      42.285   5.631  11.788  0.00  0.00    +0.000 C 
ATOM      5  C   UNL     1      43.686   5.700  11.179  0.00  0.00    +0.000 C 
ATOM      6  C   UNL     1      43.966   4.499  10.248  0.00  0.00    +0.000 C 
ATOM      7  O   UNL     1      44.095   3.269  10.968  0.00  0.00    +0.000 OA
ATOM      8  C   UNL     1      45.197   3.351  11.887  0.00  0.00    +0.000 C 
ATOM      9  C   UNL     1      44.990   4.472  12.927  0.00  0.00    +0.000 C 
ATOM     10  C   UNL     1      46.118   4.461  13.952  0.00  0.00    +0.000 C 
ATOM     11  N   UNL     1      44.697   5.771  12.266  0.00  0.00    +0.000 N 
ATOM     12  C   UNL     1      45.495   6.903  12.317  0.00  0.00    +0.000 A 
ATOM     13  C   UNL     1      44.945   8.182  12.135  0.00  0.00    +0.000 A 
ATOM     14  N   UNL     1      45.656   9.332  12.070  0.00  0.00    +0.000 NA
ATOM     15  C   UNL     1      46.988   9.170  12.220  0.00  0.00    +0.000 A 
ATOM     16  C   UNL     1      47.594   7.943  12.458  0.00  0.00    +0.000 A 
ATOM     17  N   UNL     1      46.828   6.807  12.517  0.00  0.00    +0.000 NA
ENDBRANCH   1  16
BRANCH   1  18
ATOM     18  N   UNL     1      49.599   6.984  13.742  0.00  0.00    +0.000 N 
ATOM     19  C   UNL     1      49.585   7.235  15.112  0.00  0.00    +0.000 A 
ATOM     20  C   UNL     1      48.681   8.066  15.764  0.00  0.00    +0.000 A 
ATOM     21  C   UNL     1      48.705   8.175  17.158  0.00  0.00    +0.000 A 
ATOM     22  C   UNL     1      49.647   7.448  17.879  0.00  0.00    +0.000 A 
ATOM     23  C   UNL     1      50.504   6.629  17.165  0.00  0.00    +0.000 A 
ATOM     24  N   UNL     1      50.495   6.518  15.811  0.00  0.00    +0.000 NA
ATOM     25  H   UNL     1      50.430   6.422  13.570  0.00  0.00    +0.000 HD
BRANCH  22  26
ATOM     26  C   UNL     1      49.748   7.492  19.351  0.00  0.00    +0.000 C 
ATOM     27  N   UNL     1      48.587   7.627  20.060  0.00  0.00    +0.000 N 
ATOM     28  O   UNL     1      50.831   7.445  19.918  0.00  0.00    +0.000 OA
ATOM     29  H   UNL     1      47.713   7.903  19.635  0.00  0.00    +0.000 HD
ATOM     30  H   UNL     1      48.684   7.760  21.059  0.00  0.00    +0.000 HD
ENDBRANCH  22  26
ENDBRANCH   1  18
TORSDOF 3
ENDMDL
MODEL 5
REMARK VINA RESULT:    -7.010      3.247      5.119
REMARK INTER + INTRA:          -8.177
REMARK INTER:                  -8.045
REMARK INTRA:                  -0.132
REMARK UNBOUND:                 0.062
REMARK  Name = 
REMARK  5 active torsions:
REMARK  status: ('A' for Active; 'I' for Inactive)
REMARK    1  A    between atoms: C_1  and  C_2
REMARK    2  A    between atoms: C_6  and  C_7
REMARK    3  A    between atoms: C_13  and  C_14
REMARK    4  A    between atoms: C_14  and  N_15
REMARK    5  A    between atoms: C_19  and  C_20
REMARK                            x       y       z     vdW  Elec       q    Type
REMARK                         _______ _______ _______ _____ _____    ______ ____
ROOT
ATOM      1  C   UNL     1      47.790   3.938  16.057  0.00  0.00    +0.000 C 
ATOM      2  C   UNL     1      47.132   3.253  17.240  0.00  0.00    +0.000 C 
ATOM      3  C   UNL     1      48.533   2.879  16.885  0.00  0.00    +0.000 C 
ENDROOT
BRANCH   1  16
ATOM      4  C   UNL     1      50.618  10.387  14.391  0.00  0.00    +0.000 C 
ATOM      5  C   UNL     1      50.881   8.890  14.563  0.00  0.00    +0.000 C 
ATOM      6  C   UNL     1      52.014   8.398  13.635  0.00  0.00    +0.000 C 
ATOM      7  O   UNL     1      51.631   8.402  12.256  0.00  0.00    +0.000 OA
ATOM      8  C   UNL     1      50.514   7.522  12.054  0.00  0.00    +0.000 C 
ATOM      9  C   UNL     1      49.284   7.964  12.873  0.00  0.00    +0.000 C 
ATOM     10  C   UNL     1      48.084   7.080  12.554  0.00  0.00    +0.000 C 
ATOM     11  N   UNL     1      49.627   8.135  14.310  0.00  0.00    +0.000 N 
ATOM     12  C   UNL     1      49.116   7.386  15.358  0.00  0.00    +0.000 A 
ATOM     13  C   UNL     1      49.068   7.908  16.661  0.00  0.00    +0.000 A 
ATOM     14  N   UNL     1      48.679   7.220  17.760  0.00  0.00    +0.000 NA
ATOM     15  C   UNL     1      48.302   5.948  17.514  0.00  0.00    +0.000 A 
ATOM     16  C   UNL     1      48.271   5.384  16.244  0.00  0.00    +0.000 A 
ATOM     17  N   UNL     1      48.674   6.124  15.162  0.00  0.00    +0.000 NA
ENDBRANCH   1  16
BRANCH   1  18
ATOM     18  N   UNL     1      47.482   3.513  14.674  0.00  0.00    +0.000 N 
ATOM     19  C   UNL     1      46.415   3.918  13.875  0.00  0.00    +0.000 A 
ATOM     20  C   UNL     1      45.755   5.137  13.979  0.00  0.00    +0.000 A 
ATOM     21  C   UNL     1      44.753   5.475  13.064  0.00  0.00    +0.000 A 
ATOM     22  C   UNL     1      44.425   4.576  12.055  0.00  0.00    +0.000 A 
ATOM     23  C   UNL     1      45.135   3.389  12.001  0.00  0.00    +0.000 A 
ATOM     24  N   UNL     1      46.107   3.046  12.887  0.00  0.00    +0.000 NA
ATOM     25  H   UNL     1      47.674   2.548  14.415  0.00  0.00    +0.000 HD
BRANCH  22  26
ATOM     26  C   UNL     1      43.387   4.843  11.039  0.00  0.00    +0.000 C 
ATOM     27  N   UNL     1      43.752   4.751   9.726  0.00  0.00    +0.000 N 
ATOM     28  O   UNL     1      42.252   5.169  11.357  0.00  0.00    +0.000 OA
ATOM     29  H   UNL     1      44.716   4.719   9.424  0.00  0.00    +0.000 HD
ATOM     30  H   UNL     1      43.058   5.038   9.046  0.00  0.00    +0.000 HD
ENDBRANCH  22  26
ENDBRANCH   1  18
TORSDOF 3
ENDMDL
MODEL 6
REMARK VINA RESULT:    -6.934      4.909      7.281
REMARK INTER + INTRA:          -8.088
REMARK INTER:                  -7.794
REMARK INTRA:                  -0.293
REMARK UNBOUND:                 0.062
REMARK  Name = 
REMARK  5 active torsions:
REMARK  status: ('A' for Active; 'I' for Inactive)
REMARK    1  A    between atoms: C_1  and  C_2
REMARK    2  A    between atoms: C_6  and  C_7
REMARK    3  A    between atoms: C_13  and  C_14
REMARK    4  A    between atoms: C_14  and  N_15
REMARK    5  A    between atoms: C_19  and  C_20
REMARK                            x       y       z     vdW  Elec       q    Type
REMARK                         _______ _______ _______ _____ _____    ______ ____
ROOT
ATOM      1  C   UNL     1      48.073   4.386  16.928  0.00  0.00    +0.000 C 
ATOM      2  C   UNL     1      48.150   5.844  17.339  0.00  0.00    +0.000 C 
ATOM      3  C   UNL     1      47.401   4.892  18.212  0.00  0.00    +0.000 C 
ENDROOT
BRANCH   1  16
ATOM      4  C   UNL     1      54.819   2.598  18.846  0.00  0.00    +0.000 C 
ATOM      5  C   UNL     1      53.942   3.426  17.905  0.00  0.00    +0.000 C 
ATOM      6  C   UNL     1      54.646   4.730  17.467  0.00  0.00    +0.000 C 
ATOM      7  O   UNL     1      54.773   5.669  18.539  0.00  0.00    +0.000 OA
ATOM      8  C   UNL     1      53.473   6.039  19.025  0.00  0.00    +0.000 C 
ATOM      9  C   UNL     1      52.700   4.821  19.571  0.00  0.00    +0.000 C 
ATOM     10  C   UNL     1      51.373   5.261  20.180  0.00  0.00    +0.000 C 
ATOM     11  N   UNL     1      52.646   3.724  18.568  0.00  0.00    +0.000 N 
ATOM     12  C   UNL     1      51.498   3.234  17.966  0.00  0.00    +0.000 A 
ATOM     13  C   UNL     1      51.451   1.924  17.463  0.00  0.00    +0.000 A 
ATOM     14  N   UNL     1      50.414   1.392  16.775  0.00  0.00    +0.000 NA
ATOM     15  C   UNL     1      49.368   2.230  16.613  0.00  0.00    +0.000 A 
ATOM     16  C   UNL     1      49.324   3.518  17.131  0.00  0.00    +0.000 A 
ATOM     17  N   UNL     1      50.401   4.010  17.823  0.00  0.00    +0.000 NA
ENDBRANCH   1  16
BRANCH   1  18
ATOM     18  N   UNL     1      47.122   3.947  15.884  0.00  0.00    +0.000 N 
ATOM     19  C   UNL     1      46.794   4.601  14.698  0.00  0.00    +0.000 A 
ATOM     20  C   UNL     1      47.626   5.477  14.011  0.00  0.00    +0.000 A 
ATOM     21  C   UNL     1      47.225   6.009  12.781  0.00  0.00    +0.000 A 
ATOM     22  C   UNL     1      45.985   5.655  12.262  0.00  0.00    +0.000 A 
ATOM     23  C   UNL     1      45.216   4.765  12.992  0.00  0.00    +0.000 A 
ATOM     24  N   UNL     1      45.592   4.245  14.190  0.00  0.00    +0.000 NA
ATOM     25  H   UNL     1      46.277   3.462  16.178  0.00  0.00    +0.000 HD
BRANCH  22  26
ATOM     26  C   UNL     1      45.475   6.159  10.970  0.00  0.00    +0.000 C 
ATOM     27  N   UNL     1      44.553   7.167  11.007  0.00  0.00    +0.000 N 
ATOM     28  O   UNL     1      45.835   5.672   9.908  0.00  0.00    +0.000 OA
ATOM     29  H   UNL     1      44.060   7.432  11.848  0.00  0.00    +0.000 HD
ATOM     30  H   UNL     1      44.139   7.428  10.120  0.00  0.00    +0.000 HD
ENDBRANCH  22  26
ENDBRANCH   1  18
TORSDOF 3
ENDMDL
