MODEL 1
REMARK VINA RESULT:    -9.089      0.000      0.000
REMARK INTER + INTRA:         -14.270
REMARK INTER:                 -13.074
REMARK INTRA:                  -1.196
REMARK UNBOUND:                -1.196
REMARK  Name = 
REMARK  9 active torsions:
REMARK  status: ('A' for Active; 'I' for Inactive)
REMARK    1  A    between atoms: C_1  and  O_2
REMARK    2  A    between atoms: O_2  and  C_3
REMARK    3  A    between atoms: C_10  and  C_11
REMARK    4  A    between atoms: N_13  and  C_14
REMARK    5  A    between atoms: C_14  and  C_15
REMARK    6  A    between atoms: C_18  and  C_19
REMARK    7  A    between atoms: C_19  and  O_20
REMARK    8  A    between atoms: C_19  and  C_21
REMARK    9  A    between atoms: C_21  and  N_22
REMARK                            x       y       z     vdW  Elec       q    Type
REMARK                         _______ _______ _______ _____ _____    ______ ____
ROOT
ATOM      1  C   UNL     1      46.146   6.997  12.392  0.00  0.00    +0.000 A 
ATOM      2  C   UNL     1      44.924   6.553  12.910  0.00  0.00    +0.000 A 
ATOM      3  C   UNL     1      44.124   5.650  12.192  0.00  0.00    +0.000 A 
ATOM      4  C   UNL     1      44.532   5.156  10.943  0.00  0.00    +0.000 A 
ATOM      5  C   UNL     1      45.763   5.600  10.433  0.00  0.00    +0.000 A 
ATOM      6  C   UNL     1      46.552   6.516  11.141  0.00  0.00    +0.000 A 
ENDROOT
BRANCH   1   7
ATOM      7  C   UNL     1      47.043   7.921  13.186  0.00  0.00    +0.000 C 
BRANCH   7  10
ATOM      8  C   UNL     1      48.702   6.858  14.689  0.00  0.00    +0.000 C 
ATOM      9  O   UNL     1      49.589   6.955  13.840  0.00  0.00    +0.000 OA
ATOM     10  N   UNL     1      47.436   7.314  14.441  0.00  0.00    +0.000 N 
ATOM     11  H   UNL     1      46.736   7.276  15.171  0.00  0.00    +0.000 HD
BRANCH   8  19
ATOM     12  C   UNL     1      47.300   4.181  16.340  0.00  0.00    +0.000 A 
ATOM     13  N   UNL     1      47.005   3.142  17.148  0.00  0.00    +0.000 NA
ATOM     14  C   UNL     1      47.720   2.985  18.262  0.00  0.00    +0.000 A 
ATOM     15  N   UNL     1      48.709   3.762  18.693  0.00  0.00    +0.000 NA
ATOM     16  C   UNL     1      48.978   4.782  17.855  0.00  0.00    +0.000 A 
ATOM     17  S   UNL     1      50.204   5.888  18.249  0.00  0.00    +0.000 S 
ATOM     18  C   UNL     1      49.957   6.752  16.809  0.00  0.00    +0.000 A 
ATOM     19  C   UNL     1      48.958   6.224  15.996  0.00  0.00    +0.000 A 
ATOM     20  C   UNL     1      48.351   5.065  16.647  0.00  0.00    +0.000 A 
BRANCH  12  22
ATOM     21  C   UNL     1      47.003   3.661  14.065  0.00  0.00    +0.000 C 
ATOM     22  O   UNL     1      46.534   4.374  15.210  0.00  0.00    +0.000 OA
ENDBRANCH  12  22
ENDBRANCH   8  19
ENDBRANCH   7  10
ENDBRANCH   1   7
BRANCH   4  23
ATOM     23  C   UNL     1      43.665   4.158  10.188  0.00  0.00    +0.000 C 
BRANCH  23  24
ATOM     24  O   UNL     1      42.786   3.516  11.119  0.00  0.00    +0.000 OA
ATOM     25  H   UNL     1      41.930   3.974  11.083  0.00  0.00    +0.000 HD
ENDBRANCH  23  24
BRANCH  23  26
ATOM     26  C   UNL     1      44.499   3.123   9.383  0.00  0.00    +0.000 C 
BRANCH  26  27
ATOM     27  N   UNL     1      45.010   3.682   8.117  0.00  0.00    +0.000 N 
ATOM     28  C   UNL     1      45.999   2.901   7.492  0.00  0.00    +0.000 A 
ATOM     29  C   UNL     1      46.527   3.335   6.290  0.00  0.00    +0.000 A 
ATOM     30  C   UNL     1      47.494   2.541   5.710  0.00  0.00    +0.000 A 
ATOM     31  N   UNL     1      47.926   1.389   6.247  0.00  0.00    +0.000 NA
ATOM     32  C   UNL     1      47.339   1.040   7.397  0.00  0.00    +0.000 A 
ATOM     33  N   UNL     1      46.388   1.737   8.045  0.00  0.00    +0.000 NA
ATOM     34  H   UNL     1      45.346   4.635   8.219  0.00  0.00    +0.000 HD
ENDBRANCH  26  27
ENDBRANCH  23  26
ENDBRANCH   4  23
TORSDOF 8
ENDMDL
MODEL 2
REMARK VINA RESULT:    -8.501      1.467      1.703
REMARK INTER + INTRA:         -13.424
REMARK INTER:                 -12.316
REMARK INTRA:                  -1.109
REMARK UNBOUND:                -1.196
REMARK  Name = 
REMARK  9 active torsions:
REMARK  status: ('A' for Active; 'I' for Inactive)
REMARK    1  A    between atoms: C_1  and  O_2
REMARK    2  A    between atoms: O_2  and  C_3
REMARK    3  A    between atoms: C_10  and  C_11
REMARK    4  A    between atoms: N_13  and  C_14
REMARK    5  A    between atoms: C_14  and  C_15
REMARK    6  A    between atoms: C_18  and  C_19
REMARK    7  A    between atoms: C_19  and  O_20
REMARK    8  A    between atoms: C_19  and  C_21
REMARK    9  A    between atoms: C_21  and  N_22
REMARK                            x       y       z     vdW  Elec       q    Type
REMARK                         _______ _______ _______ _____ _____    ______ ____
ROOT
ATOM      1  C   UNL     1      47.099   5.988  12.680  0.00  0.00    +0.000 A 
ATOM      2  C   UNL     1      46.501   4.822  13.174  0.00  0.00    +0.000 A 
ATOM      3  C   UNL     1      45.436   4.214  12.490  0.00  0.00    +0.000 A 
ATOM      4  C   UNL     1      44.950   4.748  11.287  0.00  0.00    +0.000 A 
ATOM      5  C   UNL     1      45.559   5.913  10.793  0.00  0.00    +0.000 A 
ATOM      6  C   UNL     1      46.609   6.530  11.486  0.00  0.00    +0.000 A 
ENDROOT
BRANCH   1   7
ATOM      7  C   UNL     1      48.286   6.614  13.377  0.00  0.00    +0.000 C 
BRANCH   7  10
ATOM      8  C   UNL     1      48.898   7.346  15.665  0.00  0.00    +0.000 C 
ATOM      9  O   UNL     1      49.831   8.025  15.238  0.00  0.00    +0.000 OA
ATOM     10  N   UNL     1      48.096   6.635  14.813  0.00  0.00    +0.000 N 
ATOM     11  H   UNL     1      47.300   6.127  15.178  0.00  0.00    +0.000 HD
BRANCH   8  19
ATOM     12  C   UNL     1      48.798   4.718  17.887  0.00  0.00    +0.000 A 
ATOM     13  N   UNL     1      48.785   3.905  18.964  0.00  0.00    +0.000 NA
ATOM     14  C   UNL     1      48.569   4.448  20.162  0.00  0.00    +0.000 A 
ATOM     15  N   UNL     1      48.343   5.731  20.429  0.00  0.00    +0.000 NA
ATOM     16  C   UNL     1      48.373   6.509  19.330  0.00  0.00    +0.000 A 
ATOM     17  S   UNL     1      48.090   8.176  19.476  0.00  0.00    +0.000 S 
ATOM     18  C   UNL     1      48.315   8.412  17.810  0.00  0.00    +0.000 A 
ATOM     19  C   UNL     1      48.618   7.248  17.110  0.00  0.00    +0.000 A 
ATOM     20  C   UNL     1      48.614   6.106  18.021  0.00  0.00    +0.000 A 
BRANCH  12  22
ATOM     21  C   UNL     1      47.940   3.246  16.264  0.00  0.00    +0.000 C 
ATOM     22  O   UNL     1      48.976   4.154  16.641  0.00  0.00    +0.000 OA
ENDBRANCH  12  22
ENDBRANCH   8  19
ENDBRANCH   7  10
ENDBRANCH   1   7
BRANCH   4  23
ATOM     23  C   UNL     1      43.810   4.063  10.544  0.00  0.00    +0.000 C 
BRANCH  23  24
ATOM     24  O   UNL     1      42.919   3.482  11.504  0.00  0.00    +0.000 OA
ATOM     25  H   UNL     1      42.340   2.862  11.032  0.00  0.00    +0.000 HD
ENDBRANCH  23  24
BRANCH  23  26
ATOM     26  C   UNL     1      44.309   3.010   9.516  0.00  0.00    +0.000 C 
BRANCH  26  27
ATOM     27  N   UNL     1      44.940   3.635   8.339  0.00  0.00    +0.000 N 
ATOM     28  C   UNL     1      45.917   2.841   7.711  0.00  0.00    +0.000 A 
ATOM     29  C   UNL     1      46.553   3.335   6.587  0.00  0.00    +0.000 A 
ATOM     30  C   UNL     1      47.504   2.526   6.002  0.00  0.00    +0.000 A 
ATOM     31  N   UNL     1      47.822   1.305   6.461  0.00  0.00    +0.000 NA
ATOM     32  C   UNL     1      47.136   0.904   7.537  0.00  0.00    +0.000 A 
ATOM     33  N   UNL     1      46.190   1.610   8.182  0.00  0.00    +0.000 NA
ATOM     34  H   UNL     1      45.331   4.550   8.545  0.00  0.00    +0.000 HD
ENDBRANCH  26  27
ENDBRANCH  23  26
ENDBRANCH   4  23
TORSDOF 8
ENDMDL
MODEL 3
REMARK VINA RESULT:    -8.376      1.974      2.717
REMARK INTER + INTRA:         -13.244
REMARK INTER:                 -12.346
REMARK INTRA:                  -0.898
REMARK UNBOUND:                -1.196
REMARK  Name = 
REMARK  9 active torsions:
REMARK  status: ('A' for Active; 'I' for Inactive)
REMARK    1  A    between atoms: C_1  and  O_2
REMARK    2  A    between atoms: O_2  and  C_3
REMARK    3  A    between atoms: C_10  and  C_11
REMARK    4  A    between atoms: N_13  and  C_14
REMARK    5  A    between atoms: C_14  and  C_15
REMARK    6  A    between atoms: C_18  and  C_19
REMARK    7  A    between atoms: C_19  and  O_20
REMARK    8  A    between atoms: C_19  and  C_21
REMARK    9  A    between atoms: C_21  and  N_22
REMARK                            x       y       z     vdW  Elec       q    Type
REMARK                         _______ _______ _______ _____ _____    ______ ____
ROOT
ATOM      1  C   UNL     1      46.878   5.918  12.816  0.00  0.00    +0.000 A 
ATOM      2  C   UNL     1      46.387   6.444  11.615  0.00  0.00    +0.000 A 
ATOM      3  C   UNL     1      45.398   5.767  10.884  0.00  0.00    +0.000 A 
ATOM      4  C   UNL     1      44.864   4.552  11.342  0.00  0.00    +0.000 A 
ATOM      5  C   UNL     1      45.355   4.034  12.551  0.00  0.00    +0.000 A 
ATOM      6  C   UNL     1      46.355   4.701  13.271  0.00  0.00    +0.000 A 
ENDROOT
BRANCH   1   7
ATOM      7  C   UNL     1      47.897   6.671  13.642  0.00  0.00    +0.000 C 
BRANCH   7  10
ATOM      8  C   UNL     1      48.941   6.279  15.855  0.00  0.00    +0.000 C 
ATOM      9  O   UNL     1      50.037   6.665  15.448  0.00  0.00    +0.000 OA
ATOM     10  N   UNL     1      47.849   6.260  15.031  0.00  0.00    +0.000 N 
ATOM     11  H   UNL     1      46.946   5.992  15.398  0.00  0.00    +0.000 HD
BRANCH   8  19
ATOM     12  C   UNL     1      47.991   7.803  18.793  0.00  0.00    +0.000 A 
ATOM     13  N   UNL     1      47.565   8.118  20.034  0.00  0.00    +0.000 NA
ATOM     14  C   UNL     1      47.494   7.146  20.943  0.00  0.00    +0.000 A 
ATOM     15  N   UNL     1      47.817   5.867  20.773  0.00  0.00    +0.000 NA
ATOM     16  C   UNL     1      48.229   5.592  19.520  0.00  0.00    +0.000 A 
ATOM     17  S   UNL     1      48.698   4.010  19.121  0.00  0.00    +0.000 S 
ATOM     18  C   UNL     1      49.013   4.456  17.513  0.00  0.00    +0.000 A 
ATOM     19  C   UNL     1      48.763   5.796  17.238  0.00  0.00    +0.000 A 
ATOM     20  C   UNL     1      48.329   6.479  18.454  0.00  0.00    +0.000 A 
BRANCH  12  22
ATOM     21  C   UNL     1      49.380   9.465  17.876  0.00  0.00    +0.000 C 
ATOM     22  O   UNL     1      48.109   8.813  17.863  0.00  0.00    +0.000 OA
ENDBRANCH  12  22
ENDBRANCH   8  19
ENDBRANCH   7  10
ENDBRANCH   1   7
BRANCH   4  23
ATOM     23  C   UNL     1      43.774   3.842  10.550  0.00  0.00    +0.000 C 
BRANCH  23  24
ATOM     24  O   UNL     1      42.879   3.204  11.468  0.00  0.00    +0.000 OA
ATOM     25  H   UNL     1      42.294   3.887  11.835  0.00  0.00    +0.000 HD
ENDBRANCH  23  24
BRANCH  23  26
ATOM     26  C   UNL     1      44.343   2.834   9.513  0.00  0.00    +0.000 C 
BRANCH  26  27
ATOM     27  N   UNL     1      44.930   3.511   8.341  0.00  0.00    +0.000 N 
ATOM     28  C   UNL     1      45.936   2.776   7.687  0.00  0.00    +0.000 A 
ATOM     29  C   UNL     1      46.534   3.321   6.565  0.00  0.00    +0.000 A 
ATOM     30  C   UNL     1      47.515   2.570   5.954  0.00  0.00    +0.000 A 
ATOM     31  N   UNL     1      47.896   1.357   6.385  0.00  0.00    +0.000 NA
ATOM     32  C   UNL     1      47.242   0.903   7.460  0.00  0.00    +0.000 A 
ATOM     33  N   UNL     1      46.272   1.551   8.131  0.00  0.00    +0.000 NA
ATOM     34  H   UNL     1      45.279   4.439   8.561  0.00  0.00    +0.000 HD
ENDBRANCH  26  27
ENDBRANCH  23  26
ENDBRANCH   4  23
TORSDOF 8
ENDMDL
MODEL 4
REMARK VINA RESULT:    -7.891      1.542      1.912
REMARK INTER + INTRA:         -12.546
REMARK INTER:                 -11.400
REMARK INTRA:                  -1.146
REMARK UNBOUND:                -1.196
REMARK  Name = 
REMARK  9 active torsions:
REMARK  status: ('A' for Active; 'I' for Inactive)
REMARK    1  A    between atoms: C_1  and  O_2
REMARK    2  A    between atoms: O_2  and  C_3
REMARK    3  A    between atoms: C_10  and  C_11
REMARK    4  A    between atoms: N_13  and  C_14
REMARK    5  A    between atoms: C_14  and  C_15
REMARK    6  A    between atoms: C_18  and  C_19
REMARK    7  A    between atoms: C_19  and  O_20
REMARK    8  A    between atoms: C_19  and  C_21
REMARK    9  A    between atoms: C_21  and  N_22
REMARK                            x       y       z     vdW  Elec       q    Type
REMARK                         _______ _______ _______ _____ _____    ______ ____
ROOT
ATOM      1  C   UNL     1      46.135   6.373  12.851  0.00  0.00    +0.000 A 
ATOM      2  C   UNL     1      46.460   5.045  13.153  0.00  0.00    +0.000 A 
ATOM      3  C   UNL     1      45.668   3.986  12.683  0.00  0.00    +0.000 A 
ATOM      4  C   UNL     1      44.536   4.226  11.887  0.00  0.00    +0.000 A 
ATOM      5  C   UNL     1      44.220   5.560  11.582  0.00  0.00    +0.000 A 
ATOM      6  C   UNL     1      45.001   6.618  12.067  0.00  0.00    +0.000 A 
ENDROOT
BRANCH   1   7
ATOM      7  C   UNL     1      47.017   7.516  13.301  0.00  0.00    +0.000 C 
BRANCH   7  10
ATOM      8  C   UNL     1      48.712   7.763  15.093  0.00  0.00    +0.000 C 
ATOM      9  O   UNL     1      48.293   8.882  15.386  0.00  0.00    +0.000 OA
ATOM     10  N   UNL     1      48.134   7.034  14.089  0.00  0.00    +0.000 N 
ATOM     11  H   UNL     1      48.456   6.094  13.900  0.00  0.00    +0.000 HD
BRANCH   8  19
ATOM     12  C   UNL     1      49.194   4.806  16.792  0.00  0.00    +0.000 A 
ATOM     13  N   UNL     1      49.674   3.709  17.413  0.00  0.00    +0.000 NA
ATOM     14  C   UNL     1      50.964   3.686  17.746  0.00  0.00    +0.000 A 
ATOM     15  N   UNL     1      51.858   4.650  17.548  0.00  0.00    +0.000 NA
ATOM     16  C   UNL     1      51.342   5.723  16.919  0.00  0.00    +0.000 A 
ATOM     17  S   UNL     1      52.335   7.061  16.593  0.00  0.00    +0.000 S 
ATOM     18  C   UNL     1      51.062   7.884  15.829  0.00  0.00    +0.000 A 
ATOM     19  C   UNL     1      49.868   7.170  15.791  0.00  0.00    +0.000 A 
ATOM     20  C   UNL     1      50.034   5.892  16.479  0.00  0.00    +0.000 A 
BRANCH  12  22
ATOM     21  C   UNL     1      47.107   3.735  16.972  0.00  0.00    +0.000 C 
ATOM     22  O   UNL     1      47.850   4.853  16.486  0.00  0.00    +0.000 OA
ENDBRANCH  12  22
ENDBRANCH   8  19
ENDBRANCH   7  10
ENDBRANCH   1   7
BRANCH   4  23
ATOM     23  C   UNL     1      43.701   3.065  11.365  0.00  0.00    +0.000 C 
BRANCH  23  24
ATOM     24  O   UNL     1      43.397   2.189  12.456  0.00  0.00    +0.000 OA
ATOM     25  H   UNL     1      42.998   2.723  13.163  0.00  0.00    +0.000 HD
ENDBRANCH  23  24
BRANCH  23  26
ATOM     26  C   UNL     1      44.390   2.305  10.197  0.00  0.00    +0.000 C 
BRANCH  26  27
ATOM     27  N   UNL     1      44.958   3.224   9.192  0.00  0.00    +0.000 N 
ATOM     28  C   UNL     1      45.866   2.623   8.301  0.00  0.00    +0.000 A 
ATOM     29  C   UNL     1      46.438   3.401   7.311  0.00  0.00    +0.000 A 
ATOM     30  C   UNL     1      47.324   2.775   6.459  0.00  0.00    +0.000 A 
ATOM     31  N   UNL     1      47.636   1.472   6.543  0.00  0.00    +0.000 NA
ATOM     32  C   UNL     1      47.013   0.798   7.516  0.00  0.00    +0.000 A 
ATOM     33  N   UNL     1      46.135   1.308   8.397  0.00  0.00    +0.000 NA
ATOM     34  H   UNL     1      45.388   4.043   9.611  0.00  0.00    +0.000 HD
ENDBRANCH  26  27
ENDBRANCH  23  26
ENDBRANCH   4  23
TORSDOF 8
ENDMDL
MODEL 5
REMARK VINA RESULT:    -7.723      2.019      3.411
REMARK INTER + INTRA:         -12.304
REMARK INTER:                 -11.090
REMARK INTRA:                  -1.215
REMARK UNBOUND:                -1.196
REMARK  Name = 
REMARK  9 active torsions:
REMARK  status: ('A' for Active; 'I' for Inactive)
REMARK    1  A    between atoms: C_1  and  O_2
REMARK    2  A    between atoms: O_2  and  C_3
REMARK    3  A    between atoms: C_10  and  C_11
REMARK    4  A    between atoms: N_13  and  C_14
REMARK    5  A    between atoms: C_14  and  C_15
REMARK    6  A    between atoms: C_18  and  C_19
REMARK    7  A    between atoms: C_19  and  O_20
REMARK    8  A    between atoms: C_19  and  C_21
REMARK    9  A    between atoms: C_21  and  N_22
REMARK                            x       y       z     vdW  Elec       q    Type
REMARK                         _______ _______ _______ _____ _____    ______ ____
ROOT
ATOM      1  C   UNL     1      46.588   4.282  13.877  0.00  0.00    +0.000 A 
ATOM      2  C   UNL     1      45.999   3.246  13.143  0.00  0.00    +0.000 A 
ATOM      3  C   UNL     1      45.293   3.514  11.959  0.00  0.00    +0.000 A 
ATOM      4  C   UNL     1      45.170   4.825  11.471  0.00  0.00    +0.000 A 
ATOM      5  C   UNL     1      45.769   5.858  12.208  0.00  0.00    +0.000 A 
ATOM      6  C   UNL     1      46.458   5.592  13.400  0.00  0.00    +0.000 A 
ENDROOT
BRANCH   1   7
ATOM      7  C   UNL     1      47.402   3.996  15.119  0.00  0.00    +0.000 C 
BRANCH   7  10
ATOM      8  C   UNL     1      48.648   5.347  16.782  0.00  0.00    +0.000 C 
ATOM      9  O   UNL     1      49.457   4.439  16.969  0.00  0.00    +0.000 OA
ATOM     10  N   UNL     1      47.621   5.205  15.888  0.00  0.00    +0.000 N 
ATOM     11  H   UNL     1      47.000   5.982  15.708  0.00  0.00    +0.000 HD
BRANCH   8  19
ATOM     12  C   UNL     1      48.719   8.657  15.832  0.00  0.00    +0.000 A 
ATOM     13  N   UNL     1      48.670  10.002  15.746  0.00  0.00    +0.000 NA
ATOM     14  C   UNL     1      48.658  10.707  16.877  0.00  0.00    +0.000 A 
ATOM     15  N   UNL     1      48.707  10.229  18.117  0.00  0.00    +0.000 NA
ATOM     16  C   UNL     1      48.747   8.883  18.160  0.00  0.00    +0.000 A 
ATOM     17  S   UNL     1      48.826   8.095  19.661  0.00  0.00    +0.000 S 
ATOM     18  C   UNL     1      48.810   6.569  18.917  0.00  0.00    +0.000 A 
ATOM     19  C   UNL     1      48.733   6.617  17.529  0.00  0.00    +0.000 A 
ATOM     20  C   UNL     1      48.734   8.007  17.080  0.00  0.00    +0.000 A 
BRANCH  12  22
ATOM     21  C   UNL     1      50.101   7.746  14.160  0.00  0.00    +0.000 C 
ATOM     22  O   UNL     1      48.777   7.925  14.664  0.00  0.00    +0.000 OA
ENDBRANCH  12  22
ENDBRANCH   8  19
ENDBRANCH   7  10
ENDBRANCH   1   7
BRANCH   4  23
ATOM     23  C   UNL     1      44.422   5.096  10.172  0.00  0.00    +0.000 C 
BRANCH  23  24
ATOM     24  O   UNL     1      43.070   5.451  10.485  0.00  0.00    +0.000 OA
ATOM     25  H   UNL     1      43.094   6.115  11.194  0.00  0.00    +0.000 HD
ENDBRANCH  23  24
BRANCH  23  26
ATOM     26  C   UNL     1      44.485   3.901   9.180  0.00  0.00    +0.000 C 
BRANCH  26  27
ATOM     27  N   UNL     1      45.322   4.198   8.002  0.00  0.00    +0.000 N 
ATOM     28  C   UNL     1      46.113   3.120   7.564  0.00  0.00    +0.000 A 
ATOM     29  C   UNL     1      46.918   3.296   6.454  0.00  0.00    +0.000 A 
ATOM     30  C   UNL     1      47.678   2.216   6.057  0.00  0.00    +0.000 A 
ATOM     31  N   UNL     1      47.659   1.028   6.681  0.00  0.00    +0.000 NA
ATOM     32  C   UNL     1      46.830   0.947   7.727  0.00  0.00    +0.000 A 
ATOM     33  N   UNL     1      46.047   1.934   8.197  0.00  0.00    +0.000 NA
ATOM     34  H   UNL     1      45.910   5.015   8.137  0.00  0.00    +0.000 HD
ENDBRANCH  26  27
ENDBRANCH  23  26
ENDBRANCH   4  23
TORSDOF 8
ENDMDL
MODEL 6
REMARK VINA RESULT:    -7.626      2.578      3.416
REMARK INTER + INTRA:         -12.166
REMARK INTER:                 -11.032
REMARK INTRA:                  -1.134
REMARK UNBOUND:                -1.196
REMARK  Name = 
REMARK  9 active torsions:
REMARK  status: ('A' for Active; 'I' for Inactive)
REMARK    1  A    between atoms: C_1  and  O_2
REMARK    2  A    between atoms: O_2  and  C_3
REMARK    3  A    between atoms: C_10  and  C_11
REMARK    4  A    between atoms: N_13  and  C_14
REMARK    5  A    between atoms: C_14  and  C_15
REMARK    6  A    between atoms: C_18  and  C_19
REMARK    7  A    between atoms: C_19  and  O_20
REMARK    8  A    between atoms: C_19  and  C_21
REMARK    9  A    between atoms: C_21  and  N_22
REMARK                            x       y       z     vdW  Elec       q    Type
REMARK                         _______ _______ _______ _____ _____    ______ ____
ROOT
ATOM      1  C   UNL     1      46.924   4.674  13.910  0.00  0.00    +0.000 A 
ATOM      2  C   UNL     1      46.387   5.800  13.274  0.00  0.00    +0.000 A 
ATOM      3  C   UNL     1      45.443   5.663  12.244  0.00  0.00    +0.000 A 
ATOM      4  C   UNL     1      45.000   4.396  11.832  0.00  0.00    +0.000 A 
ATOM      5  C   UNL     1      45.537   3.271  12.479  0.00  0.00    +0.000 A 
ATOM      6  C   UNL     1      46.493   3.408  13.494  0.00  0.00    +0.000 A 
ENDROOT
BRANCH   1   7
ATOM      7  C   UNL     1      47.894   4.814  15.061  0.00  0.00    +0.000 C 
BRANCH   7  10
ATOM      8  C   UNL     1      48.961   6.915  15.829  0.00  0.00    +0.000 C 
ATOM      9  O   UNL     1      50.080   6.502  15.526  0.00  0.00    +0.000 OA
ATOM     10  N   UNL     1      47.846   6.149  15.624  0.00  0.00    +0.000 N 
ATOM     11  H   UNL     1      46.931   6.527  15.828  0.00  0.00    +0.000 HD
BRANCH   8  19
ATOM     12  C   UNL     1      47.677   7.965  18.847  0.00  0.00    +0.000 A 
ATOM     13  N   UNL     1      47.324   8.629  19.967  0.00  0.00    +0.000 NA
ATOM     14  C   UNL     1      47.505   9.949  20.001  0.00  0.00    +0.000 A 
ATOM     15  N   UNL     1      47.993  10.715  19.030  0.00  0.00    +0.000 NA
ATOM     16  C   UNL     1      48.342  10.013  17.934  0.00  0.00    +0.000 A 
ATOM     17  S   UNL     1      48.971  10.827  16.584  0.00  0.00    +0.000 S 
ATOM     18  C   UNL     1      49.166   9.371  15.734  0.00  0.00    +0.000 A 
ATOM     19  C   UNL     1      48.775   8.242  16.447  0.00  0.00    +0.000 A 
ATOM     20  C   UNL     1      48.247   8.638  17.750  0.00  0.00    +0.000 A 
BRANCH  12  22
ATOM     21  C   UNL     1      48.356   5.834  19.578  0.00  0.00    +0.000 C 
ATOM     22  O   UNL     1      47.449   6.606  18.790  0.00  0.00    +0.000 OA
ENDBRANCH  12  22
ENDBRANCH   8  19
ENDBRANCH   7  10
ENDBRANCH   1   7
BRANCH   4  23
ATOM     23  C   UNL     1      43.957   4.265  10.730  0.00  0.00    +0.000 C 
BRANCH  23  24
ATOM     24  O   UNL     1      42.692   3.960  11.328  0.00  0.00    +0.000 OA
ATOM     25  H   UNL     1      41.998   4.199  10.691  0.00  0.00    +0.000 HD
ENDBRANCH  23  24
BRANCH  23  26
ATOM     26  C   UNL     1      44.349   3.216   9.652  0.00  0.00    +0.000 C 
BRANCH  26  27
ATOM     27  N   UNL     1      45.136   3.810   8.555  0.00  0.00    +0.000 N 
ATOM     28  C   UNL     1      46.011   2.914   7.915  0.00  0.00    +0.000 A 
ATOM     29  C   UNL     1      46.779   3.375   6.861  0.00  0.00    +0.000 A 
ATOM     30  C   UNL     1      47.624   2.465   6.260  0.00  0.00    +0.000 A 
ATOM     31  N   UNL     1      47.721   1.181   6.640  0.00  0.00    +0.000 NA
ATOM     32  C   UNL     1      46.920   0.824   7.650  0.00  0.00    +0.000 A 
ATOM     33  N   UNL     1      46.061   1.626   8.304  0.00  0.00    +0.000 NA
ATOM     34  H   UNL     1      45.652   4.634   8.848  0.00  0.00    +0.000 HD
ENDBRANCH  26  27
ENDBRANCH  23  26
ENDBRANCH   4  23
TORSDOF 8
ENDMDL
MODEL 7
REMARK VINA RESULT:    -7.423      2.111      3.365
REMARK INTER + INTRA:         -11.873
REMARK INTER:                 -10.632
REMARK INTRA:                  -1.242
REMARK UNBOUND:                -1.196
REMARK  Name = 
REMARK  9 active torsions:
REMARK  status: ('A' for Active; 'I' for Inactive)
REMARK    1  A    between atoms: C_1  and  O_2
REMARK    2  A    between atoms: O_2  and  C_3
REMARK    3  A    between atoms: C_10  and  C_11
REMARK    4  A    between atoms: N_13  and  C_14
REMARK    5  A    between atoms: C_14  and  C_15
REMARK    6  A    between atoms: C_18  and  C_19
REMARK    7  A    between atoms: C_19  and  O_20
REMARK    8  A    between atoms: C_19  and  C_21
REMARK    9  A    between atoms: C_21  and  N_22
REMARK                            x       y       z     vdW  Elec       q    Type
REMARK                         _______ _______ _______ _____ _____    ______ ____
ROOT
ATOM      1  C   UNL     1      46.738   3.859  13.857  0.00  0.00    +0.000 A 
ATOM      2  C   UNL     1      45.898   3.048  13.085  0.00  0.00    +0.000 A 
ATOM      3  C   UNL     1      45.203   3.574  11.984  0.00  0.00    +0.000 A 
ATOM      4  C   UNL     1      45.341   4.922  11.617  0.00  0.00    +0.000 A 
ATOM      5  C   UNL     1      46.192   5.728  12.391  0.00  0.00    +0.000 A 
ATOM      6  C   UNL     1      46.871   5.207  13.500  0.00  0.00    +0.000 A 
ENDROOT
BRANCH   1   7
ATOM      7  C   UNL     1      47.538   3.288  15.006  0.00  0.00    +0.000 C 
BRANCH   7  10
ATOM      8  C   UNL     1      47.501   4.312  17.263  0.00  0.00    +0.000 C 
ATOM      9  O   UNL     1      46.809   3.395  17.708  0.00  0.00    +0.000 OA
ATOM     10  N   UNL     1      47.900   4.322  15.954  0.00  0.00    +0.000 N 
ATOM     11  H   UNL     1      48.513   5.055  15.621  0.00  0.00    +0.000 HD
BRANCH   8  19
ATOM     12  C   UNL     1      50.487   5.955  17.755  0.00  0.00    +0.000 A 
ATOM     13  N   UNL     1      51.480   6.815  18.060  0.00  0.00    +0.000 NA
ATOM     14  C   UNL     1      51.208   7.828  18.882  0.00  0.00    +0.000 A 
ATOM     15  N   UNL     1      50.043   8.092  19.467  0.00  0.00    +0.000 NA
ATOM     16  C   UNL     1      49.077   7.217  19.130  0.00  0.00    +0.000 A 
ATOM     17  S   UNL     1      47.524   7.388  19.794  0.00  0.00    +0.000 S 
ATOM     18  C   UNL     1      46.950   6.046  18.926  0.00  0.00    +0.000 A 
ATOM     19  C   UNL     1      47.906   5.448  18.112  0.00  0.00    +0.000 A 
ATOM     20  C   UNL     1      49.188   6.132  18.268  0.00  0.00    +0.000 A 
BRANCH  12  22
ATOM     21  C   UNL     1      51.381   3.782  17.627  0.00  0.00    +0.000 C 
ATOM     22  O   UNL     1      50.775   4.879  16.942  0.00  0.00    +0.000 OA
ENDBRANCH  12  22
ENDBRANCH   8  19
ENDBRANCH   7  10
ENDBRANCH   1   7
BRANCH   4  23
ATOM     23  C   UNL     1      44.600   5.470  10.406  0.00  0.00    +0.000 C 
BRANCH  23  24
ATOM     24  O   UNL     1      43.356   6.031  10.842  0.00  0.00    +0.000 OA
ATOM     25  H   UNL     1      42.792   6.145  10.059  0.00  0.00    +0.000 HD
ENDBRANCH  23  24
BRANCH  23  26
ATOM     26  C   UNL     1      44.388   4.404   9.295  0.00  0.00    +0.000 C 
BRANCH  26  27
ATOM     27  N   UNL     1      45.366   4.539   8.198  0.00  0.00    +0.000 N 
ATOM     28  C   UNL     1      45.997   3.337   7.830  0.00  0.00    +0.000 A 
ATOM     29  C   UNL     1      46.917   3.359   6.798  0.00  0.00    +0.000 A 
ATOM     30  C   UNL     1      47.514   2.161   6.468  0.00  0.00    +0.000 A 
ATOM     31  N   UNL     1      47.238   1.001   7.084  0.00  0.00    +0.000 NA
ATOM     32  C   UNL     1      46.316   1.075   8.051  0.00  0.00    +0.000 A 
ATOM     33  N   UNL     1      45.674   2.187   8.451  0.00  0.00    +0.000 NA
ATOM     34  H   UNL     1      46.070   5.245   8.389  0.00  0.00    +0.000 HD
ENDBRANCH  26  27
ENDBRANCH  23  26
ENDBRANCH   4  23
TORSDOF 8
ENDMDL
MODEL 8
REMARK VINA RESULT:    -7.228      3.322      7.891
REMARK INTER + INTRA:         -11.594
REMARK INTER:                 -10.087
REMARK INTRA:                  -1.506
REMARK UNBOUND:                -1.196
REMARK  Name = 
REMARK  9 active torsions:
REMARK  status: ('A' for Active; 'I' for Inactive)
REMARK    1  A    between atoms: C_1  and  O_2
REMARK    2  A    between atoms: O_2  and  C_3
REMARK    3  A    between atoms: C_10  and  C_11
REMARK    4  A    between atoms: N_13  and  C_14
REMARK    5  A    between atoms: C_14  and  C_15
REMARK    6  A    between atoms: C_18  and  C_19
REMARK    7  A    between atoms: C_19  and  O_20
REMARK    8  A    between atoms: C_19  and  C_21
REMARK    9  A    between atoms: C_21  and  N_22
REMARK                            x       y       z     vdW  Elec       q    Type
REMARK                         _______ _______ _______ _____ _____    ______ ____
ROOT
ATOM      1  C   UNL     1      48.510   8.014  13.435  0.00  0.00    +0.000 A 
ATOM      2  C   UNL     1      47.900   8.871  14.359  0.00  0.00    +0.000 A 
ATOM      3  C   UNL     1      48.139   8.732  15.736  0.00  0.00    +0.000 A 
ATOM      4  C   UNL     1      49.003   7.740  16.224  0.00  0.00    +0.000 A 
ATOM      5  C   UNL     1      49.617   6.888  15.291  0.00  0.00    +0.000 A 
ATOM      6  C   UNL     1      49.365   7.016  13.919  0.00  0.00    +0.000 A 
ENDROOT
BRANCH   1   7
ATOM      7  C   UNL     1      48.308   8.196  11.947  0.00  0.00    +0.000 C 
BRANCH   7  10
ATOM      8  C   UNL     1      46.245   6.972  11.324  0.00  0.00    +0.000 C 
ATOM      9  O   UNL     1      45.532   7.874  11.764  0.00  0.00    +0.000 OA
ATOM     10  N   UNL     1      47.609   7.063  11.374  0.00  0.00    +0.000 N 
ATOM     11  H   UNL     1      48.178   6.338  10.957  0.00  0.00    +0.000 HD
BRANCH   8  19
ATOM     12  C   UNL     1      44.522   4.310  12.669  0.00  0.00    +0.000 A 
ATOM     13  N   UNL     1      43.763   3.222  12.911  0.00  0.00    +0.000 NA
ATOM     14  C   UNL     1      43.408   2.458  11.878  0.00  0.00    +0.000 A 
ATOM     15  N   UNL     1      43.734   2.637  10.601  0.00  0.00    +0.000 NA
ATOM     16  C   UNL     1      44.484   3.738  10.401  0.00  0.00    +0.000 A 
ATOM     17  S   UNL     1      45.008   4.120   8.833  0.00  0.00    +0.000 S 
ATOM     18  C   UNL     1      45.787   5.525   9.381  0.00  0.00    +0.000 A 
ATOM     19  C   UNL     1      45.661   5.745  10.749  0.00  0.00    +0.000 A 
ATOM     20  C   UNL     1      44.911   4.650  11.359  0.00  0.00    +0.000 A 
BRANCH  12  22
ATOM     21  C   UNL     1      46.258   4.792  14.183  0.00  0.00    +0.000 C 
ATOM     22  O   UNL     1      44.931   5.078  13.739  0.00  0.00    +0.000 OA
ENDBRANCH  12  22
ENDBRANCH   8  19
ENDBRANCH   7  10
ENDBRANCH   1   7
BRANCH   4  23
ATOM     23  C   UNL     1      49.270   7.617  17.718  0.00  0.00    +0.000 C 
BRANCH  23  24
ATOM     24  O   UNL     1      50.660   7.867  17.959  0.00  0.00    +0.000 OA
ATOM     25  H   UNL     1      51.134   7.024  17.863  0.00  0.00    +0.000 HD
ENDBRANCH  23  24
BRANCH  23  26
ATOM     26  C   UNL     1      48.827   6.245  18.298  0.00  0.00    +0.000 C 
BRANCH  26  27
ATOM     27  N   UNL     1      49.950   5.294  18.401  0.00  0.00    +0.000 N 
ATOM     28  C   UNL     1      49.768   4.097  17.684  0.00  0.00    +0.000 A 
ATOM     29  C   UNL     1      50.775   3.150  17.705  0.00  0.00    +0.000 A 
ATOM     30  C   UNL     1      50.557   1.991  16.991  0.00  0.00    +0.000 A 
ATOM     31  N   UNL     1      49.440   1.756  16.285  0.00  0.00    +0.000 NA
ATOM     32  C   UNL     1      48.535   2.741  16.304  0.00  0.00    +0.000 A 
ATOM     33  N   UNL     1      48.646   3.907  16.964  0.00  0.00    +0.000 NA
ATOM     34  H   UNL     1      50.191   5.078  19.363  0.00  0.00    +0.000 HD
ENDBRANCH  26  27
ENDBRANCH  23  26
ENDBRANCH   4  23
TORSDOF 8
ENDMDL
MODEL 9
REMARK VINA RESULT:    -7.208      3.724      5.243
REMARK INTER + INTRA:         -11.564
REMARK INTER:                 -10.690
REMARK INTRA:                  -0.874
REMARK UNBOUND:                -1.196
REMARK  Name = 
REMARK  9 active torsions:
REMARK  status: ('A' for Active; 'I' for Inactive)
REMARK    1  A    between atoms: C_1  and  O_2
REMARK    2  A    between atoms: O_2  and  C_3
REMARK    3  A    between atoms: C_10  and  C_11
REMARK    4  A    between atoms: N_13  and  C_14
REMARK    5  A    between atoms: C_14  and  C_15
REMARK    6  A    between atoms: C_18  and  C_19
REMARK    7  A    between atoms: C_19  and  O_20
REMARK    8  A    between atoms: C_19  and  C_21
REMARK    9  A    between atoms: C_21  and  N_22
REMARK                            x       y       z     vdW  Elec       q    Type
REMARK                         _______ _______ _______ _____ _____    ______ ____
ROOT
ATOM      1  C   UNL     1      46.834   6.084  12.960  0.00  0.00    +0.000 A 
ATOM      2  C   UNL     1      46.240   4.877  13.347  0.00  0.00    +0.000 A 
ATOM      3  C   UNL     1      45.263   4.267  12.545  0.00  0.00    +0.000 A 
ATOM      4  C   UNL     1      44.864   4.840  11.328  0.00  0.00    +0.000 A 
ATOM      5  C   UNL     1      45.469   6.047  10.942  0.00  0.00    +0.000 A 
ATOM      6  C   UNL     1      46.431   6.666  11.752  0.00  0.00    +0.000 A 
ENDROOT
BRANCH   1   7
ATOM      7  C   UNL     1      47.931   6.717  13.787  0.00  0.00    +0.000 C 
BRANCH   7  10
ATOM      8  C   UNL     1      49.768   8.028  12.761  0.00  0.00    +0.000 C 
ATOM      9  O   UNL     1      49.297   9.086  13.181  0.00  0.00    +0.000 OA
ATOM     10  N   UNL     1      49.158   6.831  13.024  0.00  0.00    +0.000 N 
ATOM     11  H   UNL     1      49.590   5.969  12.718  0.00  0.00    +0.000 HD
BRANCH   8  19
ATOM     12  C   UNL     1      52.984   9.149  13.267  0.00  0.00    +0.000 A 
ATOM     13  N   UNL     1      54.309   9.401  13.239  0.00  0.00    +0.000 NA
ATOM     14  C   UNL     1      55.003   9.014  12.169  0.00  0.00    +0.000 A 
ATOM     15  N   UNL     1      54.529   8.406  11.086  0.00  0.00    +0.000 NA
ATOM     16  C   UNL     1      53.205   8.165  11.157  0.00  0.00    +0.000 A 
ATOM     17  S   UNL     1      52.422   7.407   9.856  0.00  0.00    +0.000 S 
ATOM     18  C   UNL     1      50.932   7.438  10.670  0.00  0.00    +0.000 A 
ATOM     19  C   UNL     1      50.992   8.007  11.938  0.00  0.00    +0.000 A 
ATOM     20  C   UNL     1      52.349   8.474  12.208  0.00  0.00    +0.000 A 
BRANCH  12  22
ATOM     21  C   UNL     1      52.752  10.794  14.934  0.00  0.00    +0.000 C 
ATOM     22  O   UNL     1      52.255   9.588  14.352  0.00  0.00    +0.000 OA
ENDBRANCH  12  22
ENDBRANCH   8  19
ENDBRANCH   7  10
ENDBRANCH   1   7
BRANCH   4  23
ATOM     23  C   UNL     1      43.820   4.153  10.458  0.00  0.00    +0.000 C 
BRANCH  23  24
ATOM     24  O   UNL     1      42.812   3.590  11.305  0.00  0.00    +0.000 OA
ATOM     25  H   UNL     1      43.202   2.827  11.763  0.00  0.00    +0.000 HD
ENDBRANCH  23  24
BRANCH  23  26
ATOM     26  C   UNL     1      44.435   3.083   9.512  0.00  0.00    +0.000 C 
BRANCH  26  27
ATOM     27  N   UNL     1      45.074   3.687   8.328  0.00  0.00    +0.000 N 
ATOM     28  C   UNL     1      46.002   2.852   7.677  0.00  0.00    +0.000 A 
ATOM     29  C   UNL     1      46.640   3.324   6.545  0.00  0.00    +0.000 A 
ATOM     30  C   UNL     1      47.542   2.476   5.938  0.00  0.00    +0.000 A 
ATOM     31  N   UNL     1      47.810   1.238   6.384  0.00  0.00    +0.000 NA
ATOM     32  C   UNL     1      47.125   0.862   7.469  0.00  0.00    +0.000 A 
ATOM     33  N   UNL     1      46.225   1.606   8.136  0.00  0.00    +0.000 NA
ATOM     34  H   UNL     1      45.510   4.580   8.533  0.00  0.00    +0.000 HD
ENDBRANCH  26  27
ENDBRANCH  23  26
ENDBRANCH   4  23
TORSDOF 8
ENDMDL
