MODEL 1
REMARK VINA RESULT:    -9.119      0.000      0.000
REMARK INTER + INTRA:         -13.864
REMARK INTER:                 -12.851
REMARK INTRA:                  -1.014
REMARK UNBOUND:                -1.014
REMARK  Name = 
REMARK  8 active torsions:
REMARK  status: ('A' for Active; 'I' for Inactive)
REMARK    1  A    between atoms: C_1  and  C_2
REMARK    2  A    between atoms: C_5  and  O_6
REMARK    3  A    between atoms: O_6  and  C_7
REMARK    4  A    between atoms: C_9  and  C_10
REMARK    5  A    between atoms: C_10  and  C_13
REMARK    6  A    between atoms: C_13  and  N_14
REMARK    7  A    between atoms: N_14  and  C_15
REMARK    8  A    between atoms: C_18  and  C_19
REMARK                            x       y       z     vdW  Elec       q    Type
REMARK                         _______ _______ _______ _____ _____    ______ ____
ROOT
ATOM      1  C   UNL     1      44.673   5.301  12.323  0.00  0.00    +0.000 C 
ATOM      2  F   UNL     1      44.553   3.942  12.366  0.00  0.00    +0.000 F 
ATOM      3  F   UNL     1      43.703   5.779  13.163  0.00  0.00    +0.000 F 
ENDROOT
BRANCH   1   6
ATOM      4  C   UNL     1      47.831   5.825  14.409  0.00  0.00    +0.000 A 
ATOM      5  C   UNL     1      46.581   5.372  13.986  0.00  0.00    +0.000 A 
ATOM      6  C   UNL     1      46.057   5.768  12.742  0.00  0.00    +0.000 A 
ATOM      7  C   UNL     1      46.814   6.618  11.919  0.00  0.00    +0.000 A 
ATOM      8  C   UNL     1      48.075   7.052  12.330  0.00  0.00    +0.000 A 
ATOM      9  C   UNL     1      48.576   6.652  13.567  0.00  0.00    +0.000 A 
ATOM     10  F   UNL     1      49.787   7.087  13.943  0.00  0.00    +0.000 F 
BRANCH   4  11
ATOM     11  O   UNL     1      48.396   5.484  15.615  0.00  0.00    +0.000 OA
BRANCH  11  16
ATOM     12  C   UNL     1      49.052   2.128  16.677  0.00  0.00    +0.000 C 
ATOM     13  C   UNL     1      48.792   3.532  17.188  0.00  0.00    +0.000 C 
ATOM     14  N   UNL     1      47.818   3.532  18.306  0.00  0.00    +0.000 NA
ATOM     15  C   UNL     1      47.194   4.746  17.751  0.00  0.00    +0.000 C 
ATOM     16  C   UNL     1      47.799   4.401  16.368  0.00  0.00    +0.000 C 
ATOM     17  H   UNL     1      48.237   3.654  19.228  0.00  0.00    +0.000 HD
ENDBRANCH  11  16
ENDBRANCH   4  11
ENDBRANCH   1   6
BRANCH   1  18
ATOM     18  C   UNL     1      44.355   5.800  10.893  0.00  0.00    +0.000 C 
BRANCH  18  19
ATOM     19  N   UNL     1      43.679   4.792  10.048  0.00  0.00    +0.000 N 
ATOM     20  H   UNL     1      42.941   5.186   9.468  0.00  0.00    +0.000 HD
BRANCH  19  21
ATOM     21  C   UNL     1      44.565   4.036   9.262  0.00  0.00    +0.000 A 
ATOM     22  N   UNL     1      45.384   4.679   8.394  0.00  0.00    +0.000 NA
ATOM     23  C   UNL     1      46.259   3.942   7.670  0.00  0.00    +0.000 A 
ATOM     24  C   UNL     1      46.383   2.565   7.765  0.00  0.00    +0.000 A 
ATOM     25  C   UNL     1      45.548   1.909   8.677  0.00  0.00    +0.000 A 
ATOM     26  C   UNL     1      44.636   2.650   9.421  0.00  0.00    +0.000 A 
ATOM     27  F   UNL     1      43.828   2.014  10.283  0.00  0.00    +0.000 F 
BRANCH  24  28
ATOM     28  C   UNL     1      47.374   1.831   6.918  0.00  0.00    +0.000 C 
ATOM     29  F   UNL     1      48.594   2.435   6.869  0.00  0.00    +0.000 F 
ATOM     30  F   UNL     1      47.601   0.565   7.357  0.00  0.00    +0.000 F 
ATOM     31  F   UNL     1      46.965   1.715   5.626  0.00  0.00    +0.000 F 
ENDBRANCH  24  28
ENDBRANCH  19  21
ENDBRANCH  18  19
ENDBRANCH   1  18
TORSDOF 7
ENDMDL
MODEL 2
REMARK VINA RESULT:    -8.957      1.492      1.894
REMARK INTER + INTRA:         -13.637
REMARK INTER:                 -12.532
REMARK INTRA:                  -1.104
REMARK UNBOUND:                -1.014
REMARK  Name = 
REMARK  8 active torsions:
REMARK  status: ('A' for Active; 'I' for Inactive)
REMARK    1  A    between atoms: C_1  and  C_2
REMARK    2  A    between atoms: C_5  and  O_6
REMARK    3  A    between atoms: O_6  and  C_7
REMARK    4  A    between atoms: C_9  and  C_10
REMARK    5  A    between atoms: C_10  and  C_13
REMARK    6  A    between atoms: C_13  and  N_14
REMARK    7  A    between atoms: N_14  and  C_15
REMARK    8  A    between atoms: C_18  and  C_19
REMARK                            x       y       z     vdW  Elec       q    Type
REMARK                         _______ _______ _______ _____ _____    ______ ____
ROOT
ATOM      1  C   UNL     1      43.235   5.142  12.547  0.00  0.00    +0.000 C 
ATOM      2  F   UNL     1      42.668   4.638  13.681  0.00  0.00    +0.000 F 
ATOM      3  F   UNL     1      42.463   6.220  12.202  0.00  0.00    +0.000 F 
ENDROOT
BRANCH   1   6
ATOM      4  C   UNL     1      46.833   5.123  13.831  0.00  0.00    +0.000 A 
ATOM      5  C   UNL     1      45.510   4.754  13.589  0.00  0.00    +0.000 A 
ATOM      6  C   UNL     1      44.687   5.536  12.757  0.00  0.00    +0.000 A 
ATOM      7  C   UNL     1      45.218   6.690  12.158  0.00  0.00    +0.000 A 
ATOM      8  C   UNL     1      46.550   7.046  12.379  0.00  0.00    +0.000 A 
ATOM      9  C   UNL     1      47.347   6.261  13.208  0.00  0.00    +0.000 A 
ATOM     10  F   UNL     1      48.622   6.628  13.410  0.00  0.00    +0.000 F 
BRANCH   4  11
ATOM     11  O   UNL     1      47.687   4.410  14.640  0.00  0.00    +0.000 OA
BRANCH  11  16
ATOM     12  C   UNL     1      47.490   2.704  17.782  0.00  0.00    +0.000 C 
ATOM     13  C   UNL     1      48.374   3.615  16.950  0.00  0.00    +0.000 C 
ATOM     14  N   UNL     1      48.929   4.724  17.762  0.00  0.00    +0.000 NA
ATOM     15  C   UNL     1      48.707   5.647  16.635  0.00  0.00    +0.000 C 
ATOM     16  C   UNL     1      47.653   4.667  16.064  0.00  0.00    +0.000 C 
ATOM     17  H   UNL     1      49.906   4.603  18.025  0.00  0.00    +0.000 HD
ENDBRANCH  11  16
ENDBRANCH   4  11
ENDBRANCH   1   6
BRANCH   1  18
ATOM     18  C   UNL     1      43.128   4.096  11.410  0.00  0.00    +0.000 C 
BRANCH  18  19
ATOM     19  N   UNL     1      43.528   4.617  10.086  0.00  0.00    +0.000 N 
ATOM     20  H   UNL     1      43.887   5.569  10.121  0.00  0.00    +0.000 HD
BRANCH  19  21
ATOM     21  C   UNL     1      44.433   3.782   9.406  0.00  0.00    +0.000 A 
ATOM     22  N   UNL     1      44.204   2.446   9.386  0.00  0.00    +0.000 NA
ATOM     23  C   UNL     1      45.063   1.658   8.696  0.00  0.00    +0.000 A 
ATOM     24  C   UNL     1      46.161   2.129   7.996  0.00  0.00    +0.000 A 
ATOM     25  C   UNL     1      46.380   3.512   8.003  0.00  0.00    +0.000 A 
ATOM     26  C   UNL     1      45.515   4.335   8.716  0.00  0.00    +0.000 A 
ATOM     27  F   UNL     1      45.738   5.658   8.732  0.00  0.00    +0.000 F 
BRANCH  24  28
ATOM     28  C   UNL     1      47.061   1.182   7.267  0.00  0.00    +0.000 C 
ATOM     29  F   UNL     1      47.057  -0.076   7.789  0.00  0.00    +0.000 F 
ATOM     30  F   UNL     1      46.726   1.045   5.957  0.00  0.00    +0.000 F 
ATOM     31  F   UNL     1      48.360   1.587   7.284  0.00  0.00    +0.000 F 
ENDBRANCH  24  28
ENDBRANCH  19  21
ENDBRANCH  18  19
ENDBRANCH   1  18
TORSDOF 7
ENDMDL
MODEL 3
REMARK VINA RESULT:    -8.870      1.311      1.715
REMARK INTER + INTRA:         -13.514
REMARK INTER:                 -12.227
REMARK INTRA:                  -1.287
REMARK UNBOUND:                -1.014
REMARK  Name = 
REMARK  8 active torsions:
REMARK  status: ('A' for Active; 'I' for Inactive)
REMARK    1  A    between atoms: C_1  and  C_2
REMARK    2  A    between atoms: C_5  and  O_6
REMARK    3  A    between atoms: O_6  and  C_7
REMARK    4  A    between atoms: C_9  and  C_10
REMARK    5  A    between atoms: C_10  and  C_13
REMARK    6  A    between atoms: C_13  and  N_14
REMARK    7  A    between atoms: N_14  and  C_15
REMARK    8  A    between atoms: C_18  and  C_19
REMARK                            x       y       z     vdW  Elec       q    Type
REMARK                         _______ _______ _______ _____ _____    ______ ____
ROOT
ATOM      1  C   UNL     1      44.136   4.309  12.502  0.00  0.00    +0.000 C 
ATOM      2  F   UNL     1      43.386   4.181  13.634  0.00  0.00    +0.000 F 
ATOM      3  F   UNL     1      43.356   5.016  11.626  0.00  0.00    +0.000 F 
ENDROOT
BRANCH   1   6
ATOM      4  C   UNL     1      47.336   5.445  14.254  0.00  0.00    +0.000 A 
ATOM      5  C   UNL     1      46.144   4.778  13.973  0.00  0.00    +0.000 A 
ATOM      6  C   UNL     1      45.458   5.011  12.766  0.00  0.00    +0.000 A 
ATOM      7  C   UNL     1      45.997   5.915  11.836  0.00  0.00    +0.000 A 
ATOM      8  C   UNL     1      47.203   6.564  12.106  0.00  0.00    +0.000 A 
ATOM      9  C   UNL     1      47.865   6.323  13.307  0.00  0.00    +0.000 A 
ATOM     10  F   UNL     1      49.019   6.964  13.546  0.00  0.00    +0.000 F 
BRANCH   4  11
ATOM     11  O   UNL     1      48.050   5.271  15.416  0.00  0.00    +0.000 OA
BRANCH  11  16
ATOM     12  C   UNL     1      49.079   2.092  16.704  0.00  0.00    +0.000 C 
ATOM     13  C   UNL     1      48.765   3.519  17.109  0.00  0.00    +0.000 C 
ATOM     14  N   UNL     1      47.921   3.567  18.326  0.00  0.00    +0.000 NA
ATOM     15  C   UNL     1      47.147   4.672  17.735  0.00  0.00    +0.000 C 
ATOM     16  C   UNL     1      47.625   4.232  16.330  0.00  0.00    +0.000 C 
ATOM     17  H   UNL     1      48.425   3.810  19.178  0.00  0.00    +0.000 HD
ENDBRANCH  11  16
ENDBRANCH   4  11
ENDBRANCH   1   6
BRANCH   1  18
ATOM     18  C   UNL     1      44.391   2.910  11.892  0.00  0.00    +0.000 C 
BRANCH  18  19
ATOM     19  N   UNL     1      43.783   2.724  10.557  0.00  0.00    +0.000 N 
ATOM     20  H   UNL     1      43.056   3.407  10.350  0.00  0.00    +0.000 HD
BRANCH  19  21
ATOM     21  C   UNL     1      44.724   2.684   9.514  0.00  0.00    +0.000 A 
ATOM     22  N   UNL     1      45.293   1.497   9.189  0.00  0.00    +0.000 NA
ATOM     23  C   UNL     1      46.169   1.466   8.157  0.00  0.00    +0.000 A 
ATOM     24  C   UNL     1      46.519   2.571   7.399  0.00  0.00    +0.000 A 
ATOM     25  C   UNL     1      45.914   3.790   7.727  0.00  0.00    +0.000 A 
ATOM     26  C   UNL     1      45.019   3.842   8.791  0.00  0.00    +0.000 A 
ATOM     27  F   UNL     1      44.453   5.016   9.110  0.00  0.00    +0.000 F 
BRANCH  24  28
ATOM     28  C   UNL     1      47.505   2.445   6.280  0.00  0.00    +0.000 C 
ATOM     29  F   UNL     1      47.648   1.168   5.830  0.00  0.00    +0.000 F 
ATOM     30  F   UNL     1      47.162   3.188   5.195  0.00  0.00    +0.000 F 
ATOM     31  F   UNL     1      48.751   2.853   6.641  0.00  0.00    +0.000 F 
ENDBRANCH  24  28
ENDBRANCH  19  21
ENDBRANCH  18  19
ENDBRANCH   1  18
TORSDOF 7
ENDMDL
MODEL 4
REMARK VINA RESULT:    -8.261      1.824      2.330
REMARK INTER + INTRA:         -12.655
REMARK INTER:                 -11.772
REMARK INTRA:                  -0.884
REMARK UNBOUND:                -1.014
REMARK  Name = 
REMARK  8 active torsions:
REMARK  status: ('A' for Active; 'I' for Inactive)
REMARK    1  A    between atoms: C_1  and  C_2
REMARK    2  A    between atoms: C_5  and  O_6
REMARK    3  A    between atoms: O_6  and  C_7
REMARK    4  A    between atoms: C_9  and  C_10
REMARK    5  A    between atoms: C_10  and  C_13
REMARK    6  A    between atoms: C_13  and  N_14
REMARK    7  A    between atoms: N_14  and  C_15
REMARK    8  A    between atoms: C_18  and  C_19
REMARK                            x       y       z     vdW  Elec       q    Type
REMARK                         _______ _______ _______ _____ _____    ______ ____
ROOT
ATOM      1  C   UNL     1      45.172   5.528  12.298  0.00  0.00    +0.000 C 
ATOM      2  F   UNL     1      45.157   4.170  12.436  0.00  0.00    +0.000 F 
ATOM      3  F   UNL     1      44.327   6.001  13.267  0.00  0.00    +0.000 F 
ENDROOT
BRANCH   1   6
ATOM      4  C   UNL     1      48.555   6.461  13.809  0.00  0.00    +0.000 A 
ATOM      5  C   UNL     1      47.288   5.903  13.638  0.00  0.00    +0.000 A 
ATOM      6  C   UNL     1      46.570   6.104  12.444  0.00  0.00    +0.000 A 
ATOM      7  C   UNL     1      47.151   6.864  11.415  0.00  0.00    +0.000 A 
ATOM      8  C   UNL     1      48.429   7.401  11.576  0.00  0.00    +0.000 A 
ATOM      9  C   UNL     1      49.122   7.194  12.766  0.00  0.00    +0.000 A 
ATOM     10  F   UNL     1      50.347   7.726  12.899  0.00  0.00    +0.000 F 
BRANCH   4  11
ATOM     11  O   UNL     1      49.305   6.311  14.952  0.00  0.00    +0.000 OA
BRANCH  11  16
ATOM     12  C   UNL     1      48.818   9.856  15.103  0.00  0.00    +0.000 C 
ATOM     13  C   UNL     1      48.307   8.538  15.653  0.00  0.00    +0.000 C 
ATOM     14  N   UNL     1      48.105   8.602  17.120  0.00  0.00    +0.000 NA
ATOM     15  C   UNL     1      48.655   7.241  17.247  0.00  0.00    +0.000 C 
ATOM     16  C   UNL     1      49.362   7.420  15.881  0.00  0.00    +0.000 C 
ATOM     17  H   UNL     1      47.130   8.694  17.406  0.00  0.00    +0.000 HD
ENDBRANCH  11  16
ENDBRANCH   4  11
ENDBRANCH   1   6
BRANCH   1  18
ATOM     18  C   UNL     1      44.581   5.912  10.920  0.00  0.00    +0.000 C 
BRANCH  18  19
ATOM     19  N   UNL     1      43.825   4.819  10.273  0.00  0.00    +0.000 N 
ATOM     20  H   UNL     1      42.985   5.140   9.795  0.00  0.00    +0.000 HD
BRANCH  19  21
ATOM     21  C   UNL     1      44.607   4.034   9.408  0.00  0.00    +0.000 A 
ATOM     22  N   UNL     1      45.371   4.650   8.474  0.00  0.00    +0.000 NA
ATOM     23  C   UNL     1      46.148   3.883   7.672  0.00  0.00    +0.000 A 
ATOM     24  C   UNL     1      46.223   2.502   7.749  0.00  0.00    +0.000 A 
ATOM     25  C   UNL     1      45.446   1.873   8.730  0.00  0.00    +0.000 A 
ATOM     26  C   UNL     1      44.634   2.644   9.554  0.00  0.00    +0.000 A 
ATOM     27  F   UNL     1      43.881   2.035  10.482  0.00  0.00    +0.000 F 
BRANCH  24  28
ATOM     28  C   UNL     1      47.105   1.735   6.815  0.00  0.00    +0.000 C 
ATOM     29  F   UNL     1      47.049   2.184   5.530  0.00  0.00    +0.000 F 
ATOM     30  F   UNL     1      48.415   1.785   7.173  0.00  0.00    +0.000 F 
ATOM     31  F   UNL     1      46.778   0.416   6.762  0.00  0.00    +0.000 F 
ENDBRANCH  24  28
ENDBRANCH  19  21
ENDBRANCH  18  19
ENDBRANCH   1  18
TORSDOF 7
ENDMDL
MODEL 5
REMARK VINA RESULT:    -8.045      2.532      3.676
REMARK INTER + INTRA:         -12.351
REMARK INTER:                 -11.983
REMARK INTRA:                  -0.368
REMARK UNBOUND:                -1.014
REMARK  Name = 
REMARK  8 active torsions:
REMARK  status: ('A' for Active; 'I' for Inactive)
REMARK    1  A    between atoms: C_1  and  C_2
REMARK    2  A    between atoms: C_5  and  O_6
REMARK    3  A    between atoms: O_6  and  C_7
REMARK    4  A    between atoms: C_9  and  C_10
REMARK    5  A    between atoms: C_10  and  C_13
REMARK    6  A    between atoms: C_13  and  N_14
REMARK    7  A    between atoms: N_14  and  C_15
REMARK    8  A    between atoms: C_18  and  C_19
REMARK                            x       y       z     vdW  Elec       q    Type
REMARK                         _______ _______ _______ _____ _____    ______ ____
ROOT
ATOM      1  C   UNL     1      43.503   4.775  12.619  0.00  0.00    +0.000 C 
ATOM      2  F   UNL     1      42.996   4.093  13.687  0.00  0.00    +0.000 F 
ATOM      3  F   UNL     1      42.646   5.825  12.417  0.00  0.00    +0.000 F 
ENDROOT
BRANCH   1   6
ATOM      4  C   UNL     1      46.672   6.906  12.489  0.00  0.00    +0.000 A 
ATOM      5  C   UNL     1      45.358   6.471  12.313  0.00  0.00    +0.000 A 
ATOM      6  C   UNL     1      44.925   5.251  12.865  0.00  0.00    +0.000 A 
ATOM      7  C   UNL     1      45.829   4.478  13.611  0.00  0.00    +0.000 A 
ATOM      8  C   UNL     1      47.136   4.924  13.809  0.00  0.00    +0.000 A 
ATOM      9  C   UNL     1      47.548   6.132  13.253  0.00  0.00    +0.000 A 
ATOM     10  F   UNL     1      48.811   6.536  13.452  0.00  0.00    +0.000 F 
BRANCH   4  11
ATOM     11  O   UNL     1      47.162   8.081  11.970  0.00  0.00    +0.000 OA
BRANCH  11  16
ATOM     12  C   UNL     1      48.739   9.804  14.684  0.00  0.00    +0.000 C 
ATOM     13  C   UNL     1      48.381   9.926  13.215  0.00  0.00    +0.000 C 
ATOM     14  N   UNL     1      47.811  11.258  12.903  0.00  0.00    +0.000 NA
ATOM     15  C   UNL     1      46.827  10.618  12.012  0.00  0.00    +0.000 C 
ATOM     16  C   UNL     1      47.040   9.283  12.767  0.00  0.00    +0.000 C 
ATOM     17  H   UNL     1      48.457  11.893  12.435  0.00  0.00    +0.000 HD
ENDBRANCH  11  16
ENDBRANCH   4  11
ENDBRANCH   1   6
BRANCH   1  18
ATOM     18  C   UNL     1      43.456   3.872  11.363  0.00  0.00    +0.000 C 
BRANCH  18  19
ATOM     19  N   UNL     1      43.671   4.605  10.097  0.00  0.00    +0.000 N 
ATOM     20  H   UNL     1      43.951   5.574  10.238  0.00  0.00    +0.000 HD
BRANCH  19  21
ATOM     21  C   UNL     1      44.565   3.962   9.223  0.00  0.00    +0.000 A 
ATOM     22  N   UNL     1      45.358   4.717   8.425  0.00  0.00    +0.000 NA
ATOM     23  C   UNL     1      46.241   4.086   7.615  0.00  0.00    +0.000 A 
ATOM     24  C   UNL     1      46.398   2.710   7.555  0.00  0.00    +0.000 A 
ATOM     25  C   UNL     1      45.589   1.937   8.397  0.00  0.00    +0.000 A 
ATOM     26  C   UNL     1      44.669   2.569   9.227  0.00  0.00    +0.000 A 
ATOM     27  F   UNL     1      43.887   1.822  10.021  0.00  0.00    +0.000 F 
BRANCH  24  28
ATOM     28  C   UNL     1      47.395   2.098   6.623  0.00  0.00    +0.000 C 
ATOM     29  F   UNL     1      47.187   2.429   5.318  0.00  0.00    +0.000 F 
ATOM     30  F   UNL     1      48.672   2.471   6.905  0.00  0.00    +0.000 F 
ATOM     31  F   UNL     1      47.380   0.739   6.669  0.00  0.00    +0.000 F 
ENDBRANCH  24  28
ENDBRANCH  19  21
ENDBRANCH  18  19
ENDBRANCH   1  18
TORSDOF 7
ENDMDL
MODEL 6
REMARK VINA RESULT:    -7.964      2.254      3.456
REMARK INTER + INTRA:         -12.237
REMARK INTER:                 -11.595
REMARK INTRA:                  -0.642
REMARK UNBOUND:                -1.014
REMARK  Name = 
REMARK  8 active torsions:
REMARK  status: ('A' for Active; 'I' for Inactive)
REMARK    1  A    between atoms: C_1  and  C_2
REMARK    2  A    between atoms: C_5  and  O_6
REMARK    3  A    between atoms: O_6  and  C_7
REMARK    4  A    between atoms: C_9  and  C_10
REMARK    5  A    between atoms: C_10  and  C_13
REMARK    6  A    between atoms: C_13  and  N_14
REMARK    7  A    between atoms: N_14  and  C_15
REMARK    8  A    between atoms: C_18  and  C_19
REMARK                            x       y       z     vdW  Elec       q    Type
REMARK                         _______ _______ _______ _____ _____    ______ ____
ROOT
ATOM      1  C   UNL     1      45.602   6.217  11.682  0.00  0.00    +0.000 C 
ATOM      2  F   UNL     1      45.070   7.472  11.753  0.00  0.00    +0.000 F 
ATOM      3  F   UNL     1      46.421   6.231  10.584  0.00  0.00    +0.000 F 
ENDROOT
BRANCH   1   6
ATOM      4  C   UNL     1      48.237   6.235  14.450  0.00  0.00    +0.000 A 
ATOM      5  C   UNL     1      47.499   6.587  13.320  0.00  0.00    +0.000 A 
ATOM      6  C   UNL     1      46.363   5.845  12.944  0.00  0.00    +0.000 A 
ATOM      7  C   UNL     1      45.971   4.749  13.729  0.00  0.00    +0.000 A 
ATOM      8  C   UNL     1      46.695   4.411  14.874  0.00  0.00    +0.000 A 
ATOM      9  C   UNL     1      47.817   5.155  15.228  0.00  0.00    +0.000 A 
ATOM     10  F   UNL     1      48.500   4.807  16.329  0.00  0.00    +0.000 F 
BRANCH   4  11
ATOM     11  O   UNL     1      49.360   6.911  14.867  0.00  0.00    +0.000 OA
BRANCH  11  16
ATOM     12  C   UNL     1      48.699  10.151  13.491  0.00  0.00    +0.000 C 
ATOM     13  C   UNL     1      49.672   9.379  14.364  0.00  0.00    +0.000 C 
ATOM     14  N   UNL     1      51.079   9.686  14.013  0.00  0.00    +0.000 NA
ATOM     15  C   UNL     1      51.423   8.264  14.186  0.00  0.00    +0.000 C 
ATOM     16  C   UNL     1      49.933   7.897  13.976  0.00  0.00    +0.000 C 
ATOM     17  H   UNL     1      51.545  10.318  14.664  0.00  0.00    +0.000 HD
ENDBRANCH  11  16
ENDBRANCH   4  11
ENDBRANCH   1   6
BRANCH   1  18
ATOM     18  C   UNL     1      44.472   5.192  11.422  0.00  0.00    +0.000 C 
BRANCH  18  19
ATOM     19  N   UNL     1      44.053   5.117  10.007  0.00  0.00    +0.000 N 
ATOM     20  H   UNL     1      44.069   6.020   9.535  0.00  0.00    +0.000 HD
BRANCH  19  21
ATOM     21  C   UNL     1      44.770   4.166   9.260  0.00  0.00    +0.000 A 
ATOM     22  N   UNL     1      45.621   4.595   8.297  0.00  0.00    +0.000 NA
ATOM     23  C   UNL     1      46.333   3.669   7.611  0.00  0.00    +0.000 A 
ATOM     24  C   UNL     1      46.258   2.304   7.836  0.00  0.00    +0.000 A 
ATOM     25  C   UNL     1      45.391   1.869   8.846  0.00  0.00    +0.000 A 
ATOM     26  C   UNL     1      44.644   2.806   9.553  0.00  0.00    +0.000 A 
ATOM     27  F   UNL     1      43.805   2.382  10.510  0.00  0.00    +0.000 F 
BRANCH  24  28
ATOM     28  C   UNL     1      47.078   1.353   7.023  0.00  0.00    +0.000 C 
ATOM     29  F   UNL     1      46.886   0.048   7.365  0.00  0.00    +0.000 F 
ATOM     30  F   UNL     1      46.809   1.434   5.694  0.00  0.00    +0.000 F 
ATOM     31  F   UNL     1      48.413   1.578   7.154  0.00  0.00    +0.000 F 
ENDBRANCH  24  28
ENDBRANCH  19  21
ENDBRANCH  18  19
ENDBRANCH   1  18
TORSDOF 7
ENDMDL
MODEL 7
REMARK VINA RESULT:    -7.900      2.136      3.770
REMARK INTER + INTRA:         -12.146
REMARK INTER:                 -11.119
REMARK INTRA:                  -1.027
REMARK UNBOUND:                -1.014
REMARK  Name = 
REMARK  8 active torsions:
REMARK  status: ('A' for Active; 'I' for Inactive)
REMARK    1  A    between atoms: C_1  and  C_2
REMARK    2  A    between atoms: C_5  and  O_6
REMARK    3  A    between atoms: O_6  and  C_7
REMARK    4  A    between atoms: C_9  and  C_10
REMARK    5  A    between atoms: C_10  and  C_13
REMARK    6  A    between atoms: C_13  and  N_14
REMARK    7  A    between atoms: N_14  and  C_15
REMARK    8  A    between atoms: C_18  and  C_19
REMARK                            x       y       z     vdW  Elec       q    Type
REMARK                         _______ _______ _______ _____ _____    ______ ____
ROOT
ATOM      1  C   UNL     1      45.164   4.504  12.670  0.00  0.00    +0.000 C 
ATOM      2  F   UNL     1      45.464   3.237  12.262  0.00  0.00    +0.000 F 
ATOM      3  F   UNL     1      43.956   4.404  13.308  0.00  0.00    +0.000 F 
ENDROOT
BRANCH   1   6
ATOM      4  C   UNL     1      47.856   6.835  14.056  0.00  0.00    +0.000 A 
ATOM      5  C   UNL     1      46.842   6.308  13.256  0.00  0.00    +0.000 A 
ATOM      6  C   UNL     1      46.234   5.082  13.583  0.00  0.00    +0.000 A 
ATOM      7  C   UNL     1      46.650   4.395  14.735  0.00  0.00    +0.000 A 
ATOM      8  C   UNL     1      47.648   4.934  15.549  0.00  0.00    +0.000 A 
ATOM      9  C   UNL     1      48.240   6.147  15.209  0.00  0.00    +0.000 A 
ATOM     10  F   UNL     1      49.201   6.640  16.004  0.00  0.00    +0.000 F 
BRANCH   4  11
ATOM     11  O   UNL     1      48.497   8.021  13.791  0.00  0.00    +0.000 OA
BRANCH  11  16
ATOM     12  C   UNL     1      47.099  10.654  11.806  0.00  0.00    +0.000 C 
ATOM     13  C   UNL     1      48.411  10.066  12.289  0.00  0.00    +0.000 C 
ATOM     14  N   UNL     1      49.403   9.974  11.192  0.00  0.00    +0.000 NA
ATOM     15  C   UNL     1      49.833   8.661  11.703  0.00  0.00    +0.000 C 
ATOM     16  C   UNL     1      48.474   8.521  12.432  0.00  0.00    +0.000 C 
ATOM     17  H   UNL     1      50.124  10.695  11.216  0.00  0.00    +0.000 HD
ENDBRANCH  11  16
ENDBRANCH   4  11
ENDBRANCH   1   6
BRANCH   1  18
ATOM     18  C   UNL     1      44.977   5.413  11.431  0.00  0.00    +0.000 C 
BRANCH  18  19
ATOM     19  N   UNL     1      44.134   4.811  10.376  0.00  0.00    +0.000 N 
ATOM     20  H   UNL     1      43.492   5.477   9.948  0.00  0.00    +0.000 HD
BRANCH  19  21
ATOM     21  C   UNL     1      44.871   4.140   9.386  0.00  0.00    +0.000 A 
ATOM     22  N   UNL     1      45.708   4.854   8.594  0.00  0.00    +0.000 NA
ATOM     23  C   UNL     1      46.440   4.189   7.669  0.00  0.00    +0.000 A 
ATOM     24  C   UNL     1      46.399   2.817   7.482  0.00  0.00    +0.000 A 
ATOM     25  C   UNL     1      45.548   2.083   8.317  0.00  0.00    +0.000 A 
ATOM     26  C   UNL     1      44.780   2.751   9.265  0.00  0.00    +0.000 A 
ATOM     27  F   UNL     1      43.955   2.044  10.052  0.00  0.00    +0.000 F 
BRANCH  24  28
ATOM     28  C   UNL     1      47.239   2.167   6.428  0.00  0.00    +0.000 C 
ATOM     29  F   UNL     1      48.577   2.336   6.625  0.00  0.00    +0.000 F 
ATOM     30  F   UNL     1      47.039   0.825   6.353  0.00  0.00    +0.000 F 
ATOM     31  F   UNL     1      46.982   2.658   5.186  0.00  0.00    +0.000 F 
ENDBRANCH  24  28
ENDBRANCH  19  21
ENDBRANCH  18  19
ENDBRANCH   1  18
TORSDOF 7
ENDMDL
MODEL 8
REMARK VINA RESULT:    -7.813      2.712      3.208
REMARK INTER + INTRA:         -12.024
REMARK INTER:                 -11.598
REMARK INTRA:                  -0.426
REMARK UNBOUND:                -1.014
REMARK  Name = 
REMARK  8 active torsions:
REMARK  status: ('A' for Active; 'I' for Inactive)
REMARK    1  A    between atoms: C_1  and  C_2
REMARK    2  A    between atoms: C_5  and  O_6
REMARK    3  A    between atoms: O_6  and  C_7
REMARK    4  A    between atoms: C_9  and  C_10
REMARK    5  A    between atoms: C_10  and  C_13
REMARK    6  A    between atoms: C_13  and  N_14
REMARK    7  A    between atoms: N_14  and  C_15
REMARK    8  A    between atoms: C_18  and  C_19
REMARK                            x       y       z     vdW  Elec       q    Type
REMARK                         _______ _______ _______ _____ _____    ______ ____
ROOT
ATOM      1  C   UNL     1      45.018   4.782  12.481  0.00  0.00    +0.000 C 
ATOM      2  F   UNL     1      45.966   3.836  12.218  0.00  0.00    +0.000 F 
ATOM      3  F   UNL     1      44.597   4.529  13.760  0.00  0.00    +0.000 F 
ENDROOT
BRANCH   1   6
ATOM      4  C   UNL     1      47.444   7.677  11.906  0.00  0.00    +0.000 A 
ATOM      5  C   UNL     1      46.914   6.391  11.997  0.00  0.00    +0.000 A 
ATOM      6  C   UNL     1      45.563   6.194  12.340  0.00  0.00    +0.000 A 
ATOM      7  C   UNL     1      44.746   7.312  12.576  0.00  0.00    +0.000 A 
ATOM      8  C   UNL     1      45.270   8.600  12.460  0.00  0.00    +0.000 A 
ATOM      9  C   UNL     1      46.610   8.775  12.123  0.00  0.00    +0.000 A 
ATOM     10  F   UNL     1      47.092  10.023  12.024  0.00  0.00    +0.000 F 
BRANCH   4  11
ATOM     11  O   UNL     1      48.756   7.939  11.585  0.00  0.00    +0.000 OA
BRANCH  11  16
ATOM     12  C   UNL     1      49.178   7.905  15.141  0.00  0.00    +0.000 C 
ATOM     13  C   UNL     1      49.844   7.507  13.837  0.00  0.00    +0.000 C 
ATOM     14  N   UNL     1      51.279   7.877  13.824  0.00  0.00    +0.000 NA
ATOM     15  C   UNL     1      51.150   8.295  12.417  0.00  0.00    +0.000 C 
ATOM     16  C   UNL     1      49.623   8.452  12.624  0.00  0.00    +0.000 C 
ATOM     17  H   UNL     1      51.916   7.096  13.978  0.00  0.00    +0.000 HD
ENDBRANCH  11  16
ENDBRANCH   4  11
ENDBRANCH   1   6
BRANCH   1  18
ATOM     18  C   UNL     1      43.812   4.581  11.532  0.00  0.00    +0.000 C 
BRANCH  18  19
ATOM     19  N   UNL     1      44.043   5.088  10.163  0.00  0.00    +0.000 N 
ATOM     20  H   UNL     1      44.477   6.010  10.145  0.00  0.00    +0.000 HD
BRANCH  19  21
ATOM     21  C   UNL     1      44.764   4.197   9.350  0.00  0.00    +0.000 A 
ATOM     22  N   UNL     1      45.644   4.696   8.449  0.00  0.00    +0.000 NA
ATOM     23  C   UNL     1      46.359   3.824   7.698  0.00  0.00    +0.000 A 
ATOM     24  C   UNL     1      46.259   2.446   7.798  0.00  0.00    +0.000 A 
ATOM     25  C   UNL     1      45.362   1.936   8.745  0.00  0.00    +0.000 A 
ATOM     26  C   UNL     1      44.612   2.817   9.516  0.00  0.00    +0.000 A 
ATOM     27  F   UNL     1      43.744   2.323  10.412  0.00  0.00    +0.000 F 
BRANCH  24  28
ATOM     28  C   UNL     1      47.084   1.558   6.921  0.00  0.00    +0.000 C 
ATOM     29  F   UNL     1      48.422   1.672   7.144  0.00  0.00    +0.000 F 
ATOM     30  F   UNL     1      46.789   0.241   7.084  0.00  0.00    +0.000 F 
ATOM     31  F   UNL     1      46.904   1.825   5.599  0.00  0.00    +0.000 F 
ENDBRANCH  24  28
ENDBRANCH  19  21
ENDBRANCH  18  19
ENDBRANCH   1  18
TORSDOF 7
ENDMDL
MODEL 9
REMARK VINA RESULT:    -7.704      3.350      5.475
REMARK INTER + INTRA:         -11.870
REMARK INTER:                 -10.859
REMARK INTRA:                  -1.011
REMARK UNBOUND:                -1.014
REMARK  Name = 
REMARK  8 active torsions:
REMARK  status: ('A' for Active; 'I' for Inactive)
REMARK    1  A    between atoms: C_1  and  C_2
REMARK    2  A    between atoms: C_5  and  O_6
REMARK    3  A    between atoms: O_6  and  C_7
REMARK    4  A    between atoms: C_9  and  C_10
REMARK    5  A    between atoms: C_10  and  C_13
REMARK    6  A    between atoms: C_13  and  N_14
REMARK    7  A    between atoms: N_14  and  C_15
REMARK    8  A    between atoms: C_18  and  C_19
REMARK                            x       y       z     vdW  Elec       q    Type
REMARK                         _______ _______ _______ _____ _____    ______ ____
ROOT
ATOM      1  C   UNL     1      44.655   5.765  12.258  0.00  0.00    +0.000 C 
ATOM      2  F   UNL     1      45.561   4.748  12.338  0.00  0.00    +0.000 F 
ATOM      3  F   UNL     1      43.794   5.570  13.305  0.00  0.00    +0.000 F 
ENDROOT
BRANCH   1   6
ATOM      4  C   UNL     1      45.368   9.469  11.645  0.00  0.00    +0.000 A 
ATOM      5  C   UNL     1      44.752   8.217  11.633  0.00  0.00    +0.000 A 
ATOM      6  C   UNL     1      45.318   7.131  12.325  0.00  0.00    +0.000 A 
ATOM      7  C   UNL     1      46.509   7.323  13.045  0.00  0.00    +0.000 A 
ATOM      8  C   UNL     1      47.113   8.581  13.078  0.00  0.00    +0.000 A 
ATOM      9  C   UNL     1      46.539   9.643  12.384  0.00  0.00    +0.000 A 
ATOM     10  F   UNL     1      47.142  10.841  12.427  0.00  0.00    +0.000 F 
BRANCH   4  11
ATOM     11  O   UNL     1      44.874  10.568  10.984  0.00  0.00    +0.000 OA
BRANCH  11  16
ATOM     12  C   UNL     1      41.312  10.229  10.818  0.00  0.00    +0.000 C 
ATOM     13  C   UNL     1      42.470  11.097  10.362  0.00  0.00    +0.000 C 
ATOM     14  N   UNL     1      42.349  11.456   8.929  0.00  0.00    +0.000 NA
ATOM     15  C   UNL     1      43.800  11.258   8.765  0.00  0.00    +0.000 C 
ATOM     16  C   UNL     1      43.802  10.367  10.032  0.00  0.00    +0.000 C 
ATOM     17  H   UNL     1      42.029  12.410   8.760  0.00  0.00    +0.000 HD
ENDBRANCH  11  16
ENDBRANCH   4  11
ENDBRANCH   1   6
BRANCH   1  18
ATOM     18  C   UNL     1      43.847   5.632  10.944  0.00  0.00    +0.000 C 
BRANCH  18  19
ATOM     19  N   UNL     1      43.572   4.233  10.555  0.00  0.00    +0.000 N 
ATOM     20  H   UNL     1      42.602   4.073  10.291  0.00  0.00    +0.000 HD
BRANCH  19  21
ATOM     21  C   UNL     1      44.434   3.750   9.555  0.00  0.00    +0.000 A 
ATOM     22  N   UNL     1      45.100   4.639   8.777  0.00  0.00    +0.000 NA
ATOM     23  C   UNL     1      45.955   4.161   7.842  0.00  0.00    +0.000 A 
ATOM     24  C   UNL     1      46.205   2.815   7.632  0.00  0.00    +0.000 A 
ATOM     25  C   UNL     1      45.529   1.902   8.450  0.00  0.00    +0.000 A 
ATOM     26  C   UNL     1      44.639   2.376   9.408  0.00  0.00    +0.000 A 
ATOM     27  F   UNL     1      43.983   1.496  10.181  0.00  0.00    +0.000 F 
BRANCH  24  28
ATOM     28  C   UNL     1      47.162   2.377   6.568  0.00  0.00    +0.000 C 
ATOM     29  F   UNL     1      48.465   2.432   6.960  0.00  0.00    +0.000 F 
ATOM     30  F   UNL     1      46.946   1.096   6.166  0.00  0.00    +0.000 F 
ATOM     31  F   UNL     1      47.077   3.144   5.448  0.00  0.00    +0.000 F 
ENDBRANCH  24  28
ENDBRANCH  19  21
ENDBRANCH  18  19
ENDBRANCH   1  18
TORSDOF 7
ENDMDL
