MODEL 1
REMARK VINA RESULT:    -9.121      0.000      0.000
REMARK INTER + INTRA:         -14.015
REMARK INTER:                 -12.853
REMARK INTRA:                  -1.162
REMARK UNBOUND:                -1.162
REMARK  Name = 
REMARK  7 active torsions:
REMARK  status: ('A' for Active; 'I' for Inactive)
REMARK    1  A    between atoms: C_2  and  C_4
REMARK    2  A    between atoms: C_7  and  O_8
REMARK    3  A    between atoms: O_8  and  C_9
REMARK    4  A    between atoms: C_9  and  C_10
REMARK    5  A    between atoms: C_10  and  C_13
REMARK    6  A    between atoms: C_18  and  O_19
REMARK    7  A    between atoms: O_19  and  C_20
REMARK                            x       y       z     vdW  Elec       q    Type
REMARK                         _______ _______ _______ _____ _____    ______ ____
ROOT
ATOM      1  C   UNL     1      43.863   4.620  12.563  0.00  0.00    +0.000 C 
ATOM      2  F   UNL     1      42.963   5.271  13.358  0.00  0.00    +0.000 F 
ATOM      3  F   UNL     1      43.788   3.305  12.923  0.00  0.00    +0.000 F 
ENDROOT
BRANCH   1   4
ATOM      4  C   UNL     1      45.265   5.170  12.747  0.00  0.00    +0.000 A 
ATOM      5  C   UNL     1      45.805   6.079  11.829  0.00  0.00    +0.000 A 
ATOM      6  C   UNL     1      47.086   6.585  12.026  0.00  0.00    +0.000 A 
ATOM      7  F   UNL     1      47.583   7.465  11.147  0.00  0.00    +0.000 F 
ATOM      8  C   UNL     1      47.862   6.201  13.118  0.00  0.00    +0.000 A 
ATOM      9  C   UNL     1      47.342   5.287  14.028  0.00  0.00    +0.000 A 
ATOM     10  C   UNL     1      46.050   4.781  13.847  0.00  0.00    +0.000 A 
BRANCH   9  11
ATOM     11  O   UNL     1      47.985   4.842  15.154  0.00  0.00    +0.000 OA
BRANCH  11  12
ATOM     12  C   UNL     1      47.287   3.963  16.065  0.00  0.00    +0.000 C 
ATOM     13  C   UNL     1      47.175   4.391  17.534  0.00  0.00    +0.000 C 
ATOM     14  O   UNL     1      47.875   3.213  17.993  0.00  0.00    +0.000 OA
ATOM     15  C   UNL     1      48.131   2.809  16.629  0.00  0.00    +0.000 C 
ENDBRANCH  11  12
ENDBRANCH   9  11
ENDBRANCH   1   4
BRANCH   1  16
ATOM     16  C   UNL     1      43.417   4.758  11.096  0.00  0.00    +0.000 C 
BRANCH  16  17
ATOM     17  O   UNL     1      43.465   3.484  10.439  0.00  0.00    +0.000 OA
BRANCH  17  21
ATOM     18  C   UNL     1      46.427   2.679   7.614  0.00  0.00    +0.000 A 
ATOM     19  C   UNL     1      46.001   4.002   7.775  0.00  0.00    +0.000 A 
ATOM     20  C   UNL     1      45.009   4.315   8.712  0.00  0.00    +0.000 A 
ATOM     21  C   UNL     1      44.437   3.309   9.494  0.00  0.00    +0.000 A 
ATOM     22  C   UNL     1      44.858   1.987   9.323  0.00  0.00    +0.000 A 
ATOM     23  C   UNL     1      45.843   1.669   8.385  0.00  0.00    +0.000 A 
BRANCH  18  25
ATOM     24  N   UNL     1      47.520   3.043   5.468  0.00  0.00    +0.000 N 
ATOM     25  C   UNL     1      47.468   2.311   6.622  0.00  0.00    +0.000 C 
ATOM     26  O   UNL     1      48.274   1.413   6.836  0.00  0.00    +0.000 OA
ATOM     27  H   UNL     1      48.303   2.851   4.855  0.00  0.00    +0.000 HD
ATOM     28  H   UNL     1      47.063   3.938   5.376  0.00  0.00    +0.000 HD
ENDBRANCH  18  25
ENDBRANCH  17  21
ENDBRANCH  16  17
ENDBRANCH   1  16
TORSDOF 7
ENDMDL
MODEL 2
REMARK VINA RESULT:    -8.238      2.268      3.801
REMARK INTER + INTRA:         -12.771
REMARK INTER:                 -11.715
REMARK INTRA:                  -1.055
REMARK UNBOUND:                -1.162
REMARK  Name = 
REMARK  7 active torsions:
REMARK  status: ('A' for Active; 'I' for Inactive)
REMARK    1  A    between atoms: C_2  and  C_4
REMARK    2  A    between atoms: C_7  and  O_8
REMARK    3  A    between atoms: O_8  and  C_9
REMARK    4  A    between atoms: C_9  and  C_10
REMARK    5  A    between atoms: C_10  and  C_13
REMARK    6  A    between atoms: C_18  and  O_19
REMARK    7  A    between atoms: O_19  and  C_20
REMARK                            x       y       z     vdW  Elec       q    Type
REMARK                         _______ _______ _______ _____ _____    ______ ____
ROOT
ATOM      1  C   UNL     1      43.503   5.611  12.176  0.00  0.00    +0.000 C 
ATOM      2  F   UNL     1      43.281   6.767  11.483  0.00  0.00    +0.000 F 
ATOM      3  F   UNL     1      42.564   5.592  13.166  0.00  0.00    +0.000 F 
ENDROOT
BRANCH   1   4
ATOM      4  C   UNL     1      44.911   5.566  12.740  0.00  0.00    +0.000 A 
ATOM      5  C   UNL     1      45.462   4.362  13.195  0.00  0.00    +0.000 A 
ATOM      6  C   UNL     1      46.761   4.338  13.694  0.00  0.00    +0.000 A 
ATOM      7  F   UNL     1      47.279   3.177  14.110  0.00  0.00    +0.000 F 
ATOM      8  C   UNL     1      47.536   5.495  13.764  0.00  0.00    +0.000 A 
ATOM      9  C   UNL     1      46.992   6.699  13.330  0.00  0.00    +0.000 A 
ATOM     10  C   UNL     1      45.692   6.732  12.816  0.00  0.00    +0.000 A 
BRANCH   9  11
ATOM     11  O   UNL     1      47.649   7.903  13.323  0.00  0.00    +0.000 OA
BRANCH  11  12
ATOM     12  C   UNL     1      47.654   8.697  12.114  0.00  0.00    +0.000 C 
ATOM     13  C   UNL     1      49.010   9.145  11.553  0.00  0.00    +0.000 C 
ATOM     14  O   UNL     1      48.664  10.543  11.672  0.00  0.00    +0.000 OA
ATOM     15  C   UNL     1      47.420  10.201  12.324  0.00  0.00    +0.000 C 
ENDBRANCH  11  12
ENDBRANCH   9  11
ENDBRANCH   1   4
BRANCH   1  16
ATOM     16  C   UNL     1      43.258   4.417  11.237  0.00  0.00    +0.000 C 
BRANCH  16  17
ATOM     17  O   UNL     1      43.671   4.739   9.901  0.00  0.00    +0.000 OA
BRANCH  17  21
ATOM     18  C   UNL     1      46.330   2.253   7.865  0.00  0.00    +0.000 A 
ATOM     19  C   UNL     1      45.439   1.673   8.775  0.00  0.00    +0.000 A 
ATOM     20  C   UNL     1      44.530   2.472   9.480  0.00  0.00    +0.000 A 
ATOM     21  C   UNL     1      44.506   3.854   9.279  0.00  0.00    +0.000 A 
ATOM     22  C   UNL     1      45.404   4.431   8.376  0.00  0.00    +0.000 A 
ATOM     23  C   UNL     1      46.316   3.638   7.675  0.00  0.00    +0.000 A 
BRANCH  18  25
ATOM     24  N   UNL     1      48.409   2.083   6.608  0.00  0.00    +0.000 N 
ATOM     25  C   UNL     1      47.314   1.437   7.110  0.00  0.00    +0.000 C 
ATOM     26  O   UNL     1      47.175   0.228   6.968  0.00  0.00    +0.000 OA
ATOM     27  H   UNL     1      49.121   1.494   6.192  0.00  0.00    +0.000 HD
ATOM     28  H   UNL     1      48.688   3.000   6.926  0.00  0.00    +0.000 HD
ENDBRANCH  18  25
ENDBRANCH  17  21
ENDBRANCH  16  17
ENDBRANCH   1  16
TORSDOF 7
ENDMDL
MODEL 3
REMARK VINA RESULT:    -8.215      1.366      1.496
REMARK INTER + INTRA:         -12.739
REMARK INTER:                 -11.801
REMARK INTRA:                  -0.938
REMARK UNBOUND:                -1.162
REMARK  Name = 
REMARK  7 active torsions:
REMARK  status: ('A' for Active; 'I' for Inactive)
REMARK    1  A    between atoms: C_2  and  C_4
REMARK    2  A    between atoms: C_7  and  O_8
REMARK    3  A    between atoms: O_8  and  C_9
REMARK    4  A    between atoms: C_9  and  C_10
REMARK    5  A    between atoms: C_10  and  C_13
REMARK    6  A    between atoms: C_18  and  O_19
REMARK    7  A    between atoms: O_19  and  C_20
REMARK                            x       y       z     vdW  Elec       q    Type
REMARK                         _______ _______ _______ _____ _____    ______ ____
ROOT
ATOM      1  C   UNL     1      44.207   4.655  12.489  0.00  0.00    +0.000 C 
ATOM      2  F   UNL     1      43.257   4.753  13.465  0.00  0.00    +0.000 F 
ATOM      3  F   UNL     1      44.737   3.404  12.617  0.00  0.00    +0.000 F 
ENDROOT
BRANCH   1   4
ATOM      4  C   UNL     1      45.268   5.730  12.639  0.00  0.00    +0.000 A 
ATOM      5  C   UNL     1      45.083   7.002  12.084  0.00  0.00    +0.000 A 
ATOM      6  C   UNL     1      46.061   7.978  12.247  0.00  0.00    +0.000 A 
ATOM      7  F   UNL     1      45.863   9.194  11.723  0.00  0.00    +0.000 F 
ATOM      8  C   UNL     1      47.237   7.721  12.948  0.00  0.00    +0.000 A 
ATOM      9  C   UNL     1      47.438   6.456  13.490  0.00  0.00    +0.000 A 
ATOM     10  C   UNL     1      46.456   5.470  13.342  0.00  0.00    +0.000 A 
BRANCH   9  11
ATOM     11  O   UNL     1      48.536   6.076  14.220  0.00  0.00    +0.000 OA
BRANCH  11  12
ATOM     12  C   UNL     1      48.627   6.462  15.610  0.00  0.00    +0.000 C 
ATOM     13  C   UNL     1      50.016   6.475  16.263  0.00  0.00    +0.000 C 
ATOM     14  O   UNL     1      49.626   5.498  17.253  0.00  0.00    +0.000 OA
ATOM     15  C   UNL     1      48.339   5.336  16.616  0.00  0.00    +0.000 C 
ENDBRANCH  11  12
ENDBRANCH   9  11
ENDBRANCH   1   4
BRANCH   1  16
ATOM     16  C   UNL     1      43.518   4.763  11.117  0.00  0.00    +0.000 C 
BRANCH  16  17
ATOM     17  O   UNL     1      43.536   3.494  10.448  0.00  0.00    +0.000 OA
BRANCH  17  21
ATOM     18  C   UNL     1      46.414   2.686   7.539  0.00  0.00    +0.000 A 
ATOM     19  C   UNL     1      45.982   4.008   7.701  0.00  0.00    +0.000 A 
ATOM     20  C   UNL     1      45.017   4.321   8.666  0.00  0.00    +0.000 A 
ATOM     21  C   UNL     1      44.479   3.318   9.475  0.00  0.00    +0.000 A 
ATOM     22  C   UNL     1      44.906   1.998   9.303  0.00  0.00    +0.000 A 
ATOM     23  C   UNL     1      45.864   1.680   8.338  0.00  0.00    +0.000 A 
BRANCH  18  25
ATOM     24  N   UNL     1      47.426   3.029   5.350  0.00  0.00    +0.000 N 
ATOM     25  C   UNL     1      47.427   2.317   6.519  0.00  0.00    +0.000 C 
ATOM     26  O   UNL     1      48.255   1.438   6.721  0.00  0.00    +0.000 OA
ATOM     27  H   UNL     1      48.191   2.838   4.713  0.00  0.00    +0.000 HD
ATOM     28  H   UNL     1      46.951   3.913   5.258  0.00  0.00    +0.000 HD
ENDBRANCH  18  25
ENDBRANCH  17  21
ENDBRANCH  16  17
ENDBRANCH   1  16
TORSDOF 7
ENDMDL
MODEL 4
REMARK VINA RESULT:    -8.091      2.885      4.576
REMARK INTER + INTRA:         -12.563
REMARK INTER:                 -11.379
REMARK INTRA:                  -1.184
REMARK UNBOUND:                -1.162
REMARK  Name = 
REMARK  7 active torsions:
REMARK  status: ('A' for Active; 'I' for Inactive)
REMARK    1  A    between atoms: C_2  and  C_4
REMARK    2  A    between atoms: C_7  and  O_8
REMARK    3  A    between atoms: O_8  and  C_9
REMARK    4  A    between atoms: C_9  and  C_10
REMARK    5  A    between atoms: C_10  and  C_13
REMARK    6  A    between atoms: C_18  and  O_19
REMARK    7  A    between atoms: O_19  and  C_20
REMARK                            x       y       z     vdW  Elec       q    Type
REMARK                         _______ _______ _______ _____ _____    ______ ____
ROOT
ATOM      1  C   UNL     1      43.326   4.871  12.270  0.00  0.00    +0.000 C 
ATOM      2  F   UNL     1      42.276   5.348  11.539  0.00  0.00    +0.000 F 
ATOM      3  F   UNL     1      42.851   4.725  13.542  0.00  0.00    +0.000 F 
ENDROOT
BRANCH   1   4
ATOM      4  C   UNL     1      44.510   5.818  12.221  0.00  0.00    +0.000 A 
ATOM      5  C   UNL     1      45.804   5.361  12.501  0.00  0.00    +0.000 A 
ATOM      6  C   UNL     1      46.880   6.242  12.434  0.00  0.00    +0.000 A 
ATOM      7  F   UNL     1      48.113   5.788  12.690  0.00  0.00    +0.000 F 
ATOM      8  C   UNL     1      46.703   7.584  12.102  0.00  0.00    +0.000 A 
ATOM      9  C   UNL     1      45.420   8.051  11.839  0.00  0.00    +0.000 A 
ATOM     10  C   UNL     1      44.333   7.172  11.891  0.00  0.00    +0.000 A 
BRANCH   9  11
ATOM     11  O   UNL     1      45.107   9.338  11.480  0.00  0.00    +0.000 OA
BRANCH  11  12
ATOM     12  C   UNL     1      43.815   9.612  10.892  0.00  0.00    +0.000 C 
ATOM     13  C   UNL     1      43.773  10.452   9.608  0.00  0.00    +0.000 C 
ATOM     14  O   UNL     1      42.960  11.471  10.232  0.00  0.00    +0.000 OA
ATOM     15  C   UNL     1      43.062  10.802  11.508  0.00  0.00    +0.000 C 
ENDBRANCH  11  12
ENDBRANCH   9  11
ENDBRANCH   1   4
BRANCH   1  16
ATOM     16  C   UNL     1      43.718   3.485  11.726  0.00  0.00    +0.000 C 
BRANCH  16  17
ATOM     17  O   UNL     1      43.380   3.381  10.336  0.00  0.00    +0.000 OA
BRANCH  17  21
ATOM     18  C   UNL     1      46.509   2.524   7.714  0.00  0.00    +0.000 A 
ATOM     19  C   UNL     1      46.111   3.857   7.864  0.00  0.00    +0.000 A 
ATOM     20  C   UNL     1      45.064   4.188   8.734  0.00  0.00    +0.000 A 
ATOM     21  C   UNL     1      44.410   3.189   9.459  0.00  0.00    +0.000 A 
ATOM     22  C   UNL     1      44.804   1.857   9.299  0.00  0.00    +0.000 A 
ATOM     23  C   UNL     1      45.844   1.523   8.428  0.00  0.00    +0.000 A 
BRANCH  18  25
ATOM     24  N   UNL     1      48.267   3.147   6.149  0.00  0.00    +0.000 N 
ATOM     25  C   UNL     1      47.607   2.138   6.793  0.00  0.00    +0.000 C 
ATOM     26  O   UNL     1      47.936   0.969   6.637  0.00  0.00    +0.000 OA
ATOM     27  H   UNL     1      49.081   2.874   5.611  0.00  0.00    +0.000 HD
ATOM     28  H   UNL     1      48.206   4.109   6.448  0.00  0.00    +0.000 HD
ENDBRANCH  18  25
ENDBRANCH  17  21
ENDBRANCH  16  17
ENDBRANCH   1  16
TORSDOF 7
ENDMDL
MODEL 5
REMARK VINA RESULT:    -7.672      2.632      3.417
REMARK INTER + INTRA:         -11.974
REMARK INTER:                 -11.118
REMARK INTRA:                  -0.856
REMARK UNBOUND:                -1.162
REMARK  Name = 
REMARK  7 active torsions:
REMARK  status: ('A' for Active; 'I' for Inactive)
REMARK    1  A    between atoms: C_2  and  C_4
REMARK    2  A    between atoms: C_7  and  O_8
REMARK    3  A    between atoms: O_8  and  C_9
REMARK    4  A    between atoms: C_9  and  C_10
REMARK    5  A    between atoms: C_10  and  C_13
REMARK    6  A    between atoms: C_18  and  O_19
REMARK    7  A    between atoms: O_19  and  C_20
REMARK                            x       y       z     vdW  Elec       q    Type
REMARK                         _______ _______ _______ _____ _____    ______ ____
ROOT
ATOM      1  C   UNL     1      44.291   4.362  12.468  0.00  0.00    +0.000 C 
ATOM      2  F   UNL     1      43.608   4.370  13.650  0.00  0.00    +0.000 F 
ATOM      3  F   UNL     1      45.172   3.323  12.560  0.00  0.00    +0.000 F 
ENDROOT
BRANCH   1   4
ATOM      4  C   UNL     1      45.005   5.679  12.231  0.00  0.00    +0.000 A 
ATOM      5  C   UNL     1      44.280   6.857  12.012  0.00  0.00    +0.000 A 
ATOM      6  C   UNL     1      44.954   8.059  11.813  0.00  0.00    +0.000 A 
ATOM      7  F   UNL     1      44.247   9.179  11.621  0.00  0.00    +0.000 F 
ATOM      8  C   UNL     1      46.346   8.123  11.816  0.00  0.00    +0.000 A 
ATOM      9  C   UNL     1      47.076   6.956  12.016  0.00  0.00    +0.000 A 
ATOM     10  C   UNL     1      46.409   5.745  12.229  0.00  0.00    +0.000 A 
BRANCH   9  11
ATOM     11  O   UNL     1      48.444   6.880  12.064  0.00  0.00    +0.000 OA
BRANCH  11  12
ATOM     12  C   UNL     1      49.223   8.091  11.933  0.00  0.00    +0.000 C 
ATOM     13  C   UNL     1      50.718   7.954  11.612  0.00  0.00    +0.000 C 
ATOM     14  O   UNL     1      51.102   8.634  12.828  0.00  0.00    +0.000 OA
ATOM     15  C   UNL     1      49.724   8.688  13.259  0.00  0.00    +0.000 C 
ENDBRANCH  11  12
ENDBRANCH   9  11
ENDBRANCH   1   4
BRANCH   1  16
ATOM     16  C   UNL     1      43.300   4.070  11.327  0.00  0.00    +0.000 C 
BRANCH  16  17
ATOM     17  O   UNL     1      43.784   4.618  10.093  0.00  0.00    +0.000 OA
BRANCH  17  21
ATOM     18  C   UNL     1      46.450   2.461   7.719  0.00  0.00    +0.000 A 
ATOM     19  C   UNL     1      45.612   1.755   8.590  0.00  0.00    +0.000 A 
ATOM     20  C   UNL     1      44.702   2.442   9.404  0.00  0.00    +0.000 A 
ATOM     21  C   UNL     1      44.625   3.835   9.353  0.00  0.00    +0.000 A 
ATOM     22  C   UNL     1      45.471   4.537   8.489  0.00  0.00    +0.000 A 
ATOM     23  C   UNL     1      46.383   3.857   7.679  0.00  0.00    +0.000 A 
BRANCH  18  25
ATOM     24  N   UNL     1      48.541   2.471   6.470  0.00  0.00    +0.000 N 
ATOM     25  C   UNL     1      47.433   1.766   6.850  0.00  0.00    +0.000 C 
ATOM     26  O   UNL     1      47.282   0.598   6.512  0.00  0.00    +0.000 OA
ATOM     27  H   UNL     1      49.251   1.948   5.971  0.00  0.00    +0.000 HD
ATOM     28  H   UNL     1      48.826   3.320   6.935  0.00  0.00    +0.000 HD
ENDBRANCH  18  25
ENDBRANCH  17  21
ENDBRANCH  16  17
ENDBRANCH   1  16
TORSDOF 7
ENDMDL
MODEL 6
REMARK VINA RESULT:    -7.395      2.726      4.135
REMARK INTER + INTRA:         -11.582
REMARK INTER:                 -10.628
REMARK INTRA:                  -0.955
REMARK UNBOUND:                -1.162
REMARK  Name = 
REMARK  7 active torsions:
REMARK  status: ('A' for Active; 'I' for Inactive)
REMARK    1  A    between atoms: C_2  and  C_4
REMARK    2  A    between atoms: C_7  and  O_8
REMARK    3  A    between atoms: O_8  and  C_9
REMARK    4  A    between atoms: C_9  and  C_10
REMARK    5  A    between atoms: C_10  and  C_13
REMARK    6  A    between atoms: C_18  and  O_19
REMARK    7  A    between atoms: O_19  and  C_20
REMARK                            x       y       z     vdW  Elec       q    Type
REMARK                         _______ _______ _______ _____ _____    ______ ____
ROOT
ATOM      1  C   UNL     1      45.024   5.562  12.378  0.00  0.00    +0.000 C 
ATOM      2  F   UNL     1      44.047   6.179  13.106  0.00  0.00    +0.000 F 
ATOM      3  F   UNL     1      44.860   4.226  12.603  0.00  0.00    +0.000 F 
ENDROOT
BRANCH   1   4
ATOM      4  C   UNL     1      46.405   6.033  12.793  0.00  0.00    +0.000 A 
ATOM      5  C   UNL     1      46.900   5.761  14.075  0.00  0.00    +0.000 A 
ATOM      6  C   UNL     1      48.176   6.187  14.430  0.00  0.00    +0.000 A 
ATOM      7  F   UNL     1      48.641   5.906  15.654  0.00  0.00    +0.000 F 
ATOM      8  C   UNL     1      48.982   6.895  13.541  0.00  0.00    +0.000 A 
ATOM      9  C   UNL     1      48.494   7.185  12.271  0.00  0.00    +0.000 A 
ATOM     10  C   UNL     1      47.217   6.750  11.899  0.00  0.00    +0.000 A 
BRANCH   9  11
ATOM     11  O   UNL     1      49.187   7.851  11.293  0.00  0.00    +0.000 OA
BRANCH  11  12
ATOM     12  C   UNL     1      50.510   8.358  11.586  0.00  0.00    +0.000 C 
ATOM     13  C   UNL     1      50.857   9.777  11.116  0.00  0.00    +0.000 C 
ATOM     14  O   UNL     1      51.949   9.302  10.297  0.00  0.00    +0.000 OA
ATOM     15  C   UNL     1      51.603   7.931  10.593  0.00  0.00    +0.000 C 
ENDBRANCH  11  12
ENDBRANCH   9  11
ENDBRANCH   1   4
BRANCH   1  16
ATOM     16  C   UNL     1      44.781   5.846  10.885  0.00  0.00    +0.000 C 
BRANCH  16  17
ATOM     17  O   UNL     1      44.091   4.747  10.274  0.00  0.00    +0.000 OA
BRANCH  17  21
ATOM     18  C   UNL     1      46.447   2.442   7.718  0.00  0.00    +0.000 A 
ATOM     19  C   UNL     1      45.613   1.785   8.631  0.00  0.00    +0.000 A 
ATOM     20  C   UNL     1      44.807   2.522   9.506  0.00  0.00    +0.000 A 
ATOM     21  C   UNL     1      44.827   3.918   9.476  0.00  0.00    +0.000 A 
ATOM     22  C   UNL     1      45.668   4.570   8.569  0.00  0.00    +0.000 A 
ATOM     23  C   UNL     1      46.479   3.839   7.698  0.00  0.00    +0.000 A 
BRANCH  18  25
ATOM     24  N   UNL     1      48.372   2.370   6.228  0.00  0.00    +0.000 N 
ATOM     25  C   UNL     1      47.322   1.692   6.783  0.00  0.00    +0.000 C 
ATOM     26  O   UNL     1      47.140   0.505   6.541  0.00  0.00    +0.000 OA
ATOM     27  H   UNL     1      49.021   1.816   5.681  0.00  0.00    +0.000 HD
ATOM     28  H   UNL     1      48.705   3.247   6.601  0.00  0.00    +0.000 HD
ENDBRANCH  18  25
ENDBRANCH  17  21
ENDBRANCH  16  17
ENDBRANCH   1  16
TORSDOF 7
ENDMDL
MODEL 7
REMARK VINA RESULT:    -7.227      3.128      8.094
REMARK INTER + INTRA:         -11.347
REMARK INTER:                 -10.637
REMARK INTRA:                  -0.709
REMARK UNBOUND:                -1.162
REMARK  Name = 
REMARK  7 active torsions:
REMARK  status: ('A' for Active; 'I' for Inactive)
REMARK    1  A    between atoms: C_2  and  C_4
REMARK    2  A    between atoms: C_7  and  O_8
REMARK    3  A    between atoms: O_8  and  C_9
REMARK    4  A    between atoms: C_9  and  C_10
REMARK    5  A    between atoms: C_10  and  C_13
REMARK    6  A    between atoms: C_18  and  O_19
REMARK    7  A    between atoms: O_19  and  C_20
REMARK                            x       y       z     vdW  Elec       q    Type
REMARK                         _______ _______ _______ _____ _____    ______ ____
ROOT
ATOM      1  C   UNL     1      45.775   6.244  11.233  0.00  0.00    +0.000 C 
ATOM      2  F   UNL     1      44.898   7.275  11.048  0.00  0.00    +0.000 F 
ATOM      3  F   UNL     1      46.973   6.693  10.758  0.00  0.00    +0.000 F 
ENDROOT
BRANCH   1   4
ATOM      4  C   UNL     1      45.320   4.992  10.507  0.00  0.00    +0.000 A 
ATOM      5  C   UNL     1      44.529   4.036  11.155  0.00  0.00    +0.000 A 
ATOM      6  C   UNL     1      44.108   2.902  10.466  0.00  0.00    +0.000 A 
ATOM      7  F   UNL     1      43.339   2.004  11.094  0.00  0.00    +0.000 F 
ATOM      8  C   UNL     1      44.463   2.684   9.136  0.00  0.00    +0.000 A 
ATOM      9  C   UNL     1      45.262   3.619   8.488  0.00  0.00    +0.000 A 
ATOM     10  C   UNL     1      45.680   4.769   9.167  0.00  0.00    +0.000 A 
BRANCH   9  11
ATOM     11  O   UNL     1      45.665   3.541   7.179  0.00  0.00    +0.000 OA
BRANCH  11  12
ATOM     12  C   UNL     1      47.042   3.212   6.884  0.00  0.00    +0.000 C 
ATOM     13  C   UNL     1      47.371   2.696   5.476  0.00  0.00    +0.000 C 
ATOM     14  O   UNL     1      47.883   1.446   5.990  0.00  0.00    +0.000 OA
ATOM     15  C   UNL     1      47.484   1.809   7.330  0.00  0.00    +0.000 C 
ENDBRANCH  11  12
ENDBRANCH   9  11
ENDBRANCH   1   4
BRANCH   1  16
ATOM     16  C   UNL     1      45.909   5.976  12.742  0.00  0.00    +0.000 C 
BRANCH  16  17
ATOM     17  O   UNL     1      47.286   5.776  13.093  0.00  0.00    +0.000 OA
BRANCH  17  21
ATOM     18  C   UNL     1      48.233   4.698  17.010  0.00  0.00    +0.000 A 
ATOM     19  C   UNL     1      47.431   3.834  16.256  0.00  0.00    +0.000 A 
ATOM     20  C   UNL     1      47.089   4.158  14.937  0.00  0.00    +0.000 A 
ATOM     21  C   UNL     1      47.547   5.347  14.364  0.00  0.00    +0.000 A 
ATOM     22  C   UNL     1      48.340   6.212  15.124  0.00  0.00    +0.000 A 
ATOM     23  C   UNL     1      48.678   5.895  16.441  0.00  0.00    +0.000 A 
BRANCH  18  25
ATOM     24  N   UNL     1      48.261   3.157  18.895  0.00  0.00    +0.000 N 
ATOM     25  C   UNL     1      48.605   4.390  18.414  0.00  0.00    +0.000 C 
ATOM     26  O   UNL     1      49.224   5.188  19.106  0.00  0.00    +0.000 OA
ATOM     27  H   UNL     1      48.617   2.924  19.815  0.00  0.00    +0.000 HD
ATOM     28  H   UNL     1      47.998   2.395  18.289  0.00  0.00    +0.000 HD
ENDBRANCH  18  25
ENDBRANCH  17  21
ENDBRANCH  16  17
ENDBRANCH   1  16
TORSDOF 7
ENDMDL
MODEL 8
REMARK VINA RESULT:    -7.128      3.075      7.730
REMARK INTER + INTRA:         -11.206
REMARK INTER:                 -10.352
REMARK INTRA:                  -0.854
REMARK UNBOUND:                -1.162
REMARK  Name = 
REMARK  7 active torsions:
REMARK  status: ('A' for Active; 'I' for Inactive)
REMARK    1  A    between atoms: C_2  and  C_4
REMARK    2  A    between atoms: C_7  and  O_8
REMARK    3  A    between atoms: O_8  and  C_9
REMARK    4  A    between atoms: C_9  and  C_10
REMARK    5  A    between atoms: C_10  and  C_13
REMARK    6  A    between atoms: C_18  and  O_19
REMARK    7  A    between atoms: O_19  and  C_20
REMARK                            x       y       z     vdW  Elec       q    Type
REMARK                         _______ _______ _______ _____ _____    ______ ____
ROOT
ATOM      1  C   UNL     1      45.145   6.731  11.631  0.00  0.00    +0.000 C 
ATOM      2  F   UNL     1      44.534   6.641  12.849  0.00  0.00    +0.000 F 
ATOM      3  F   UNL     1      44.543   7.778  10.995  0.00  0.00    +0.000 F 
ENDROOT
BRANCH   1   4
ATOM      4  C   UNL     1      45.003   5.442  10.844  0.00  0.00    +0.000 A 
ATOM      5  C   UNL     1      44.238   4.379  11.341  0.00  0.00    +0.000 A 
ATOM      6  C   UNL     1      44.106   3.212  10.595  0.00  0.00    +0.000 A 
ATOM      7  F   UNL     1      43.360   2.210  11.077  0.00  0.00    +0.000 F 
ATOM      8  C   UNL     1      44.729   3.064   9.357  0.00  0.00    +0.000 A 
ATOM      9  C   UNL     1      45.503   4.107   8.861  0.00  0.00    +0.000 A 
ATOM     10  C   UNL     1      45.633   5.290   9.597  0.00  0.00    +0.000 A 
BRANCH   9  11
ATOM     11  O   UNL     1      46.150   4.103   7.652  0.00  0.00    +0.000 OA
BRANCH  11  12
ATOM     12  C   UNL     1      46.227   2.872   6.896  0.00  0.00    +0.000 C 
ATOM     13  C   UNL     1      47.235   1.810   7.354  0.00  0.00    +0.000 C 
ATOM     14  O   UNL     1      47.936   1.846   6.091  0.00  0.00    +0.000 OA
ATOM     15  C   UNL     1      47.106   2.938   5.637  0.00  0.00    +0.000 C 
ENDBRANCH  11  12
ENDBRANCH   9  11
ENDBRANCH   1   4
BRANCH   1  16
ATOM     16  C   UNL     1      46.630   7.071  11.848  0.00  0.00    +0.000 C 
BRANCH  16  17
ATOM     17  O   UNL     1      47.371   5.888  12.178  0.00  0.00    +0.000 OA
BRANCH  17  21
ATOM     18  C   UNL     1      47.964   5.213  16.252  0.00  0.00    +0.000 A 
ATOM     19  C   UNL     1      47.157   4.319  15.538  0.00  0.00    +0.000 A 
ATOM     20  C   UNL     1      46.932   4.510  14.169  0.00  0.00    +0.000 A 
ATOM     21  C   UNL     1      47.512   5.593  13.505  0.00  0.00    +0.000 A 
ATOM     22  C   UNL     1      48.309   6.489  14.224  0.00  0.00    +0.000 A 
ATOM     23  C   UNL     1      48.531   6.306  15.590  0.00  0.00    +0.000 A 
BRANCH  18  25
ATOM     24  N   UNL     1      47.245   4.418  18.439  0.00  0.00    +0.000 N 
ATOM     25  C   UNL     1      48.214   5.047  17.705  0.00  0.00    +0.000 C 
ATOM     26  O   UNL     1      49.256   5.422  18.227  0.00  0.00    +0.000 OA
ATOM     27  H   UNL     1      47.480   4.216  19.404  0.00  0.00    +0.000 HD
ATOM     28  H   UNL     1      46.515   3.870  18.010  0.00  0.00    +0.000 HD
ENDBRANCH  18  25
ENDBRANCH  17  21
ENDBRANCH  16  17
ENDBRANCH   1  16
TORSDOF 7
ENDMDL
MODEL 9
REMARK VINA RESULT:    -6.519      3.718      7.462
REMARK INTER + INTRA:         -10.348
REMARK INTER:                  -9.685
REMARK INTRA:                  -0.663
REMARK UNBOUND:                -1.162
REMARK  Name = 
REMARK  7 active torsions:
REMARK  status: ('A' for Active; 'I' for Inactive)
REMARK    1  A    between atoms: C_2  and  C_4
REMARK    2  A    between atoms: C_7  and  O_8
REMARK    3  A    between atoms: O_8  and  C_9
REMARK    4  A    between atoms: C_9  and  C_10
REMARK    5  A    between atoms: C_10  and  C_13
REMARK    6  A    between atoms: C_18  and  O_19
REMARK    7  A    between atoms: O_19  and  C_20
REMARK                            x       y       z     vdW  Elec       q    Type
REMARK                         _______ _______ _______ _____ _____    ______ ____
ROOT
ATOM      1  C   UNL     1      45.267   6.509  11.605  0.00  0.00    +0.000 C 
ATOM      2  F   UNL     1      44.483   6.493  12.723  0.00  0.00    +0.000 F 
ATOM      3  F   UNL     1      44.895   7.626  10.913  0.00  0.00    +0.000 F 
ENDROOT
BRANCH   1   4
ATOM      4  C   UNL     1      45.077   5.251  10.778  0.00  0.00    +0.000 A 
ATOM      5  C   UNL     1      44.309   4.185  11.261  0.00  0.00    +0.000 A 
ATOM      6  C   UNL     1      44.134   3.046  10.480  0.00  0.00    +0.000 A 
ATOM      7  F   UNL     1      43.385   2.041  10.949  0.00  0.00    +0.000 F 
ATOM      8  C   UNL     1      44.716   2.931   9.218  0.00  0.00    +0.000 A 
ATOM      9  C   UNL     1      45.494   3.978   8.736  0.00  0.00    +0.000 A 
ATOM     10  C   UNL     1      45.667   5.132   9.508  0.00  0.00    +0.000 A 
BRANCH   9  11
ATOM     11  O   UNL     1      46.103   4.006   7.507  0.00  0.00    +0.000 OA
BRANCH  11  12
ATOM     12  C   UNL     1      46.284   2.769   6.781  0.00  0.00    +0.000 C 
ATOM     13  C   UNL     1      47.401   1.822   7.239  0.00  0.00    +0.000 C 
ATOM     14  O   UNL     1      48.067   1.892   5.958  0.00  0.00    +0.000 OA
ATOM     15  C   UNL     1      47.124   2.886   5.499  0.00  0.00    +0.000 C 
ENDBRANCH  11  12
ENDBRANCH   9  11
ENDBRANCH   1   4
BRANCH   1  16
ATOM     16  C   UNL     1      46.737   6.658  12.034  0.00  0.00    +0.000 C 
BRANCH  16  17
ATOM     17  O   UNL     1      47.048   8.037  12.277  0.00  0.00    +0.000 OA
BRANCH  17  21
ATOM     18  C   UNL     1      50.919   9.089  11.132  0.00  0.00    +0.000 A 
ATOM     19  C   UNL     1      49.976  10.108  11.308  0.00  0.00    +0.000 A 
ATOM     20  C   UNL     1      48.665   9.798  11.692  0.00  0.00    +0.000 A 
ATOM     21  C   UNL     1      48.290   8.469  11.902  0.00  0.00    +0.000 A 
ATOM     22  C   UNL     1      49.232   7.453  11.715  0.00  0.00    +0.000 A 
ATOM     23  C   UNL     1      50.539   7.758  11.327  0.00  0.00    +0.000 A 
BRANCH  18  25
ATOM     24  N   UNL     1      53.308   9.090  11.608  0.00  0.00    +0.000 N 
ATOM     25  C   UNL     1      52.314   9.382  10.715  0.00  0.00    +0.000 C 
ATOM     26  O   UNL     1      52.574   9.834   9.607  0.00  0.00    +0.000 OA
ATOM     27  H   UNL     1      54.256   9.193  11.266  0.00  0.00    +0.000 HD
ATOM     28  H   UNL     1      53.160   8.484  12.401  0.00  0.00    +0.000 HD
ENDBRANCH  18  25
ENDBRANCH  17  21
ENDBRANCH  16  17
ENDBRANCH   1  16
TORSDOF 7
ENDMDL
