MODEL 1
REMARK VINA RESULT:    -9.308      0.000      0.000
REMARK INTER + INTRA:         -13.314
REMARK INTER:                 -12.301
REMARK INTRA:                  -1.012
REMARK UNBOUND:                -1.012
REMARK  Name = 
REMARK  6 active torsions:
REMARK  status: ('A' for Active; 'I' for Inactive)
REMARK    1  A    between atoms: C_2  and  C_19
REMARK    2  A    between atoms: N_3  and  C_4
REMARK    3  A    between atoms: C_4  and  C_5
REMARK    4  A    between atoms: N_9  and  C_10
REMARK    5  A    between atoms: C_10  and  C_11
REMARK    6  A    between atoms: C_14  and  O_15
REMARK                            x       y       z     vdW  Elec       q    Type
REMARK                         _______ _______ _______ _____ _____    ______ ____
ROOT
ATOM      1  C   UNL     1      46.389   4.843  12.411  0.00  0.00    +0.000 C 
ENDROOT
BRANCH   1   2
ATOM      2  C   UNL     1      44.997   5.412  12.084  0.00  0.00    +0.000 C 
ATOM      3  C   UNL     1      43.899   4.933  13.045  0.00  0.00    +0.000 C 
ATOM      4  C   UNL     1      43.637   3.439  12.889  0.00  0.00    +0.000 C 
ATOM      5  C   UNL     1      43.393   3.053  11.426  0.00  0.00    +0.000 C 
ATOM      6  N   UNL     1      44.420   3.576  10.513  0.00  0.00    +0.000 NA
ATOM      7  C   UNL     1      44.596   5.028  10.650  0.00  0.00    +0.000 C 
BRANCH   6   8
ATOM      8  C   UNL     1      44.228   3.144   9.115  0.00  0.00    +0.000 C 
BRANCH   8   9
ATOM      9  C   UNL     1      45.488   2.805   8.345  0.00  0.00    +0.000 A 
ATOM     10  C   UNL     1      46.135   3.772   7.558  0.00  0.00    +0.000 A 
ATOM     11  C   UNL     1      47.200   3.417   6.728  0.00  0.00    +0.000 A 
ATOM     12  C   UNL     1      47.633   2.096   6.702  0.00  0.00    +0.000 A 
ATOM     13  C   UNL     1      47.065   1.141   7.535  0.00  0.00    +0.000 A 
ATOM     14  C   UNL     1      45.994   1.495   8.355  0.00  0.00    +0.000 A 
BRANCH  12  15
ATOM     15  O   UNL     1      48.607   1.689   5.839  0.00  0.00    +0.000 OA
ATOM     16  H   UNL     1      49.444   2.093   6.122  0.00  0.00    +0.000 HD
ENDBRANCH  12  15
ENDBRANCH   8   9
ENDBRANCH   6   8
ENDBRANCH   1   2
BRANCH   1  19
ATOM     17  O   UNL     1      47.417   3.088  14.394  0.00  0.00    +0.000 OA
ATOM     18  C   UNL     1      47.295   4.283  14.657  0.00  0.00    +0.000 C 
ATOM     19  N   UNL     1      46.835   5.188  13.741  0.00  0.00    +0.000 N 
ATOM     20  H   UNL     1      46.711   6.159  14.009  0.00  0.00    +0.000 HD
BRANCH  18  21
ATOM     21  C   UNL     1      47.660   4.825  15.974  0.00  0.00    +0.000 A 
ATOM     22  C   UNL     1      47.125   4.257  17.122  0.00  0.00    +0.000 A 
ATOM     23  S   UNL     1      47.640   5.011  18.562  0.00  0.00    +0.000 S 
ATOM     24  C   UNL     1      48.572   6.144  17.701  0.00  0.00    +0.000 A 
ATOM     25  N   UNL     1      49.261   7.119  18.351  0.00  0.00    +0.000 NA
ATOM     26  C   UNL     1      49.914   7.921  17.579  0.00  0.00    +0.000 A 
ATOM     27  N   UNL     1      49.948   7.833  16.213  0.00  0.00    +0.000 N 
ATOM     28  C   UNL     1      49.301   6.841  15.516  0.00  0.00    +0.000 A 
ATOM     29  O   UNL     1      49.429   6.750  14.297  0.00  0.00    +0.000 OA
ATOM     30  C   UNL     1      48.520   5.931  16.334  0.00  0.00    +0.000 A 
ATOM     31  H   UNL     1      50.503   8.472  15.665  0.00  0.00    +0.000 HD
ENDBRANCH  18  21
ENDBRANCH   1  19
TORSDOF 6
ENDMDL
MODEL 2
REMARK VINA RESULT:    -9.304      1.347      2.259
REMARK INTER + INTRA:         -13.308
REMARK INTER:                 -12.363
REMARK INTRA:                  -0.944
REMARK UNBOUND:                -1.012
REMARK  Name = 
REMARK  6 active torsions:
REMARK  status: ('A' for Active; 'I' for Inactive)
REMARK    1  A    between atoms: C_2  and  C_19
REMARK    2  A    between atoms: N_3  and  C_4
REMARK    3  A    between atoms: C_4  and  C_5
REMARK    4  A    between atoms: N_9  and  C_10
REMARK    5  A    between atoms: C_10  and  C_11
REMARK    6  A    between atoms: C_14  and  O_15
REMARK                            x       y       z     vdW  Elec       q    Type
REMARK                         _______ _______ _______ _____ _____    ______ ____
ROOT
ATOM      1  C   UNL     1      46.249   5.918  11.770  0.00  0.00    +0.000 C 
ENDROOT
BRANCH   1   2
ATOM      2  C   UNL     1      44.719   5.999  11.629  0.00  0.00    +0.000 C 
ATOM      3  C   UNL     1      43.963   5.440  12.845  0.00  0.00    +0.000 C 
ATOM      4  C   UNL     1      44.157   3.933  12.974  0.00  0.00    +0.000 C 
ATOM      5  C   UNL     1      43.847   3.204  11.661  0.00  0.00    +0.000 C 
ATOM      6  N   UNL     1      44.528   3.795  10.500  0.00  0.00    +0.000 NA
ATOM      7  C   UNL     1      44.265   5.234  10.375  0.00  0.00    +0.000 C 
BRANCH   6   8
ATOM      8  C   UNL     1      44.291   3.051   9.247  0.00  0.00    +0.000 C 
BRANCH   8   9
ATOM      9  C   UNL     1      45.521   2.728   8.422  0.00  0.00    +0.000 A 
ATOM     10  C   UNL     1      46.166   3.722   7.670  0.00  0.00    +0.000 A 
ATOM     11  C   UNL     1      47.198   3.390   6.790  0.00  0.00    +0.000 A 
ATOM     12  C   UNL     1      47.600   2.064   6.680  0.00  0.00    +0.000 A 
ATOM     13  C   UNL     1      47.035   1.078   7.477  0.00  0.00    +0.000 A 
ATOM     14  C   UNL     1      45.996   1.409   8.347  0.00  0.00    +0.000 A 
BRANCH  12  15
ATOM     15  O   UNL     1      48.540   1.684   5.768  0.00  0.00    +0.000 OA
ATOM     16  H   UNL     1      48.258   2.010   4.897  0.00  0.00    +0.000 HD
ENDBRANCH  12  15
ENDBRANCH   8   9
ENDBRANCH   6   8
ENDBRANCH   1   2
BRANCH   1  19
ATOM     17  O   UNL     1      48.891   6.351  12.720  0.00  0.00    +0.000 OA
ATOM     18  C   UNL     1      47.987   6.162  13.530  0.00  0.00    +0.000 C 
ATOM     19  N   UNL     1      46.688   5.976  13.145  0.00  0.00    +0.000 N 
ATOM     20  H   UNL     1      45.977   5.784  13.842  0.00  0.00    +0.000 HD
BRANCH  18  21
ATOM     21  C   UNL     1      48.239   6.145  14.978  0.00  0.00    +0.000 A 
ATOM     22  C   UNL     1      48.778   7.266  15.594  0.00  0.00    +0.000 A 
ATOM     23  S   UNL     1      49.018   7.076  17.271  0.00  0.00    +0.000 S 
ATOM     24  C   UNL     1      48.440   5.477  17.230  0.00  0.00    +0.000 A 
ATOM     25  N   UNL     1      48.409   4.716  18.356  0.00  0.00    +0.000 NA
ATOM     26  C   UNL     1      47.962   3.518  18.183  0.00  0.00    +0.000 A 
ATOM     27  N   UNL     1      47.534   3.012  16.984  0.00  0.00    +0.000 N 
ATOM     28  C   UNL     1      47.508   3.755  15.829  0.00  0.00    +0.000 A 
ATOM     29  O   UNL     1      47.036   3.287  14.796  0.00  0.00    +0.000 OA
ATOM     30  C   UNL     1      48.035   5.102  15.960  0.00  0.00    +0.000 A 
ATOM     31  H   UNL     1      47.165   2.075  16.919  0.00  0.00    +0.000 HD
ENDBRANCH  18  21
ENDBRANCH   1  19
TORSDOF 6
ENDMDL
MODEL 3
REMARK VINA RESULT:    -8.822      1.632      2.566
REMARK INTER + INTRA:         -12.671
REMARK INTER:                 -12.476
REMARK INTRA:                  -0.195
REMARK UNBOUND:                -1.012
REMARK  Name = 
REMARK  6 active torsions:
REMARK  status: ('A' for Active; 'I' for Inactive)
REMARK    1  A    between atoms: C_2  and  C_19
REMARK    2  A    between atoms: N_3  and  C_4
REMARK    3  A    between atoms: C_4  and  C_5
REMARK    4  A    between atoms: N_9  and  C_10
REMARK    5  A    between atoms: C_10  and  C_11
REMARK    6  A    between atoms: C_14  and  O_15
REMARK                            x       y       z     vdW  Elec       q    Type
REMARK                         _______ _______ _______ _____ _____    ______ ____
ROOT
ATOM      1  C   UNL     1      45.412   4.657  13.225  0.00  0.00    +0.000 C 
ENDROOT
BRANCH   1   2
ATOM      2  C   UNL     1      45.729   5.334  11.880  0.00  0.00    +0.000 C 
ATOM      3  C   UNL     1      44.783   6.497  11.542  0.00  0.00    +0.000 C 
ATOM      4  C   UNL     1      43.364   6.000  11.282  0.00  0.00    +0.000 C 
ATOM      5  C   UNL     1      43.339   4.860  10.257  0.00  0.00    +0.000 C 
ATOM      6  N   UNL     1      44.298   3.789  10.563  0.00  0.00    +0.000 NA
ATOM      7  C   UNL     1      45.663   4.301  10.743  0.00  0.00    +0.000 C 
BRANCH   6   8
ATOM      8  C   UNL     1      44.224   2.657   9.618  0.00  0.00    +0.000 C 
BRANCH   8   9
ATOM      9  C   UNL     1      45.325   2.586   8.578  0.00  0.00    +0.000 A 
ATOM     10  C   UNL     1      46.029   1.392   8.354  0.00  0.00    +0.000 A 
ATOM     11  C   UNL     1      47.143   1.372   7.512  0.00  0.00    +0.000 A 
ATOM     12  C   UNL     1      47.539   2.543   6.877  0.00  0.00    +0.000 A 
ATOM     13  C   UNL     1      46.807   3.715   7.016  0.00  0.00    +0.000 A 
ATOM     14  C   UNL     1      45.702   3.736   7.866  0.00  0.00    +0.000 A 
BRANCH  12  15
ATOM     15  O   UNL     1      48.673   2.588   6.121  0.00  0.00    +0.000 OA
ATOM     16  H   UNL     1      49.414   2.814   6.708  0.00  0.00    +0.000 HD
ENDBRANCH  12  15
ENDBRANCH   8   9
ENDBRANCH   6   8
ENDBRANCH   1   2
BRANCH   1  19
ATOM     17  O   UNL     1      47.471   3.203  14.535  0.00  0.00    +0.000 OA
ATOM     18  C   UNL     1      47.222   4.349  14.901  0.00  0.00    +0.000 C 
ATOM     19  N   UNL     1      46.265   5.117  14.297  0.00  0.00    +0.000 N 
ATOM     20  H   UNL     1      46.062   6.045  14.654  0.00  0.00    +0.000 HD
BRANCH  18  21
ATOM     21  C   UNL     1      47.956   4.984  16.005  0.00  0.00    +0.000 A 
ATOM     22  C   UNL     1      48.624   6.181  15.787  0.00  0.00    +0.000 A 
ATOM     23  S   UNL     1      49.433   6.774  17.166  0.00  0.00    +0.000 S 
ATOM     24  C   UNL     1      48.947   5.435  18.096  0.00  0.00    +0.000 A 
ATOM     25  N   UNL     1      49.338   5.306  19.391  0.00  0.00    +0.000 NA
ATOM     26  C   UNL     1      48.912   4.238  19.978  0.00  0.00    +0.000 A 
ATOM     27  N   UNL     1      48.122   3.288  19.387  0.00  0.00    +0.000 N 
ATOM     28  C   UNL     1      47.669   3.395  18.095  0.00  0.00    +0.000 A 
ATOM     29  O   UNL     1      46.892   2.563  17.634  0.00  0.00    +0.000 OA
ATOM     30  C   UNL     1      48.148   4.563  17.376  0.00  0.00    +0.000 A 
ATOM     31  H   UNL     1      47.795   2.488  19.908  0.00  0.00    +0.000 HD
ENDBRANCH  18  21
ENDBRANCH   1  19
TORSDOF 6
ENDMDL
MODEL 4
REMARK VINA RESULT:    -8.511      1.651      2.156
REMARK INTER + INTRA:         -12.260
REMARK INTER:                 -11.417
REMARK INTRA:                  -0.843
REMARK UNBOUND:                -1.012
REMARK  Name = 
REMARK  6 active torsions:
REMARK  status: ('A' for Active; 'I' for Inactive)
REMARK    1  A    between atoms: C_2  and  C_19
REMARK    2  A    between atoms: N_3  and  C_4
REMARK    3  A    between atoms: C_4  and  C_5
REMARK    4  A    between atoms: N_9  and  C_10
REMARK    5  A    between atoms: C_10  and  C_11
REMARK    6  A    between atoms: C_14  and  O_15
REMARK                            x       y       z     vdW  Elec       q    Type
REMARK                         _______ _______ _______ _____ _____    ______ ____
ROOT
ATOM      1  C   UNL     1      46.223   6.284  11.490  0.00  0.00    +0.000 C 
ENDROOT
BRANCH   1   2
ATOM      2  C   UNL     1      44.700   6.090  11.592  0.00  0.00    +0.000 C 
ATOM      3  C   UNL     1      44.251   5.455  12.918  0.00  0.00    +0.000 C 
ATOM      4  C   UNL     1      44.730   4.011  13.032  0.00  0.00    +0.000 C 
ATOM      5  C   UNL     1      44.358   3.188  11.792  0.00  0.00    +0.000 C 
ATOM      6  N   UNL     1      44.737   3.843  10.532  0.00  0.00    +0.000 NA
ATOM      7  C   UNL     1      44.203   5.208  10.433  0.00  0.00    +0.000 C 
BRANCH   6   8
ATOM      8  C   UNL     1      44.447   3.021   9.341  0.00  0.00    +0.000 C 
BRANCH   8   9
ATOM      9  C   UNL     1      45.627   2.717   8.439  0.00  0.00    +0.000 A 
ATOM     10  C   UNL     1      46.229   3.729   7.674  0.00  0.00    +0.000 A 
ATOM     11  C   UNL     1      47.208   3.418   6.729  0.00  0.00    +0.000 A 
ATOM     12  C   UNL     1      47.602   2.095   6.566  0.00  0.00    +0.000 A 
ATOM     13  C   UNL     1      47.083   1.090   7.371  0.00  0.00    +0.000 A 
ATOM     14  C   UNL     1      46.097   1.400   8.306  0.00  0.00    +0.000 A 
BRANCH  12  15
ATOM     15  O   UNL     1      48.487   1.736   5.592  0.00  0.00    +0.000 OA
ATOM     16  H   UNL     1      49.262   1.340   6.025  0.00  0.00    +0.000 HD
ENDBRANCH  12  15
ENDBRANCH   8   9
ENDBRANCH   6   8
ENDBRANCH   1   2
BRANCH   1  19
ATOM     17  O   UNL     1      48.616   5.699  12.904  0.00  0.00    +0.000 OA
ATOM     18  C   UNL     1      47.920   6.643  13.270  0.00  0.00    +0.000 C 
ATOM     19  N   UNL     1      46.771   6.999  12.619  0.00  0.00    +0.000 N 
ATOM     20  H   UNL     1      46.204   7.761  12.976  0.00  0.00    +0.000 HD
BRANCH  18  21
ATOM     21  C   UNL     1      48.290   7.472  14.426  0.00  0.00    +0.000 A 
ATOM     22  C   UNL     1      48.401   8.847  14.278  0.00  0.00    +0.000 A 
ATOM     23  S   UNL     1      48.848   9.656  15.710  0.00  0.00    +0.000 S 
ATOM     24  C   UNL     1      48.941   8.193  16.574  0.00  0.00    +0.000 A 
ATOM     25  N   UNL     1      49.314   8.177  17.881  0.00  0.00    +0.000 NA
ATOM     26  C   UNL     1      49.358   7.001  18.412  0.00  0.00    +0.000 A 
ATOM     27  N   UNL     1      49.055   5.838  17.756  0.00  0.00    +0.000 N 
ATOM     28  C   UNL     1      48.635   5.809  16.449  0.00  0.00    +0.000 A 
ATOM     29  O   UNL     1      48.291   4.752  15.926  0.00  0.00    +0.000 OA
ATOM     30  C   UNL     1      48.601   7.104  15.791  0.00  0.00    +0.000 A 
ATOM     31  H   UNL     1      49.078   4.951  18.236  0.00  0.00    +0.000 HD
ENDBRANCH  18  21
ENDBRANCH   1  19
TORSDOF 6
ENDMDL
MODEL 5
REMARK VINA RESULT:    -8.194      3.561      4.057
REMARK INTER + INTRA:         -11.841
REMARK INTER:                 -11.329
REMARK INTRA:                  -0.512
REMARK UNBOUND:                -1.012
REMARK  Name = 
REMARK  6 active torsions:
REMARK  status: ('A' for Active; 'I' for Inactive)
REMARK    1  A    between atoms: C_2  and  C_19
REMARK    2  A    between atoms: N_3  and  C_4
REMARK    3  A    between atoms: C_4  and  C_5
REMARK    4  A    between atoms: N_9  and  C_10
REMARK    5  A    between atoms: C_10  and  C_11
REMARK    6  A    between atoms: C_14  and  O_15
REMARK                            x       y       z     vdW  Elec       q    Type
REMARK                         _______ _______ _______ _____ _____    ______ ____
ROOT
ATOM      1  C   UNL     1      45.942   5.314  11.837  0.00  0.00    +0.000 C 
ENDROOT
BRANCH   1   2
ATOM      2  C   UNL     1      44.498   5.524  11.347  0.00  0.00    +0.000 C 
ATOM      3  C   UNL     1      43.438   5.186  12.406  0.00  0.00    +0.000 C 
ATOM      4  C   UNL     1      43.418   3.692  12.715  0.00  0.00    +0.000 C 
ATOM      5  C   UNL     1      43.313   2.848  11.440  0.00  0.00    +0.000 C 
ATOM      6  N   UNL     1      44.293   3.231  10.413  0.00  0.00    +0.000 NA
ATOM      7  C   UNL     1      44.236   4.664  10.099  0.00  0.00    +0.000 C 
BRANCH   6   8
ATOM      8  C   UNL     1      44.242   2.372   9.213  0.00  0.00    +0.000 C 
BRANCH   8   9
ATOM      9  C   UNL     1      45.512   2.308   8.388  0.00  0.00    +0.000 A 
ATOM     10  C   UNL     1      46.018   3.454   7.754  0.00  0.00    +0.000 A 
ATOM     11  C   UNL     1      47.094   3.360   6.869  0.00  0.00    +0.000 A 
ATOM     12  C   UNL     1      47.678   2.120   6.635  0.00  0.00    +0.000 A 
ATOM     13  C   UNL     1      47.250   0.988   7.316  0.00  0.00    +0.000 A 
ATOM     14  C   UNL     1      46.168   1.082   8.191  0.00  0.00    +0.000 A 
BRANCH  12  15
ATOM     15  O   UNL     1      48.669   1.969   5.710  0.00  0.00    +0.000 OA
ATOM     16  H   UNL     1      49.515   2.171   6.144  0.00  0.00    +0.000 HD
ENDBRANCH  12  15
ENDBRANCH   8   9
ENDBRANCH   6   8
ENDBRANCH   1   2
BRANCH   1  19
ATOM     17  O   UNL     1      45.654   7.799  13.181  0.00  0.00    +0.000 OA
ATOM     18  C   UNL     1      46.546   7.670  12.347  0.00  0.00    +0.000 C 
ATOM     19  N   UNL     1      46.761   6.494  11.683  0.00  0.00    +0.000 N 
ATOM     20  H   UNL     1      47.483   6.439  10.973  0.00  0.00    +0.000 HD
BRANCH  18  21
ATOM     21  C   UNL     1      47.463   8.772  12.020  0.00  0.00    +0.000 A 
ATOM     22  C   UNL     1      46.950  10.029  11.733  0.00  0.00    +0.000 A 
ATOM     23  S   UNL     1      48.146  11.188  11.365  0.00  0.00    +0.000 S 
ATOM     24  C   UNL     1      49.391  10.043  11.545  0.00  0.00    +0.000 A 
ATOM     25  N   UNL     1      50.689  10.384  11.332  0.00  0.00    +0.000 NA
ATOM     26  C   UNL     1      51.531   9.418  11.488  0.00  0.00    +0.000 A 
ATOM     27  N   UNL     1      51.193   8.140  11.846  0.00  0.00    +0.000 N 
ATOM     28  C   UNL     1      49.900   7.759  12.111  0.00  0.00    +0.000 A 
ATOM     29  O   UNL     1      49.653   6.624  12.512  0.00  0.00    +0.000 OA
ATOM     30  C   UNL     1      48.906   8.800  11.916  0.00  0.00    +0.000 A 
ATOM     31  H   UNL     1      51.901   7.435  11.982  0.00  0.00    +0.000 HD
ENDBRANCH  18  21
ENDBRANCH   1  19
TORSDOF 6
ENDMDL
MODEL 6
REMARK VINA RESULT:    -8.121      2.649      3.232
REMARK INTER + INTRA:         -11.745
REMARK INTER:                 -10.764
REMARK INTRA:                  -0.981
REMARK UNBOUND:                -1.012
REMARK  Name = 
REMARK  6 active torsions:
REMARK  status: ('A' for Active; 'I' for Inactive)
REMARK    1  A    between atoms: C_2  and  C_19
REMARK    2  A    between atoms: N_3  and  C_4
REMARK    3  A    between atoms: C_4  and  C_5
REMARK    4  A    between atoms: N_9  and  C_10
REMARK    5  A    between atoms: C_10  and  C_11
REMARK    6  A    between atoms: C_14  and  O_15
REMARK                            x       y       z     vdW  Elec       q    Type
REMARK                         _______ _______ _______ _____ _____    ______ ____
ROOT
ATOM      1  C   UNL     1      46.303   6.524  11.243  0.00  0.00    +0.000 C 
ENDROOT
BRANCH   1   2
ATOM      2  C   UNL     1      44.973   6.031  11.840  0.00  0.00    +0.000 C 
ATOM      3  C   UNL     1      45.143   5.252  13.153  0.00  0.00    +0.000 C 
ATOM      4  C   UNL     1      45.860   3.925  12.922  0.00  0.00    +0.000 C 
ATOM      5  C   UNL     1      45.206   3.113  11.798  0.00  0.00    +0.000 C 
ATOM      6  N   UNL     1      44.991   3.895  10.572  0.00  0.00    +0.000 NA
ATOM      7  C   UNL     1      44.243   5.133  10.827  0.00  0.00    +0.000 C 
BRANCH   6   8
ATOM      8  C   UNL     1      44.430   3.097   9.464  0.00  0.00    +0.000 C 
BRANCH   8   9
ATOM      9  C   UNL     1      45.410   2.665   8.392  0.00  0.00    +0.000 A 
ATOM     10  C   UNL     1      45.921   1.357   8.366  0.00  0.00    +0.000 A 
ATOM     11  C   UNL     1      46.940   1.010   7.478  0.00  0.00    +0.000 A 
ATOM     12  C   UNL     1      47.433   1.967   6.597  0.00  0.00    +0.000 A 
ATOM     13  C   UNL     1      46.884   3.241   6.546  0.00  0.00    +0.000 A 
ATOM     14  C   UNL     1      45.874   3.590   7.443  0.00  0.00    +0.000 A 
BRANCH  12  15
ATOM     15  O   UNL     1      48.489   1.696   5.778  0.00  0.00    +0.000 OA
ATOM     16  H   UNL     1      49.291   2.046   6.200  0.00  0.00    +0.000 HD
ENDBRANCH  12  15
ENDBRANCH   8   9
ENDBRANCH   6   8
ENDBRANCH   1   2
BRANCH   1  19
ATOM     17  O   UNL     1      46.593   9.135  12.325  0.00  0.00    +0.000 OA
ATOM     18  C   UNL     1      47.344   8.241  12.709  0.00  0.00    +0.000 C 
ATOM     19  N   UNL     1      47.242   6.956  12.253  0.00  0.00    +0.000 N 
ATOM     20  H   UNL     1      47.906   6.255  12.565  0.00  0.00    +0.000 HD
BRANCH  18  21
ATOM     21  C   UNL     1      48.394   8.491  13.706  0.00  0.00    +0.000 A 
ATOM     22  C   UNL     1      48.044   8.912  14.981  0.00  0.00    +0.000 A 
ATOM     23  S   UNL     1      49.380   9.166  16.010  0.00  0.00    +0.000 S 
ATOM     24  C   UNL     1      50.477   8.753  14.778  0.00  0.00    +0.000 A 
ATOM     25  N   UNL     1      51.819   8.797  14.995  0.00  0.00    +0.000 NA
ATOM     26  C   UNL     1      52.539   8.474  13.973  0.00  0.00    +0.000 A 
ATOM     27  N   UNL     1      52.039   8.103  12.753  0.00  0.00    +0.000 N 
ATOM     28  C   UNL     1      50.692   8.004  12.500  0.00  0.00    +0.000 A 
ATOM     29  O   UNL     1      50.290   7.585  11.418  0.00  0.00    +0.000 OA
ATOM     30  C   UNL     1      49.835   8.392  13.607  0.00  0.00    +0.000 A 
ATOM     31  H   UNL     1      52.654   7.831  12.002  0.00  0.00    +0.000 HD
ENDBRANCH  18  21
ENDBRANCH   1  19
TORSDOF 6
ENDMDL
MODEL 7
REMARK VINA RESULT:    -7.984      2.377      3.182
REMARK INTER + INTRA:         -11.563
REMARK INTER:                 -11.165
REMARK INTRA:                  -0.398
REMARK UNBOUND:                -1.012
REMARK  Name = 
REMARK  6 active torsions:
REMARK  status: ('A' for Active; 'I' for Inactive)
REMARK    1  A    between atoms: C_2  and  C_19
REMARK    2  A    between atoms: N_3  and  C_4
REMARK    3  A    between atoms: C_4  and  C_5
REMARK    4  A    between atoms: N_9  and  C_10
REMARK    5  A    between atoms: C_10  and  C_11
REMARK    6  A    between atoms: C_14  and  O_15
REMARK                            x       y       z     vdW  Elec       q    Type
REMARK                         _______ _______ _______ _____ _____    ______ ____
ROOT
ATOM      1  C   UNL     1      46.333   5.010  14.125  0.00  0.00    +0.000 C 
ENDROOT
BRANCH   1   2
ATOM      2  C   UNL     1      46.751   5.571  12.755  0.00  0.00    +0.000 C 
ATOM      3  C   UNL     1      46.474   7.075  12.599  0.00  0.00    +0.000 C 
ATOM      4  C   UNL     1      44.976   7.364  12.580  0.00  0.00    +0.000 C 
ATOM      5  C   UNL     1      44.240   6.488  11.559  0.00  0.00    +0.000 C 
ATOM      6  N   UNL     1      44.569   5.061  11.682  0.00  0.00    +0.000 NA
ATOM      7  C   UNL     1      46.017   4.819  11.632  0.00  0.00    +0.000 C 
BRANCH   6   8
ATOM      8  C   UNL     1      43.807   4.207  10.750  0.00  0.00    +0.000 C 
BRANCH   8   9
ATOM      9  C   UNL     1      44.597   3.600   9.607  0.00  0.00    +0.000 A 
ATOM     10  C   UNL     1      44.776   2.210   9.513  0.00  0.00    +0.000 A 
ATOM     11  C   UNL     1      45.633   1.668   8.554  0.00  0.00    +0.000 A 
ATOM     12  C   UNL     1      46.295   2.516   7.673  0.00  0.00    +0.000 A 
ATOM     13  C   UNL     1      46.066   3.885   7.692  0.00  0.00    +0.000 A 
ATOM     14  C   UNL     1      45.219   4.427   8.658  0.00  0.00    +0.000 A 
BRANCH  12  15
ATOM     15  O   UNL     1      47.210   2.036   6.782  0.00  0.00    +0.000 OA
ATOM     16  H   UNL     1      46.725   1.583   6.072  0.00  0.00    +0.000 HD
ENDBRANCH  12  15
ENDBRANCH   8   9
ENDBRANCH   6   8
ENDBRANCH   1   2
BRANCH   1  19
ATOM     17  O   UNL     1      46.492   3.562  16.564  0.00  0.00    +0.000 OA
ATOM     18  C   UNL     1      47.406   4.327  16.261  0.00  0.00    +0.000 C 
ATOM     19  N   UNL     1      47.409   5.032  15.089  0.00  0.00    +0.000 N 
ATOM     20  H   UNL     1      48.162   5.683  14.894  0.00  0.00    +0.000 HD
BRANCH  18  21
ATOM     21  C   UNL     1      48.574   4.517  17.132  0.00  0.00    +0.000 A 
ATOM     22  C   UNL     1      48.688   5.678  17.883  0.00  0.00    +0.000 A 
ATOM     23  S   UNL     1      50.105   5.745  18.829  0.00  0.00    +0.000 S 
ATOM     24  C   UNL     1      50.634   4.238  18.244  0.00  0.00    +0.000 A 
ATOM     25  N   UNL     1      51.823   3.713  18.641  0.00  0.00    +0.000 NA
ATOM     26  C   UNL     1      52.111   2.572  18.111  0.00  0.00    +0.000 A 
ATOM     27  N   UNL     1      51.311   1.901  17.224  0.00  0.00    +0.000 N 
ATOM     28  C   UNL     1      50.083   2.372  16.826  0.00  0.00    +0.000 A 
ATOM     29  O   UNL     1      49.362   1.697  16.096  0.00  0.00    +0.000 OA
ATOM     30  C   UNL     1      49.726   3.673  17.366  0.00  0.00    +0.000 A 
ATOM     31  H   UNL     1      51.577   0.996  16.868  0.00  0.00    +0.000 HD
ENDBRANCH  18  21
ENDBRANCH   1  19
TORSDOF 6
ENDMDL
MODEL 8
REMARK VINA RESULT:    -7.931      1.355      2.022
REMARK INTER + INTRA:         -11.493
REMARK INTER:                 -10.835
REMARK INTRA:                  -0.658
REMARK UNBOUND:                -1.012
REMARK  Name = 
REMARK  6 active torsions:
REMARK  status: ('A' for Active; 'I' for Inactive)
REMARK    1  A    between atoms: C_2  and  C_19
REMARK    2  A    between atoms: N_3  and  C_4
REMARK    3  A    between atoms: C_4  and  C_5
REMARK    4  A    between atoms: N_9  and  C_10
REMARK    5  A    between atoms: C_10  and  C_11
REMARK    6  A    between atoms: C_14  and  O_15
REMARK                            x       y       z     vdW  Elec       q    Type
REMARK                         _______ _______ _______ _____ _____    ______ ____
ROOT
ATOM      1  C   UNL     1      46.022   4.771  13.772  0.00  0.00    +0.000 C 
ENDROOT
BRANCH   1   2
ATOM      2  C   UNL     1      46.574   5.557  12.570  0.00  0.00    +0.000 C 
ATOM      3  C   UNL     1      46.350   7.073  12.676  0.00  0.00    +0.000 C 
ATOM      4  C   UNL     1      44.868   7.424  12.589  0.00  0.00    +0.000 C 
ATOM      5  C   UNL     1      44.203   6.782  11.366  0.00  0.00    +0.000 C 
ATOM      6  N   UNL     1      44.483   5.345  11.245  0.00  0.00    +0.000 NA
ATOM      7  C   UNL     1      45.922   5.055  11.269  0.00  0.00    +0.000 C 
BRANCH   6   8
ATOM      8  C   UNL     1      43.784   4.710  10.110  0.00  0.00    +0.000 C 
BRANCH   8   9
ATOM      9  C   UNL     1      44.628   3.813   9.227  0.00  0.00    +0.000 A 
ATOM     10  C   UNL     1      44.662   2.425   9.431  0.00  0.00    +0.000 A 
ATOM     11  C   UNL     1      45.560   1.624   8.722  0.00  0.00    +0.000 A 
ATOM     12  C   UNL     1      46.408   2.211   7.790  0.00  0.00    +0.000 A 
ATOM     13  C   UNL     1      46.332   3.568   7.509  0.00  0.00    +0.000 A 
ATOM     14  C   UNL     1      45.444   4.369   8.227  0.00  0.00    +0.000 A 
BRANCH  12  15
ATOM     15  O   UNL     1      47.361   1.480   7.143  0.00  0.00    +0.000 OA
ATOM     16  H   UNL     1      47.828   2.074   6.532  0.00  0.00    +0.000 HD
ENDBRANCH  12  15
ENDBRANCH   8   9
ENDBRANCH   6   8
ENDBRANCH   1   2
BRANCH   1  19
ATOM     17  O   UNL     1      47.715   2.928  15.117  0.00  0.00    +0.000 OA
ATOM     18  C   UNL     1      47.556   4.050  15.591  0.00  0.00    +0.000 C 
ATOM     19  N   UNL     1      46.779   4.997  14.981  0.00  0.00    +0.000 N 
ATOM     20  H   UNL     1      46.641   5.899  15.425  0.00  0.00    +0.000 HD
BRANCH  18  21
ATOM     21  C   UNL     1      48.212   4.461  16.841  0.00  0.00    +0.000 A 
ATOM     22  C   UNL     1      47.975   3.747  18.007  0.00  0.00    +0.000 A 
ATOM     23  S   UNL     1      48.802   4.360  19.365  0.00  0.00    +0.000 S 
ATOM     24  C   UNL     1      49.483   5.622  18.450  0.00  0.00    +0.000 A 
ATOM     25  N   UNL     1      50.289   6.550  19.031  0.00  0.00    +0.000 NA
ATOM     26  C   UNL     1      50.726   7.461  18.228  0.00  0.00    +0.000 A 
ATOM     27  N   UNL     1      50.437   7.524  16.891  0.00  0.00    +0.000 N 
ATOM     28  C   UNL     1      49.662   6.587  16.252  0.00  0.00    +0.000 A 
ATOM     29  O   UNL     1      49.499   6.636  15.035  0.00  0.00    +0.000 OA
ATOM     30  C   UNL     1      49.113   5.558  17.118  0.00  0.00    +0.000 A 
ATOM     31  H   UNL     1      50.835   8.244  16.308  0.00  0.00    +0.000 HD
ENDBRANCH  18  21
ENDBRANCH   1  19
TORSDOF 6
ENDMDL
MODEL 9
REMARK VINA RESULT:    -7.495      1.420      1.644
REMARK INTER + INTRA:         -10.917
REMARK INTER:                 -10.520
REMARK INTRA:                  -0.397
REMARK UNBOUND:                -1.012
REMARK  Name = 
REMARK  6 active torsions:
REMARK  status: ('A' for Active; 'I' for Inactive)
REMARK    1  A    between atoms: C_2  and  C_19
REMARK    2  A    between atoms: N_3  and  C_4
REMARK    3  A    between atoms: C_4  and  C_5
REMARK    4  A    between atoms: N_9  and  C_10
REMARK    5  A    between atoms: C_10  and  C_11
REMARK    6  A    between atoms: C_14  and  O_15
REMARK                            x       y       z     vdW  Elec       q    Type
REMARK                         _______ _______ _______ _____ _____    ______ ____
ROOT
ATOM      1  C   UNL     1      46.404   4.779  12.872  0.00  0.00    +0.000 C 
ENDROOT
BRANCH   1   2
ATOM      2  C   UNL     1      45.881   5.918  11.980  0.00  0.00    +0.000 C 
ATOM      3  C   UNL     1      44.678   6.662  12.580  0.00  0.00    +0.000 C 
ATOM      4  C   UNL     1      43.447   5.764  12.645  0.00  0.00    +0.000 C 
ATOM      5  C   UNL     1      43.155   5.099  11.295  0.00  0.00    +0.000 C 
ATOM      6  N   UNL     1      44.335   4.450  10.706  0.00  0.00    +0.000 NA
ATOM      7  C   UNL     1      45.479   5.365  10.603  0.00  0.00    +0.000 C 
BRANCH   6   8
ATOM      8  C   UNL     1      44.040   3.746   9.442  0.00  0.00    +0.000 C 
BRANCH   8   9
ATOM      9  C   UNL     1      45.237   3.189   8.697  0.00  0.00    +0.000 A 
ATOM     10  C   UNL     1      46.002   4.005   7.847  0.00  0.00    +0.000 A 
ATOM     11  C   UNL     1      47.001   3.454   7.043  0.00  0.00    +0.000 A 
ATOM     12  C   UNL     1      47.252   2.088   7.107  0.00  0.00    +0.000 A 
ATOM     13  C   UNL     1      46.568   1.277   8.002  0.00  0.00    +0.000 A 
ATOM     14  C   UNL     1      45.561   1.826   8.795  0.00  0.00    +0.000 A 
BRANCH  12  15
ATOM     15  O   UNL     1      48.155   1.496   6.274  0.00  0.00    +0.000 OA
ATOM     16  H   UNL     1      47.857   1.641   5.360  0.00  0.00    +0.000 HD
ENDBRANCH  12  15
ENDBRANCH   8   9
ENDBRANCH   6   8
ENDBRANCH   1   2
BRANCH   1  19
ATOM     17  O   UNL     1      48.798   6.232  13.348  0.00  0.00    +0.000 OA
ATOM     18  C   UNL     1      48.086   5.923  14.301  0.00  0.00    +0.000 C 
ATOM     19  N   UNL     1      46.906   5.249  14.142  0.00  0.00    +0.000 N 
ATOM     20  H   UNL     1      46.366   4.978  14.957  0.00  0.00    +0.000 HD
BRANCH  18  21
ATOM     21  C   UNL     1      48.446   6.278  15.681  0.00  0.00    +0.000 A 
ATOM     22  C   UNL     1      48.705   5.274  16.603  0.00  0.00    +0.000 A 
ATOM     23  S   UNL     1      49.096   5.856  18.157  0.00  0.00    +0.000 S 
ATOM     24  C   UNL     1      48.901   7.472  17.662  0.00  0.00    +0.000 A 
ATOM     25  N   UNL     1      49.063   8.496  18.542  0.00  0.00    +0.000 NA
ATOM     26  C   UNL     1      48.872   9.670  18.040  0.00  0.00    +0.000 A 
ATOM     27  N   UNL     1      48.541   9.915  16.734  0.00  0.00    +0.000 N 
ATOM     28  C   UNL     1      48.408   8.916  15.800  0.00  0.00    +0.000 A 
ATOM     29  O   UNL     1      48.195   9.187  14.621  0.00  0.00    +0.000 OA
ATOM     30  C   UNL     1      48.577   7.570  16.320  0.00  0.00    +0.000 A 
ATOM     31  H   UNL     1      48.436  10.858  16.394  0.00  0.00    +0.000 HD
ENDBRANCH  18  21
ENDBRANCH   1  19
TORSDOF 6
ENDMDL
