MODEL 1
REMARK VINA RESULT:    -9.074      0.000      0.000
REMARK INTER + INTRA:         -13.009
REMARK INTER:                 -12.256
REMARK INTRA:                  -0.753
REMARK UNBOUND:                -0.753
REMARK  Name = 
REMARK  6 active torsions:
REMARK  status: ('A' for Active; 'I' for Inactive)
REMARK    1  A    between atoms: C_2  and  C_4
REMARK    2  A    between atoms: N_8  and  C_9
REMARK    3  A    between atoms: C_9  and  C_10
REMARK    4  A    between atoms: C_10  and  C_11
REMARK    5  A    between atoms: C_15  and  O_16
REMARK    6  A    between atoms: O_16  and  C_17
REMARK                            x       y       z     vdW  Elec       q    Type
REMARK                         _______ _______ _______ _____ _____    ______ ____
ROOT
ATOM      1  C   UNL     1      43.434   4.548  11.240  0.00  0.00    +0.000 C 
ENDROOT
BRANCH   1   6
ATOM      2  C   UNL     1      46.475   2.478   7.704  0.00  0.00    +0.000 A 
ATOM      3  C   UNL     1      45.686   1.847   8.662  0.00  0.00    +0.000 A 
ATOM      4  C   UNL     1      44.790   2.612   9.416  0.00  0.00    +0.000 A 
ATOM      5  C   UNL     1      44.709   3.985   9.212  0.00  0.00    +0.000 A 
ATOM      6  N   UNL     1      43.790   4.799   9.849  0.00  0.00    +0.000 N 
ATOM      7  N   UNL     1      45.490   4.608   8.306  0.00  0.00    +0.000 NA
ATOM      8  C   UNL     1      46.358   3.852   7.582  0.00  0.00    +0.000 A 
ATOM      9  H   UNL     1      44.039   5.757   9.617  0.00  0.00    +0.000 HD
BRANCH   2  11
ATOM     10  N   UNL     1      48.526   2.432   6.399  0.00  0.00    +0.000 N 
ATOM     11  C   UNL     1      47.421   1.751   6.833  0.00  0.00    +0.000 C 
ATOM     12  O   UNL     1      47.248   0.575   6.542  0.00  0.00    +0.000 OA
ATOM     13  H   UNL     1      49.220   1.891   5.899  0.00  0.00    +0.000 HD
ATOM     14  H   UNL     1      48.830   3.298   6.822  0.00  0.00    +0.000 HD
ENDBRANCH   2  11
ENDBRANCH   1   6
BRANCH   1  15
ATOM     15  C   UNL     1      43.850   5.741  12.113  0.00  0.00    +0.000 C 
BRANCH  15  16
ATOM     16  C   UNL     1      45.256   5.613  12.645  0.00  0.00    +0.000 A 
ATOM     17  C   UNL     1      46.251   6.525  12.284  0.00  0.00    +0.000 A 
ATOM     18  C   UNL     1      47.530   6.355  12.797  0.00  0.00    +0.000 A 
ATOM     19  N   UNL     1      47.886   5.346  13.620  0.00  0.00    +0.000 NA
ATOM     20  C   UNL     1      46.911   4.480  13.960  0.00  0.00    +0.000 A 
ATOM     21  C   UNL     1      45.603   4.567  13.509  0.00  0.00    +0.000 A 
BRANCH  20  22
ATOM     22  O   UNL     1      47.208   3.441  14.823  0.00  0.00    +0.000 OA
BRANCH  22  23
ATOM     23  C   UNL     1      47.894   3.815  16.042  0.00  0.00    +0.000 C 
ATOM     24  C   UNL     1      48.409   2.665  16.928  0.00  0.00    +0.000 C 
ATOM     25  N   UNL     1      47.694   3.213  18.091  0.00  0.00    +0.000 NA
ATOM     26  C   UNL     1      46.987   4.175  17.233  0.00  0.00    +0.000 C 
ATOM     27  H   UNL     1      48.305   3.647  18.781  0.00  0.00    +0.000 HD
ENDBRANCH  22  23
ENDBRANCH  20  22
ENDBRANCH  15  16
ENDBRANCH   1  15
TORSDOF 6
ENDMDL
MODEL 2
REMARK VINA RESULT:    -8.207      1.922      3.292
REMARK INTER + INTRA:         -11.838
REMARK INTER:                 -11.146
REMARK INTRA:                  -0.692
REMARK UNBOUND:                -0.753
REMARK  Name = 
REMARK  6 active torsions:
REMARK  status: ('A' for Active; 'I' for Inactive)
REMARK    1  A    between atoms: C_2  and  C_4
REMARK    2  A    between atoms: N_8  and  C_9
REMARK    3  A    between atoms: C_9  and  C_10
REMARK    4  A    between atoms: C_10  and  C_11
REMARK    5  A    between atoms: C_15  and  O_16
REMARK    6  A    between atoms: O_16  and  C_17
REMARK                            x       y       z     vdW  Elec       q    Type
REMARK                         _______ _______ _______ _____ _____    ______ ____
ROOT
ATOM      1  C   UNL     1      43.337   4.511  11.205  0.00  0.00    +0.000 C 
ENDROOT
BRANCH   1   6
ATOM      2  C   UNL     1      46.468   2.513   7.706  0.00  0.00    +0.000 A 
ATOM      3  C   UNL     1      45.641   1.863   8.617  0.00  0.00    +0.000 A 
ATOM      4  C   UNL     1      44.730   2.615   9.366  0.00  0.00    +0.000 A 
ATOM      5  C   UNL     1      44.672   3.995   9.203  0.00  0.00    +0.000 A 
ATOM      6  N   UNL     1      43.743   4.801   9.835  0.00  0.00    +0.000 N 
ATOM      7  N   UNL     1      45.490   4.637   8.344  0.00  0.00    +0.000 NA
ATOM      8  C   UNL     1      46.373   3.892   7.625  0.00  0.00    +0.000 A 
ATOM      9  H   UNL     1      44.011   5.763   9.642  0.00  0.00    +0.000 HD
BRANCH   2  11
ATOM     10  N   UNL     1      48.531   2.501   6.420  0.00  0.00    +0.000 N 
ATOM     11  C   UNL     1      47.434   1.801   6.844  0.00  0.00    +0.000 C 
ATOM     12  O   UNL     1      47.283   0.623   6.552  0.00  0.00    +0.000 OA
ATOM     13  H   UNL     1      49.239   1.970   5.927  0.00  0.00    +0.000 HD
ATOM     14  H   UNL     1      48.818   3.371   6.846  0.00  0.00    +0.000 HD
ENDBRANCH   2  11
ENDBRANCH   1   6
BRANCH   1  15
ATOM     15  C   UNL     1      43.741   5.670  12.129  0.00  0.00    +0.000 C 
BRANCH  15  16
ATOM     16  C   UNL     1      45.182   5.591  12.570  0.00  0.00    +0.000 A 
ATOM     17  C   UNL     1      45.615   4.594  13.448  0.00  0.00    +0.000 A 
ATOM     18  C   UNL     1      46.951   4.573  13.826  0.00  0.00    +0.000 A 
ATOM     19  N   UNL     1      47.869   5.470  13.409  0.00  0.00    +0.000 NA
ATOM     20  C   UNL     1      47.432   6.420  12.558  0.00  0.00    +0.000 A 
ATOM     21  C   UNL     1      46.122   6.523  12.115  0.00  0.00    +0.000 A 
BRANCH  20  22
ATOM     22  O   UNL     1      48.332   7.352  12.074  0.00  0.00    +0.000 OA
BRANCH  22  23
ATOM     23  C   UNL     1      48.820   8.313  13.041  0.00  0.00    +0.000 C 
ATOM     24  C   UNL     1      47.798   8.853  14.059  0.00  0.00    +0.000 C 
ATOM     25  N   UNL     1      48.127  10.237  13.687  0.00  0.00    +0.000 NA
ATOM     26  C   UNL     1      48.921   9.766  12.543  0.00  0.00    +0.000 C 
ATOM     27  H   UNL     1      48.671  10.732  14.392  0.00  0.00    +0.000 HD
ENDBRANCH  22  23
ENDBRANCH  20  22
ENDBRANCH  15  16
ENDBRANCH   1  15
TORSDOF 6
ENDMDL
MODEL 3
REMARK VINA RESULT:    -7.895      1.846      2.472
REMARK INTER + INTRA:         -11.417
REMARK INTER:                 -10.630
REMARK INTRA:                  -0.787
REMARK UNBOUND:                -0.753
REMARK  Name = 
REMARK  6 active torsions:
REMARK  status: ('A' for Active; 'I' for Inactive)
REMARK    1  A    between atoms: C_2  and  C_4
REMARK    2  A    between atoms: N_8  and  C_9
REMARK    3  A    between atoms: C_9  and  C_10
REMARK    4  A    between atoms: C_10  and  C_11
REMARK    5  A    between atoms: C_15  and  O_16
REMARK    6  A    between atoms: O_16  and  C_17
REMARK                            x       y       z     vdW  Elec       q    Type
REMARK                         _______ _______ _______ _____ _____    ______ ____
ROOT
ATOM      1  C   UNL     1      43.354   4.537  11.133  0.00  0.00    +0.000 C 
ENDROOT
BRANCH   1   6
ATOM      2  C   UNL     1      46.576   2.726   7.615  0.00  0.00    +0.000 A 
ATOM      3  C   UNL     1      45.722   2.029   8.465  0.00  0.00    +0.000 A 
ATOM      4  C   UNL     1      44.792   2.742   9.230  0.00  0.00    +0.000 A 
ATOM      5  C   UNL     1      44.743   4.129   9.143  0.00  0.00    +0.000 A 
ATOM      6  N   UNL     1      43.798   4.901   9.793  0.00  0.00    +0.000 N 
ATOM      7  N   UNL     1      45.585   4.814   8.343  0.00  0.00    +0.000 NA
ATOM      8  C   UNL     1      46.486   4.108   7.609  0.00  0.00    +0.000 A 
ATOM      9  H   UNL     1      44.073   5.872   9.662  0.00  0.00    +0.000 HD
BRANCH   2  11
ATOM     10  N   UNL     1      47.962   2.732   5.618  0.00  0.00    +0.000 N 
ATOM     11  C   UNL     1      47.563   2.060   6.742  0.00  0.00    +0.000 C 
ATOM     12  O   UNL     1      48.038   0.969   7.028  0.00  0.00    +0.000 OA
ATOM     13  H   UNL     1      48.719   2.316   5.091  0.00  0.00    +0.000 HD
ATOM     14  H   UNL     1      47.796   3.720   5.489  0.00  0.00    +0.000 HD
ENDBRANCH   2  11
ENDBRANCH   1   6
BRANCH   1  15
ATOM     15  C   UNL     1      43.797   5.607  12.143  0.00  0.00    +0.000 C 
BRANCH  15  16
ATOM     16  C   UNL     1      45.165   5.336  12.718  0.00  0.00    +0.000 A 
ATOM     17  C   UNL     1      45.582   4.034  13.009  0.00  0.00    +0.000 A 
ATOM     18  C   UNL     1      46.849   3.844  13.544  0.00  0.00    +0.000 A 
ATOM     19  N   UNL     1      47.712   4.844  13.819  0.00  0.00    +0.000 NA
ATOM     20  C   UNL     1      47.293   6.092  13.526  0.00  0.00    +0.000 A 
ATOM     21  C   UNL     1      46.051   6.386  12.984  0.00  0.00    +0.000 A 
BRANCH  20  22
ATOM     22  O   UNL     1      48.143   7.157  13.761  0.00  0.00    +0.000 OA
BRANCH  22  23
ATOM     23  C   UNL     1      49.177   6.927  14.748  0.00  0.00    +0.000 C 
ATOM     24  C   UNL     1      48.858   7.343  16.197  0.00  0.00    +0.000 C 
ATOM     25  N   UNL     1      50.079   8.160  16.254  0.00  0.00    +0.000 NA
ATOM     26  C   UNL     1      50.288   7.992  14.809  0.00  0.00    +0.000 C 
ATOM     27  H   UNL     1      50.817   7.756  16.828  0.00  0.00    +0.000 HD
ENDBRANCH  22  23
ENDBRANCH  20  22
ENDBRANCH  15  16
ENDBRANCH   1  15
TORSDOF 6
ENDMDL
MODEL 4
REMARK VINA RESULT:    -7.726      2.200      2.564
REMARK INTER + INTRA:         -11.189
REMARK INTER:                 -10.641
REMARK INTRA:                  -0.548
REMARK UNBOUND:                -0.753
REMARK  Name = 
REMARK  6 active torsions:
REMARK  status: ('A' for Active; 'I' for Inactive)
REMARK    1  A    between atoms: C_2  and  C_4
REMARK    2  A    between atoms: N_8  and  C_9
REMARK    3  A    between atoms: C_9  and  C_10
REMARK    4  A    between atoms: C_10  and  C_11
REMARK    5  A    between atoms: C_15  and  O_16
REMARK    6  A    between atoms: O_16  and  C_17
REMARK                            x       y       z     vdW  Elec       q    Type
REMARK                         _______ _______ _______ _____ _____    ______ ____
ROOT
ATOM      1  C   UNL     1      43.382   4.834  10.936  0.00  0.00    +0.000 C 
ENDROOT
BRANCH   1   6
ATOM      2  C   UNL     1      46.420   2.269   7.737  0.00  0.00    +0.000 A 
ATOM      3  C   UNL     1      45.578   1.778   8.731  0.00  0.00    +0.000 A 
ATOM      4  C   UNL     1      44.698   2.657   9.371  0.00  0.00    +0.000 A 
ATOM      5  C   UNL     1      44.685   4.003   9.021  0.00  0.00    +0.000 A 
ATOM      6  N   UNL     1      43.788   4.919   9.538  0.00  0.00    +0.000 N 
ATOM      7  N   UNL     1      45.518   4.492   8.079  0.00  0.00    +0.000 NA
ATOM      8  C   UNL     1      46.371   3.627   7.467  0.00  0.00    +0.000 A 
ATOM      9  H   UNL     1      44.086   5.836   9.214  0.00  0.00    +0.000 HD
BRANCH   2  11
ATOM     10  N   UNL     1      48.405   2.031   6.353  0.00  0.00    +0.000 N 
ATOM     11  C   UNL     1      47.356   1.413   6.979  0.00  0.00    +0.000 C 
ATOM     12  O   UNL     1      47.224   0.197   6.943  0.00  0.00    +0.000 OA
ATOM     13  H   UNL     1      49.098   1.423   5.934  0.00  0.00    +0.000 HD
ATOM     14  H   UNL     1      48.689   2.975   6.574  0.00  0.00    +0.000 HD
ENDBRANCH   2  11
ENDBRANCH   1   6
BRANCH   1  15
ATOM     15  C   UNL     1      43.069   6.236  11.479  0.00  0.00    +0.000 C 
BRANCH  15  16
ATOM     16  C   UNL     1      44.307   6.988  11.903  0.00  0.00    +0.000 A 
ATOM     17  C   UNL     1      44.503   8.322  11.538  0.00  0.00    +0.000 A 
ATOM     18  C   UNL     1      45.665   8.962  11.949  0.00  0.00    +0.000 A 
ATOM     19  N   UNL     1      46.637   8.371  12.675  0.00  0.00    +0.000 NA
ATOM     20  C   UNL     1      46.426   7.085  13.022  0.00  0.00    +0.000 A 
ATOM     21  C   UNL     1      45.298   6.361  12.668  0.00  0.00    +0.000 A 
BRANCH  20  22
ATOM     22  O   UNL     1      47.374   6.433  13.789  0.00  0.00    +0.000 OA
BRANCH  22  23
ATOM     23  C   UNL     1      48.359   7.284  14.425  0.00  0.00    +0.000 C 
ATOM     24  C   UNL     1      49.731   7.393  13.733  0.00  0.00    +0.000 C 
ATOM     25  N   UNL     1      50.412   7.006  14.977  0.00  0.00    +0.000 NA
ATOM     26  C   UNL     1      49.128   6.651  15.598  0.00  0.00    +0.000 C 
ATOM     27  H   UNL     1      50.895   7.776  15.438  0.00  0.00    +0.000 HD
ENDBRANCH  22  23
ENDBRANCH  20  22
ENDBRANCH  15  16
ENDBRANCH   1  15
TORSDOF 6
ENDMDL
MODEL 5
REMARK VINA RESULT:    -7.384      1.773      8.145
REMARK INTER + INTRA:         -10.726
REMARK INTER:                 -10.128
REMARK INTRA:                  -0.598
REMARK UNBOUND:                -0.753
REMARK  Name = 
REMARK  6 active torsions:
REMARK  status: ('A' for Active; 'I' for Inactive)
REMARK    1  A    between atoms: C_2  and  C_4
REMARK    2  A    between atoms: N_8  and  C_9
REMARK    3  A    between atoms: C_9  and  C_10
REMARK    4  A    between atoms: C_10  and  C_11
REMARK    5  A    between atoms: C_15  and  O_16
REMARK    6  A    between atoms: O_16  and  C_17
REMARK                            x       y       z     vdW  Elec       q    Type
REMARK                         _______ _______ _______ _____ _____    ______ ____
ROOT
ATOM      1  C   UNL     1      45.768   6.205  12.407  0.00  0.00    +0.000 C 
ENDROOT
BRANCH   1   6
ATOM      2  C   UNL     1      48.204   4.694  16.628  0.00  0.00    +0.000 A 
ATOM      3  C   UNL     1      47.171   4.065  15.938  0.00  0.00    +0.000 A 
ATOM      4  C   UNL     1      46.774   4.575  14.697  0.00  0.00    +0.000 A 
ATOM      5  C   UNL     1      47.400   5.704  14.179  0.00  0.00    +0.000 A 
ATOM      6  N   UNL     1      47.131   6.218  12.924  0.00  0.00    +0.000 N 
ATOM      7  N   UNL     1      48.381   6.336  14.855  0.00  0.00    +0.000 NA
ATOM      8  C   UNL     1      48.755   5.831  16.061  0.00  0.00    +0.000 A 
ATOM      9  H   UNL     1      47.625   7.105  12.860  0.00  0.00    +0.000 HD
BRANCH   2  11
ATOM     10  N   UNL     1      47.990   3.244  18.568  0.00  0.00    +0.000 N 
ATOM     11  C   UNL     1      48.719   4.208  17.925  0.00  0.00    +0.000 C 
ATOM     12  O   UNL     1      49.773   4.619  18.389  0.00  0.00    +0.000 OA
ATOM     13  H   UNL     1      48.411   2.841  19.395  0.00  0.00    +0.000 HD
ATOM     14  H   UNL     1      47.274   2.705  18.102  0.00  0.00    +0.000 HD
ENDBRANCH   2  11
ENDBRANCH   1   6
BRANCH   1  15
ATOM     15  C   UNL     1      45.788   6.257  10.871  0.00  0.00    +0.000 C 
BRANCH  15  16
ATOM     16  C   UNL     1      45.319   4.970  10.237  0.00  0.00    +0.000 A 
ATOM     17  C   UNL     1      44.540   4.056  10.951  0.00  0.00    +0.000 A 
ATOM     18  C   UNL     1      44.142   2.884  10.321  0.00  0.00    +0.000 A 
ATOM     19  N   UNL     1      44.474   2.557   9.054  0.00  0.00    +0.000 NA
ATOM     20  C   UNL     1      45.221   3.455   8.381  0.00  0.00    +0.000 A 
ATOM     21  C   UNL     1      45.662   4.655   8.917  0.00  0.00    +0.000 A 
BRANCH  20  22
ATOM     22  O   UNL     1      45.571   3.189   7.070  0.00  0.00    +0.000 OA
BRANCH  22  23
ATOM     23  C   UNL     1      46.992   3.144   6.797  0.00  0.00    +0.000 C 
ATOM     24  C   UNL     1      47.410   2.889   5.337  0.00  0.00    +0.000 C 
ATOM     25  N   UNL     1      48.251   1.756   5.753  0.00  0.00    +0.000 NA
ATOM     26  C   UNL     1      47.689   1.808   7.110  0.00  0.00    +0.000 C 
ATOM     27  H   UNL     1      49.250   1.951   5.712  0.00  0.00    +0.000 HD
ENDBRANCH  22  23
ENDBRANCH  20  22
ENDBRANCH  15  16
ENDBRANCH   1  15
TORSDOF 6
ENDMDL
MODEL 6
REMARK VINA RESULT:    -7.374      1.916      8.320
REMARK INTER + INTRA:         -10.714
REMARK INTER:                 -10.289
REMARK INTRA:                  -0.425
REMARK UNBOUND:                -0.753
REMARK  Name = 
REMARK  6 active torsions:
REMARK  status: ('A' for Active; 'I' for Inactive)
REMARK    1  A    between atoms: C_2  and  C_4
REMARK    2  A    between atoms: N_8  and  C_9
REMARK    3  A    between atoms: C_9  and  C_10
REMARK    4  A    between atoms: C_10  and  C_11
REMARK    5  A    between atoms: C_15  and  O_16
REMARK    6  A    between atoms: O_16  and  C_17
REMARK                            x       y       z     vdW  Elec       q    Type
REMARK                         _______ _______ _______ _____ _____    ______ ____
ROOT
ATOM      1  C   UNL     1      46.617   5.977  12.384  0.00  0.00    +0.000 C 
ENDROOT
BRANCH   1   6
ATOM      2  C   UNL     1      48.365   4.550  16.961  0.00  0.00    +0.000 A 
ATOM      3  C   UNL     1      48.638   5.709  16.239  0.00  0.00    +0.000 A 
ATOM      4  C   UNL     1      47.904   5.976  15.078  0.00  0.00    +0.000 A 
ATOM      5  C   UNL     1      46.929   5.079  14.654  0.00  0.00    +0.000 A 
ATOM      6  N   UNL     1      46.099   5.309  13.572  0.00  0.00    +0.000 N 
ATOM      7  N   UNL     1      46.678   3.940  15.332  0.00  0.00    +0.000 NA
ATOM      8  C   UNL     1      47.402   3.693  16.457  0.00  0.00    +0.000 A 
ATOM      9  H   UNL     1      45.583   4.448  13.412  0.00  0.00    +0.000 HD
BRANCH   2  11
ATOM     10  N   UNL     1      48.487   3.239  19.005  0.00  0.00    +0.000 N 
ATOM     11  C   UNL     1      49.059   4.201  18.217  0.00  0.00    +0.000 C 
ATOM     12  O   UNL     1      50.124   4.720  18.526  0.00  0.00    +0.000 OA
ATOM     13  H   UNL     1      49.028   2.931  19.802  0.00  0.00    +0.000 HD
ATOM     14  H   UNL     1      47.768   2.617  18.665  0.00  0.00    +0.000 HD
ENDBRANCH   2  11
ENDBRANCH   1   6
BRANCH   1  15
ATOM     15  C   UNL     1      45.472   6.265  11.402  0.00  0.00    +0.000 C 
BRANCH  15  16
ATOM     16  C   UNL     1      45.237   5.133  10.432  0.00  0.00    +0.000 A 
ATOM     17  C   UNL     1      44.376   4.079  10.747  0.00  0.00    +0.000 A 
ATOM     18  C   UNL     1      44.203   3.059   9.821  0.00  0.00    +0.000 A 
ATOM     19  N   UNL     1      44.829   3.008   8.626  0.00  0.00    +0.000 NA
ATOM     20  C   UNL     1      45.652   4.038   8.339  0.00  0.00    +0.000 A 
ATOM     21  C   UNL     1      45.886   5.105   9.192  0.00  0.00    +0.000 A 
BRANCH  20  22
ATOM     22  O   UNL     1      46.302   4.056   7.119  0.00  0.00    +0.000 OA
BRANCH  22  23
ATOM     23  C   UNL     1      46.562   2.760   6.528  0.00  0.00    +0.000 C 
ATOM     24  C   UNL     1      47.769   1.977   7.077  0.00  0.00    +0.000 C 
ATOM     25  N   UNL     1      48.319   1.833   5.721  0.00  0.00    +0.000 NA
ATOM     26  C   UNL     1      47.327   2.778   5.191  0.00  0.00    +0.000 C 
ATOM     27  H   UNL     1      48.235   0.890   5.342  0.00  0.00    +0.000 HD
ENDBRANCH  22  23
ENDBRANCH  20  22
ENDBRANCH  15  16
ENDBRANCH   1  15
TORSDOF 6
ENDMDL
MODEL 7
REMARK VINA RESULT:    -6.812      3.340      7.616
REMARK INTER + INTRA:          -9.955
REMARK INTER:                  -9.337
REMARK INTRA:                  -0.617
REMARK UNBOUND:                -0.753
REMARK  Name = 
REMARK  6 active torsions:
REMARK  status: ('A' for Active; 'I' for Inactive)
REMARK    1  A    between atoms: C_2  and  C_4
REMARK    2  A    between atoms: N_8  and  C_9
REMARK    3  A    between atoms: C_9  and  C_10
REMARK    4  A    between atoms: C_10  and  C_11
REMARK    5  A    between atoms: C_15  and  O_16
REMARK    6  A    between atoms: O_16  and  C_17
REMARK                            x       y       z     vdW  Elec       q    Type
REMARK                         _______ _______ _______ _____ _____    ______ ____
ROOT
ATOM      1  C   UNL     1      44.973   6.012  12.660  0.00  0.00    +0.000 C 
ENDROOT
BRANCH   1   6
ATOM      2  C   UNL     1      49.491   8.385  12.673  0.00  0.00    +0.000 A 
ATOM      3  C   UNL     1      48.981   7.472  11.753  0.00  0.00    +0.000 A 
ATOM      4  C   UNL     1      47.641   7.082  11.853  0.00  0.00    +0.000 A 
ATOM      5  C   UNL     1      46.845   7.596  12.870  0.00  0.00    +0.000 A 
ATOM      6  N   UNL     1      45.492   7.335  12.987  0.00  0.00    +0.000 N 
ATOM      7  N   UNL     1      47.338   8.459  13.782  0.00  0.00    +0.000 NA
ATOM      8  C   UNL     1      48.643   8.827  13.674  0.00  0.00    +0.000 A 
ATOM      9  H   UNL     1      45.195   7.723  13.879  0.00  0.00    +0.000 HD
BRANCH   2  11
ATOM     10  N   UNL     1      51.833   8.042  12.121  0.00  0.00    +0.000 N 
ATOM     11  C   UNL     1      50.880   8.885  12.625  0.00  0.00    +0.000 C 
ATOM     12  O   UNL     1      51.164  10.019  12.985  0.00  0.00    +0.000 OA
ATOM     13  H   UNL     1      52.757   8.436  11.990  0.00  0.00    +0.000 HD
ATOM     14  H   UNL     1      51.601   7.219  11.584  0.00  0.00    +0.000 HD
ENDBRANCH   2  11
ENDBRANCH   1   6
BRANCH   1  15
ATOM     15  C   UNL     1      44.230   6.056  11.317  0.00  0.00    +0.000 C 
BRANCH  15  16
ATOM     16  C   UNL     1      44.506   4.847  10.457  0.00  0.00    +0.000 A 
ATOM     17  C   UNL     1      43.946   3.604  10.758  0.00  0.00    +0.000 A 
ATOM     18  C   UNL     1      44.240   2.523   9.937  0.00  0.00    +0.000 A 
ATOM     19  N   UNL     1      45.053   2.590   8.861  0.00  0.00    +0.000 NA
ATOM     20  C   UNL     1      45.579   3.800   8.585  0.00  0.00    +0.000 A 
ATOM     21  C   UNL     1      45.342   4.940   9.337  0.00  0.00    +0.000 A 
BRANCH  20  22
ATOM     22  O   UNL     1      46.399   3.938   7.480  0.00  0.00    +0.000 OA
BRANCH  22  23
ATOM     23  C   UNL     1      46.629   2.730   6.715  0.00  0.00    +0.000 C 
ATOM     24  C   UNL     1      47.931   1.961   7.008  0.00  0.00    +0.000 C 
ATOM     25  N   UNL     1      48.296   1.995   5.584  0.00  0.00    +0.000 NA
ATOM     26  C   UNL     1      47.203   2.936   5.301  0.00  0.00    +0.000 C 
ATOM     27  H   UNL     1      48.200   1.096   5.115  0.00  0.00    +0.000 HD
ENDBRANCH  22  23
ENDBRANCH  20  22
ENDBRANCH  15  16
ENDBRANCH   1  15
TORSDOF 6
ENDMDL
MODEL 8
REMARK VINA RESULT:    -6.677      2.344      8.578
REMARK INTER + INTRA:          -9.772
REMARK INTER:                  -9.367
REMARK INTRA:                  -0.405
REMARK UNBOUND:                -0.753
REMARK  Name = 
REMARK  6 active torsions:
REMARK  status: ('A' for Active; 'I' for Inactive)
REMARK    1  A    between atoms: C_2  and  C_4
REMARK    2  A    between atoms: N_8  and  C_9
REMARK    3  A    between atoms: C_9  and  C_10
REMARK    4  A    between atoms: C_10  and  C_11
REMARK    5  A    between atoms: C_15  and  O_16
REMARK    6  A    between atoms: O_16  and  C_17
REMARK                            x       y       z     vdW  Elec       q    Type
REMARK                         _______ _______ _______ _____ _____    ______ ____
ROOT
ATOM      1  C   UNL     1      46.979   4.732  13.700  0.00  0.00    +0.000 C 
ENDROOT
BRANCH   1   6
ATOM      2  C   UNL     1      48.566   4.373  18.536  0.00  0.00    +0.000 A 
ATOM      3  C   UNL     1      48.826   5.369  17.599  0.00  0.00    +0.000 A 
ATOM      4  C   UNL     1      48.137   5.353  16.381  0.00  0.00    +0.000 A 
ATOM      5  C   UNL     1      47.220   4.342  16.118  0.00  0.00    +0.000 A 
ATOM      6  N   UNL     1      46.433   4.301  14.981  0.00  0.00    +0.000 N 
ATOM      7  N   UNL     1      46.983   3.357  17.009  0.00  0.00    +0.000 NA
ATOM      8  C   UNL     1      47.662   3.384  18.187  0.00  0.00    +0.000 A 
ATOM      9  H   UNL     1      45.959   3.400  14.986  0.00  0.00    +0.000 HD
BRANCH   2  11
ATOM     10  N   UNL     1      50.582   4.315  19.894  0.00  0.00    +0.000 N 
ATOM     11  C   UNL     1      49.214   4.328  19.863  0.00  0.00    +0.000 C 
ATOM     12  O   UNL     1      48.558   4.342  20.896  0.00  0.00    +0.000 OA
ATOM     13  H   UNL     1      51.012   4.399  20.806  0.00  0.00    +0.000 HD
ATOM     14  H   UNL     1      51.145   4.564  19.092  0.00  0.00    +0.000 HD
ENDBRANCH   2  11
ENDBRANCH   1   6
BRANCH   1  15
ATOM     15  C   UNL     1      46.153   5.902  13.144  0.00  0.00    +0.000 C 
BRANCH  15  16
ATOM     16  C   UNL     1      45.238   5.487  12.017  0.00  0.00    +0.000 A 
ATOM     17  C   UNL     1      43.871   5.296  12.231  0.00  0.00    +0.000 A 
ATOM     18  C   UNL     1      43.077   4.906  11.161  0.00  0.00    +0.000 A 
ATOM     19  N   UNL     1      43.544   4.683   9.914  0.00  0.00    +0.000 NA
ATOM     20  C   UNL     1      44.865   4.879   9.728  0.00  0.00    +0.000 A 
ATOM     21  C   UNL     1      45.740   5.274  10.728  0.00  0.00    +0.000 A 
BRANCH  20  22
ATOM     22  O   UNL     1      45.399   4.693   8.466  0.00  0.00    +0.000 OA
BRANCH  22  23
ATOM     23  C   UNL     1      45.243   3.365   7.909  0.00  0.00    +0.000 C 
ATOM     24  C   UNL     1      45.478   2.180   8.864  0.00  0.00    +0.000 C 
ATOM     25  N   UNL     1      46.461   1.600   7.937  0.00  0.00    +0.000 NA
ATOM     26  C   UNL     1      46.452   2.825   7.124  0.00  0.00    +0.000 C 
ATOM     27  H   UNL     1      46.123   0.775   7.445  0.00  0.00    +0.000 HD
ENDBRANCH  22  23
ENDBRANCH  20  22
ENDBRANCH  15  16
ENDBRANCH   1  15
TORSDOF 6
ENDMDL
MODEL 9
REMARK VINA RESULT:    -6.364      3.029      4.220
REMARK INTER + INTRA:          -9.349
REMARK INTER:                  -8.735
REMARK INTRA:                  -0.614
REMARK UNBOUND:                -0.753
REMARK  Name = 
REMARK  6 active torsions:
REMARK  status: ('A' for Active; 'I' for Inactive)
REMARK    1  A    between atoms: C_2  and  C_4
REMARK    2  A    between atoms: N_8  and  C_9
REMARK    3  A    between atoms: C_9  and  C_10
REMARK    4  A    between atoms: C_10  and  C_11
REMARK    5  A    between atoms: C_15  and  O_16
REMARK    6  A    between atoms: O_16  and  C_17
REMARK                            x       y       z     vdW  Elec       q    Type
REMARK                         _______ _______ _______ _____ _____    ______ ____
ROOT
ATOM      1  C   UNL     1      46.321   8.572  13.236  0.00  0.00    +0.000 C 
ENDROOT
BRANCH   1   6
ATOM      2  C   UNL     1      44.375   4.232  11.388  0.00  0.00    +0.000 A 
ATOM      3  C   UNL     1      44.247   4.779  12.662  0.00  0.00    +0.000 A 
ATOM      4  C   UNL     1      44.720   6.075  12.896  0.00  0.00    +0.000 A 
ATOM      5  C   UNL     1      45.321   6.789  11.866  0.00  0.00    +0.000 A 
ATOM      6  N   UNL     1      45.733   8.104  11.987  0.00  0.00    +0.000 N 
ATOM      7  N   UNL     1      45.475   6.256  10.636  0.00  0.00    +0.000 NA
ATOM      8  C   UNL     1      45.013   4.995  10.424  0.00  0.00    +0.000 A 
ATOM      9  H   UNL     1      46.248   8.328  11.139  0.00  0.00    +0.000 HD
BRANCH   2  11
ATOM     10  N   UNL     1      44.511   2.227  10.021  0.00  0.00    +0.000 N 
ATOM     11  C   UNL     1      43.873   2.889  11.034  0.00  0.00    +0.000 C 
ATOM     12  O   UNL     1      42.950   2.369  11.647  0.00  0.00    +0.000 OA
ATOM     13  H   UNL     1      44.231   1.266   9.865  0.00  0.00    +0.000 HD
ATOM     14  H   UNL     1      45.420   2.505   9.678  0.00  0.00    +0.000 HD
ENDBRANCH   2  11
ENDBRANCH   1   6
BRANCH   1  15
ATOM     15  C   UNL     1      47.800   8.164  13.307  0.00  0.00    +0.000 C 
BRANCH  15  16
ATOM     16  C   UNL     1      48.242   7.812  14.707  0.00  0.00    +0.000 A 
ATOM     17  C   UNL     1      48.287   8.778  15.714  0.00  0.00    +0.000 A 
ATOM     18  C   UNL     1      48.709   8.400  16.982  0.00  0.00    +0.000 A 
ATOM     19  N   UNL     1      49.098   7.149  17.308  0.00  0.00    +0.000 NA
ATOM     20  C   UNL     1      49.041   6.230  16.322  0.00  0.00    +0.000 A 
ATOM     21  C   UNL     1      48.628   6.505  15.028  0.00  0.00    +0.000 A 
BRANCH  20  22
ATOM     22  O   UNL     1      49.401   4.925  16.602  0.00  0.00    +0.000 OA
BRANCH  22  23
ATOM     23  C   UNL     1      48.579   4.244  17.580  0.00  0.00    +0.000 C 
ATOM     24  C   UNL     1      48.091   2.830  17.213  0.00  0.00    +0.000 C 
ATOM     25  N   UNL     1      46.697   3.221  17.470  0.00  0.00    +0.000 NA
ATOM     26  C   UNL     1      47.089   4.632  17.585  0.00  0.00    +0.000 C 
ATOM     27  H   UNL     1      46.312   2.828  18.328  0.00  0.00    +0.000 HD
ENDBRANCH  22  23
ENDBRANCH  20  22
ENDBRANCH  15  16
ENDBRANCH   1  15
TORSDOF 6
ENDMDL
