MODEL 1
REMARK VINA RESULT:    -9.124      0.000      0.000
REMARK INTER + INTRA:         -12.475
REMARK INTER:                 -12.324
REMARK INTRA:                  -0.151
REMARK UNBOUND:                -0.151
REMARK  Name = 
REMARK  7 active torsions:
REMARK  status: ('A' for Active; 'I' for Inactive)
REMARK    1  A    between atoms: C_1  and  O_2
REMARK    2  A    between atoms: O_2  and  C_3
REMARK    3  A    between atoms: C_6  and  C_7
REMARK    4  A    between atoms: C_11  and  C_12
REMARK    5  A    between atoms: C_12  and  N_13
REMARK    6  A    between atoms: N_13  and  C_14
REMARK    7  A    between atoms: C_17  and  C_18
REMARK                            x       y       z     vdW  Elec       q    Type
REMARK                         _______ _______ _______ _____ _____    ______ ____
ROOT
ATOM      1  C   UNL     1      43.880   5.039  11.338  0.00  0.00    +0.000 C 
ATOM      2  C   UNL     1      42.669   5.351  12.202  0.00  0.00    +0.000 C 
ATOM      3  C   UNL     1      43.218   3.964  12.195  0.00  0.00    +0.000 C 
ENDROOT
BRANCH   1   8
ATOM      4  C   UNL     1      46.963   5.557  13.398  0.00  0.00    +0.000 A 
ATOM      5  C   UNL     1      47.659   6.548  12.710  0.00  0.00    +0.000 A 
ATOM      6  C   UNL     1      47.128   7.051  11.531  0.00  0.00    +0.000 A 
ATOM      7  C   UNL     1      45.912   6.560  11.074  0.00  0.00    +0.000 A 
ATOM      8  C   UNL     1      45.240   5.577  11.802  0.00  0.00    +0.000 A 
ATOM      9  N   UNL     1      45.778   5.075  12.947  0.00  0.00    +0.000 NA
BRANCH   4  13
ATOM     10  C   UNL     1      48.360   3.930  16.999  0.00  0.00    +0.000 A 
ATOM     11  N   UNL     1      48.769   5.163  16.680  0.00  0.00    +0.000 NA
ATOM     12  C   UNL     1      48.277   5.665  15.524  0.00  0.00    +0.000 A 
ATOM     13  C   UNL     1      47.430   4.988  14.664  0.00  0.00    +0.000 A 
ATOM     14  C   UNL     1      47.083   3.729  15.120  0.00  0.00    +0.000 A 
ATOM     15  N   UNL     1      47.527   3.174  16.267  0.00  0.00    +0.000 NA
BRANCH  10  17
ATOM     16  C   UNL     1      48.805   4.328  19.236  0.00  0.00    +0.000 C 
ATOM     17  O   UNL     1      48.904   3.412  18.153  0.00  0.00    +0.000 OA
ENDBRANCH  10  17
ENDBRANCH   4  13
ENDBRANCH   1   8
BRANCH   1  18
ATOM     18  N   UNL     1      43.776   4.812   9.876  0.00  0.00    +0.000 N 
ATOM     19  H   UNL     1      42.828   4.886   9.512  0.00  0.00    +0.000 HD
BRANCH  18  20
ATOM     20  C   UNL     1      44.552   3.866   9.180  0.00  0.00    +0.000 A 
ATOM     21  C   UNL     1      45.522   4.309   8.273  0.00  0.00    +0.000 A 
ATOM     22  C   UNL     1      46.370   3.396   7.641  0.00  0.00    +0.000 A 
ATOM     23  C   UNL     1      46.231   2.052   7.954  0.00  0.00    +0.000 A 
ATOM     24  N   UNL     1      45.323   1.572   8.841  0.00  0.00    +0.000 NA
ATOM     25  C   UNL     1      44.531   2.496   9.438  0.00  0.00    +0.000 A 
BRANCH  23  26
ATOM     26  C   UNL     1      47.115   1.031   7.313  0.00  0.00    +0.000 C 
ATOM     27  N   UNL     1      46.831  -0.266   7.661  0.00  0.00    +0.000 N 
ATOM     28  O   UNL     1      48.019   1.315   6.541  0.00  0.00    +0.000 OA
ATOM     29  H   UNL     1      46.081  -0.448   8.319  0.00  0.00    +0.000 HD
ATOM     30  H   UNL     1      47.388  -1.017   7.286  0.00  0.00    +0.000 HD
ENDBRANCH  23  26
ENDBRANCH  18  20
ENDBRANCH   1  18
TORSDOF 6
ENDMDL
MODEL 2
REMARK VINA RESULT:    -8.777      3.154      4.437
REMARK INTER + INTRA:         -12.006
REMARK INTER:                 -11.066
REMARK INTRA:                  -0.940
REMARK UNBOUND:                -0.151
REMARK  Name = 
REMARK  7 active torsions:
REMARK  status: ('A' for Active; 'I' for Inactive)
REMARK    1  A    between atoms: C_1  and  O_2
REMARK    2  A    between atoms: O_2  and  C_3
REMARK    3  A    between atoms: C_6  and  C_7
REMARK    4  A    between atoms: C_11  and  C_12
REMARK    5  A    between atoms: C_12  and  N_13
REMARK    6  A    between atoms: N_13  and  C_14
REMARK    7  A    between atoms: C_17  and  C_18
REMARK                            x       y       z     vdW  Elec       q    Type
REMARK                         _______ _______ _______ _____ _____    ______ ____
ROOT
ATOM      1  C   UNL     1      43.807   5.036  11.314  0.00  0.00    +0.000 C 
ATOM      2  C   UNL     1      43.059   6.332  11.044  0.00  0.00    +0.000 C 
ATOM      3  C   UNL     1      42.522   5.381  12.060  0.00  0.00    +0.000 C 
ENDROOT
BRANCH   1   8
ATOM      4  C   UNL     1      47.094   6.318  12.568  0.00  0.00    +0.000 A 
ATOM      5  C   UNL     1      47.534   5.315  13.429  0.00  0.00    +0.000 A 
ATOM      6  C   UNL     1      46.735   4.199  13.630  0.00  0.00    +0.000 A 
ATOM      7  C   UNL     1      45.522   4.106  12.959  0.00  0.00    +0.000 A 
ATOM      8  C   UNL     1      45.125   5.127  12.094  0.00  0.00    +0.000 A 
ATOM      9  N   UNL     1      45.907   6.227  11.918  0.00  0.00    +0.000 NA
BRANCH   4  13
ATOM     10  C   UNL     1      49.311   9.757  11.663  0.00  0.00    +0.000 A 
ATOM     11  N   UNL     1      47.991   9.901  11.833  0.00  0.00    +0.000 NA
ATOM     12  C   UNL     1      47.313   8.774  12.150  0.00  0.00    +0.000 A 
ATOM     13  C   UNL     1      47.880   7.517  12.272  0.00  0.00    +0.000 A 
ATOM     14  C   UNL     1      49.249   7.515  12.078  0.00  0.00    +0.000 A 
ATOM     15  N   UNL     1      49.986   8.603  11.772  0.00  0.00    +0.000 NA
BRANCH  10  17
ATOM     16  C   UNL     1      51.144  10.603  10.531  0.00  0.00    +0.000 C 
ATOM     17  O   UNL     1      49.983  10.901  11.296  0.00  0.00    +0.000 OA
ENDBRANCH  10  17
ENDBRANCH   4  13
ENDBRANCH   1   8
BRANCH   1  18
ATOM     18  N   UNL     1      43.703   3.858  10.420  0.00  0.00    +0.000 N 
ATOM     19  H   UNL     1      43.266   3.046  10.854  0.00  0.00    +0.000 HD
BRANCH  18  20
ATOM     20  C   UNL     1      44.692   3.506   9.482  0.00  0.00    +0.000 A 
ATOM     21  C   UNL     1      45.064   2.163   9.348  0.00  0.00    +0.000 A 
ATOM     22  C   UNL     1      45.972   1.774   8.361  0.00  0.00    +0.000 A 
ATOM     23  C   UNL     1      46.473   2.752   7.515  0.00  0.00    +0.000 A 
ATOM     24  N   UNL     1      46.132   4.063   7.587  0.00  0.00    +0.000 NA
ATOM     25  C   UNL     1      45.238   4.390   8.553  0.00  0.00    +0.000 A 
BRANCH  23  26
ATOM     26  C   UNL     1      47.444   2.393   6.435  0.00  0.00    +0.000 C 
ATOM     27  N   UNL     1      47.333   3.149   5.295  0.00  0.00    +0.000 N 
ATOM     28  O   UNL     1      48.273   1.502   6.548  0.00  0.00    +0.000 OA
ATOM     29  H   UNL     1      46.617   3.866   5.246  0.00  0.00    +0.000 HD
ATOM     30  H   UNL     1      47.939   2.965   4.512  0.00  0.00    +0.000 HD
ENDBRANCH  23  26
ENDBRANCH  18  20
ENDBRANCH   1  18
TORSDOF 6
ENDMDL
MODEL 3
REMARK VINA RESULT:    -8.245      1.546      7.723
REMARK INTER + INTRA:         -11.288
REMARK INTER:                 -10.517
REMARK INTRA:                  -0.771
REMARK UNBOUND:                -0.151
REMARK  Name = 
REMARK  7 active torsions:
REMARK  status: ('A' for Active; 'I' for Inactive)
REMARK    1  A    between atoms: C_1  and  O_2
REMARK    2  A    between atoms: O_2  and  C_3
REMARK    3  A    between atoms: C_6  and  C_7
REMARK    4  A    between atoms: C_11  and  C_12
REMARK    5  A    between atoms: C_12  and  N_13
REMARK    6  A    between atoms: N_13  and  C_14
REMARK    7  A    between atoms: C_17  and  C_18
REMARK                            x       y       z     vdW  Elec       q    Type
REMARK                         _______ _______ _______ _____ _____    ______ ____
ROOT
ATOM      1  C   UNL     1      46.219   7.323  12.454  0.00  0.00    +0.000 C 
ATOM      2  C   UNL     1      45.666   8.557  13.146  0.00  0.00    +0.000 C 
ATOM      3  C   UNL     1      46.387   8.713  11.850  0.00  0.00    +0.000 C 
ENDROOT
BRANCH   1   8
ATOM      4  C   UNL     1      44.804   4.685  10.204  0.00  0.00    +0.000 A 
ATOM      5  C   UNL     1      43.444   4.685  10.508  0.00  0.00    +0.000 A 
ATOM      6  C   UNL     1      42.971   5.548  11.487  0.00  0.00    +0.000 A 
ATOM      7  C   UNL     1      43.864   6.396  12.129  0.00  0.00    +0.000 A 
ATOM      8  C   UNL     1      45.216   6.374  11.784  0.00  0.00    +0.000 A 
ATOM      9  N   UNL     1      45.675   5.511  10.837  0.00  0.00    +0.000 NA
BRANCH   4  13
ATOM     10  C   UNL     1      46.525   2.221   7.283  0.00  0.00    +0.000 A 
ATOM     11  N   UNL     1      45.961   1.624   8.340  0.00  0.00    +0.000 NA
ATOM     12  C   UNL     1      45.393   2.450   9.248  0.00  0.00    +0.000 A 
ATOM     13  C   UNL     1      45.390   3.832   9.168  0.00  0.00    +0.000 A 
ATOM     14  C   UNL     1      45.999   4.314   8.024  0.00  0.00    +0.000 A 
ATOM     15  N   UNL     1      46.573   3.546   7.075  0.00  0.00    +0.000 NA
BRANCH  10  17
ATOM     16  C   UNL     1      47.944   2.088   5.460  0.00  0.00    +0.000 C 
ATOM     17  O   UNL     1      47.140   1.374   6.390  0.00  0.00    +0.000 OA
ENDBRANCH  10  17
ENDBRANCH   4  13
ENDBRANCH   1   8
BRANCH   1  18
ATOM     18  N   UNL     1      47.486   6.676  12.874  0.00  0.00    +0.000 N 
ATOM     19  H   UNL     1      48.094   6.414  12.100  0.00  0.00    +0.000 HD
BRANCH  18  20
ATOM     20  C   UNL     1      47.581   5.790  13.963  0.00  0.00    +0.000 A 
ATOM     21  C   UNL     1      48.220   6.209  15.136  0.00  0.00    +0.000 A 
ATOM     22  C   UNL     1      48.245   5.385  16.263  0.00  0.00    +0.000 A 
ATOM     23  C   UNL     1      47.604   4.157  16.187  0.00  0.00    +0.000 A 
ATOM     24  N   UNL     1      46.953   3.710  15.083  0.00  0.00    +0.000 NA
ATOM     25  C   UNL     1      46.946   4.550  14.019  0.00  0.00    +0.000 A 
BRANCH  23  26
ATOM     26  C   UNL     1      47.593   3.235  17.365  0.00  0.00    +0.000 C 
ATOM     27  N   UNL     1      48.785   3.162  18.041  0.00  0.00    +0.000 N 
ATOM     28  O   UNL     1      46.610   2.596  17.707  0.00  0.00    +0.000 OA
ATOM     29  H   UNL     1      49.577   3.700  17.707  0.00  0.00    +0.000 HD
ATOM     30  H   UNL     1      48.870   2.553  18.839  0.00  0.00    +0.000 HD
ENDBRANCH  23  26
ENDBRANCH  18  20
ENDBRANCH   1  18
TORSDOF 6
ENDMDL
MODEL 4
REMARK VINA RESULT:    -7.407      3.178      8.330
REMARK INTER + INTRA:         -10.156
REMARK INTER:                  -9.670
REMARK INTRA:                  -0.486
REMARK UNBOUND:                -0.151
REMARK  Name = 
REMARK  7 active torsions:
REMARK  status: ('A' for Active; 'I' for Inactive)
REMARK    1  A    between atoms: C_1  and  O_2
REMARK    2  A    between atoms: O_2  and  C_3
REMARK    3  A    between atoms: C_6  and  C_7
REMARK    4  A    between atoms: C_11  and  C_12
REMARK    5  A    between atoms: C_12  and  N_13
REMARK    6  A    between atoms: N_13  and  C_14
REMARK    7  A    between atoms: C_17  and  C_18
REMARK                            x       y       z     vdW  Elec       q    Type
REMARK                         _______ _______ _______ _____ _____    ______ ____
ROOT
ATOM      1  C   UNL     1      48.317   4.825  17.225  0.00  0.00    +0.000 C 
ATOM      2  C   UNL     1      47.264   3.767  17.508  0.00  0.00    +0.000 C 
ATOM      3  C   UNL     1      47.174   5.084  18.202  0.00  0.00    +0.000 C 
ENDROOT
BRANCH   1   8
ATOM      4  C   UNL     1      47.324   5.681  13.718  0.00  0.00    +0.000 A 
ATOM      5  C   UNL     1      48.162   6.743  13.386  0.00  0.00    +0.000 A 
ATOM      6  C   UNL     1      49.061   7.214  14.331  0.00  0.00    +0.000 A 
ATOM      7  C   UNL     1      49.110   6.607  15.580  0.00  0.00    +0.000 A 
ATOM      8  C   UNL     1      48.263   5.536  15.867  0.00  0.00    +0.000 A 
ATOM      9  N   UNL     1      47.370   5.093  14.940  0.00  0.00    +0.000 NA
BRANCH   4  13
ATOM     10  C   UNL     1      44.622   3.966  11.012  0.00  0.00    +0.000 A 
ATOM     11  N   UNL     1      45.034   3.209  12.036  0.00  0.00    +0.000 NA
ATOM     12  C   UNL     1      45.885   3.805  12.902  0.00  0.00    +0.000 A 
ATOM     13  C   UNL     1      46.364   5.098  12.778  0.00  0.00    +0.000 A 
ATOM     14  C   UNL     1      45.852   5.767  11.681  0.00  0.00    +0.000 A 
ATOM     15  N   UNL     1      44.993   5.236  10.787  0.00  0.00    +0.000 NA
BRANCH  10  17
ATOM     16  C   UNL     1      44.505   2.394   9.317  0.00  0.00    +0.000 C 
ATOM     17  O   UNL     1      43.794   3.335  10.111  0.00  0.00    +0.000 OA
ENDBRANCH  10  17
ENDBRANCH   4  13
ENDBRANCH   1   8
BRANCH   1  18
ATOM     18  N   UNL     1      49.663   4.792  17.846  0.00  0.00    +0.000 N 
ATOM     19  H   UNL     1      50.133   5.696  17.864  0.00  0.00    +0.000 HD
BRANCH  18  20
ATOM     20  C   UNL     1      50.560   3.717  17.700  0.00  0.00    +0.000 A 
ATOM     21  C   UNL     1      51.877   3.855  18.152  0.00  0.00    +0.000 A 
ATOM     22  C   UNL     1      52.759   2.774  18.105  0.00  0.00    +0.000 A 
ATOM     23  C   UNL     1      52.284   1.565  17.619  0.00  0.00    +0.000 A 
ATOM     24  N   UNL     1      51.012   1.370  17.187  0.00  0.00    +0.000 NA
ATOM     25  C   UNL     1      50.190   2.446  17.262  0.00  0.00    +0.000 A 
BRANCH  23  26
ATOM     26  C   UNL     1      53.182   0.371  17.551  0.00  0.00    +0.000 C 
ATOM     27  N   UNL     1      52.918  -0.594  18.492  0.00  0.00    +0.000 N 
ATOM     28  O   UNL     1      54.079   0.252  16.731  0.00  0.00    +0.000 OA
ATOM     29  H   UNL     1      52.173  -0.439  19.162  0.00  0.00    +0.000 HD
ATOM     30  H   UNL     1      53.485  -1.425  18.527  0.00  0.00    +0.000 HD
ENDBRANCH  23  26
ENDBRANCH  18  20
ENDBRANCH   1  18
TORSDOF 6
ENDMDL
MODEL 5
REMARK VINA RESULT:    -7.386      2.822      4.697
REMARK INTER + INTRA:         -10.127
REMARK INTER:                  -9.347
REMARK INTRA:                  -0.780
REMARK UNBOUND:                -0.151
REMARK  Name = 
REMARK  7 active torsions:
REMARK  status: ('A' for Active; 'I' for Inactive)
REMARK    1  A    between atoms: C_1  and  O_2
REMARK    2  A    between atoms: O_2  and  C_3
REMARK    3  A    between atoms: C_6  and  C_7
REMARK    4  A    between atoms: C_11  and  C_12
REMARK    5  A    between atoms: C_12  and  N_13
REMARK    6  A    between atoms: N_13  and  C_14
REMARK    7  A    between atoms: C_17  and  C_18
REMARK                            x       y       z     vdW  Elec       q    Type
REMARK                         _______ _______ _______ _____ _____    ______ ____
ROOT
ATOM      1  C   UNL     1      47.773   7.703  13.409  0.00  0.00    +0.000 C 
ATOM      2  C   UNL     1      48.724   7.365  12.273  0.00  0.00    +0.000 C 
ATOM      3  C   UNL     1      48.405   8.795  12.553  0.00  0.00    +0.000 C 
ENDROOT
BRANCH   1   8
ATOM      4  C   UNL     1      49.201   6.132  16.494  0.00  0.00    +0.000 A 
ATOM      5  C   UNL     1      49.189   7.165  17.427  0.00  0.00    +0.000 A 
ATOM      6  C   UNL     1      48.728   8.417  17.044  0.00  0.00    +0.000 A 
ATOM      7  C   UNL     1      48.279   8.602  15.743  0.00  0.00    +0.000 A 
ATOM      8  C   UNL     1      48.293   7.536  14.843  0.00  0.00    +0.000 A 
ATOM      9  N   UNL     1      48.766   6.317  15.222  0.00  0.00    +0.000 NA
BRANCH   4  13
ATOM     10  C   UNL     1      50.512   2.248  17.364  0.00  0.00    +0.000 A 
ATOM     11  N   UNL     1      51.350   3.257  17.634  0.00  0.00    +0.000 NA
ATOM     12  C   UNL     1      50.882   4.497  17.364  0.00  0.00    +0.000 A 
ATOM     13  C   UNL     1      49.642   4.773  16.813  0.00  0.00    +0.000 A 
ATOM     14  C   UNL     1      48.879   3.640  16.593  0.00  0.00    +0.000 A 
ATOM     15  N   UNL     1      49.280   2.378  16.850  0.00  0.00    +0.000 NA
BRANCH  10  17
ATOM     16  C   UNL     1      52.438   0.992  17.632  0.00  0.00    +0.000 C 
ATOM     17  O   UNL     1      51.017   0.989  17.599  0.00  0.00    +0.000 OA
ENDBRANCH  10  17
ENDBRANCH   4  13
ENDBRANCH   1   8
BRANCH   1  18
ATOM     18  N   UNL     1      46.301   7.588  13.274  0.00  0.00    +0.000 N 
ATOM     19  H   UNL     1      45.780   8.044  14.022  0.00  0.00    +0.000 HD
BRANCH  18  20
ATOM     20  C   UNL     1      45.653   6.439  12.784  0.00  0.00    +0.000 A 
ATOM     21  C   UNL     1      45.093   6.461  11.502  0.00  0.00    +0.000 A 
ATOM     22  C   UNL     1      44.529   5.306  10.954  0.00  0.00    +0.000 A 
ATOM     23  C   UNL     1      44.561   4.144  11.710  0.00  0.00    +0.000 A 
ATOM     24  N   UNL     1      45.109   4.062  12.949  0.00  0.00    +0.000 NA
ATOM     25  C   UNL     1      45.655   5.205  13.433  0.00  0.00    +0.000 A 
BRANCH  23  26
ATOM     26  C   UNL     1      43.978   2.876  11.173  0.00  0.00    +0.000 C 
ATOM     27  N   UNL     1      44.643   2.358  10.090  0.00  0.00    +0.000 N 
ATOM     28  O   UNL     1      42.992   2.336  11.651  0.00  0.00    +0.000 OA
ATOM     29  H   UNL     1      45.447   2.854   9.720  0.00  0.00    +0.000 HD
ATOM     30  H   UNL     1      44.308   1.513   9.656  0.00  0.00    +0.000 HD
ENDBRANCH  23  26
ENDBRANCH  18  20
ENDBRANCH   1  18
TORSDOF 6
ENDMDL
MODEL 6
REMARK VINA RESULT:    -7.154      1.994      2.781
REMARK INTER + INTRA:          -9.814
REMARK INTER:                  -9.522
REMARK INTRA:                  -0.292
REMARK UNBOUND:                -0.151
REMARK  Name = 
REMARK  7 active torsions:
REMARK  status: ('A' for Active; 'I' for Inactive)
REMARK    1  A    between atoms: C_1  and  O_2
REMARK    2  A    between atoms: O_2  and  C_3
REMARK    3  A    between atoms: C_6  and  C_7
REMARK    4  A    between atoms: C_11  and  C_12
REMARK    5  A    between atoms: C_12  and  N_13
REMARK    6  A    between atoms: N_13  and  C_14
REMARK    7  A    between atoms: C_17  and  C_18
REMARK                            x       y       z     vdW  Elec       q    Type
REMARK                         _______ _______ _______ _____ _____    ______ ____
ROOT
ATOM      1  C   UNL     1      44.690   5.857  11.060  0.00  0.00    +0.000 C 
ATOM      2  C   UNL     1      45.051   7.283  10.677  0.00  0.00    +0.000 C 
ATOM      3  C   UNL     1      43.822   7.036  11.486  0.00  0.00    +0.000 C 
ENDROOT
BRANCH   1   8
ATOM      4  C   UNL     1      47.247   5.341  13.747  0.00  0.00    +0.000 A 
ATOM      5  C   UNL     1      47.135   3.988  14.055  0.00  0.00    +0.000 A 
ATOM      6  C   UNL     1      46.189   3.220  13.391  0.00  0.00    +0.000 A 
ATOM      7  C   UNL     1      45.386   3.819  12.429  0.00  0.00    +0.000 A 
ATOM      8  C   UNL     1      45.541   5.175  12.140  0.00  0.00    +0.000 A 
ATOM      9  N   UNL     1      46.458   5.926  12.810  0.00  0.00    +0.000 NA
BRANCH   4  13
ATOM     10  C   UNL     1      50.023   7.891  15.578  0.00  0.00    +0.000 A 
ATOM     11  N   UNL     1      49.427   6.973  16.348  0.00  0.00    +0.000 NA
ATOM     12  C   UNL     1      48.558   6.152  15.717  0.00  0.00    +0.000 A 
ATOM     13  C   UNL     1      48.233   6.224  14.373  0.00  0.00    +0.000 A 
ATOM     14  C   UNL     1      48.927   7.211  13.697  0.00  0.00    +0.000 A 
ATOM     15  N   UNL     1      49.815   8.055  14.262  0.00  0.00    +0.000 NA
BRANCH  10  17
ATOM     16  C   UNL     1      52.094   8.115  16.589  0.00  0.00    +0.000 C 
ATOM     17  O   UNL     1      50.871   8.751  16.239  0.00  0.00    +0.000 OA
ENDBRANCH  10  17
ENDBRANCH   4  13
ENDBRANCH   1   8
BRANCH   1  18
ATOM     18  N   UNL     1      44.038   4.920  10.112  0.00  0.00    +0.000 N 
ATOM     19  H   UNL     1      43.141   4.563  10.436  0.00  0.00    +0.000 HD
BRANCH  18  20
ATOM     20  C   UNL     1      44.745   3.985   9.334  0.00  0.00    +0.000 A 
ATOM     21  C   UNL     1      45.718   4.438   8.434  0.00  0.00    +0.000 A 
ATOM     22  C   UNL     1      46.500   3.528   7.719  0.00  0.00    +0.000 A 
ATOM     23  C   UNL     1      46.295   2.175   7.944  0.00  0.00    +0.000 A 
ATOM     24  N   UNL     1      45.381   1.682   8.819  0.00  0.00    +0.000 NA
ATOM     25  C   UNL     1      44.655   2.604   9.498  0.00  0.00    +0.000 A 
BRANCH  23  26
ATOM     26  C   UNL     1      47.107   1.155   7.212  0.00  0.00    +0.000 C 
ATOM     27  N   UNL     1      46.848  -0.144   7.572  0.00  0.00    +0.000 N 
ATOM     28  O   UNL     1      47.936   1.442   6.361  0.00  0.00    +0.000 OA
ATOM     29  H   UNL     1      46.163  -0.329   8.296  0.00  0.00    +0.000 HD
ATOM     30  H   UNL     1      47.362  -0.895   7.138  0.00  0.00    +0.000 HD
ENDBRANCH  23  26
ENDBRANCH  18  20
ENDBRANCH   1  18
TORSDOF 6
ENDMDL
MODEL 7
REMARK VINA RESULT:    -7.000      2.225      2.801
REMARK INTER + INTRA:          -9.606
REMARK INTER:                  -8.871
REMARK INTRA:                  -0.736
REMARK UNBOUND:                -0.151
REMARK  Name = 
REMARK  7 active torsions:
REMARK  status: ('A' for Active; 'I' for Inactive)
REMARK    1  A    between atoms: C_1  and  O_2
REMARK    2  A    between atoms: O_2  and  C_3
REMARK    3  A    between atoms: C_6  and  C_7
REMARK    4  A    between atoms: C_11  and  C_12
REMARK    5  A    between atoms: C_12  and  N_13
REMARK    6  A    between atoms: N_13  and  C_14
REMARK    7  A    between atoms: C_17  and  C_18
REMARK                            x       y       z     vdW  Elec       q    Type
REMARK                         _______ _______ _______ _____ _____    ______ ____
ROOT
ATOM      1  C   UNL     1      43.820   5.385  11.908  0.00  0.00    +0.000 C 
ATOM      2  C   UNL     1      42.363   5.520  11.496  0.00  0.00    +0.000 C 
ATOM      3  C   UNL     1      42.689   5.158  12.906  0.00  0.00    +0.000 C 
ENDROOT
BRANCH   1   8
ATOM      4  C   UNL     1      46.482   7.782  12.996  0.00  0.00    +0.000 A 
ATOM      5  C   UNL     1      46.124   8.978  12.378  0.00  0.00    +0.000 A 
ATOM      6  C   UNL     1      45.000   9.008  11.565  0.00  0.00    +0.000 A 
ATOM      7  C   UNL     1      44.255   7.847  11.399  0.00  0.00    +0.000 A 
ATOM      8  C   UNL     1      44.641   6.673  12.048  0.00  0.00    +0.000 A 
ATOM      9  N   UNL     1      45.756   6.648  12.827  0.00  0.00    +0.000 NA
BRANCH   4  13
ATOM     10  C   UNL     1      49.740   7.398  15.604  0.00  0.00    +0.000 A 
ATOM     11  N   UNL     1      49.258   6.280  15.051  0.00  0.00    +0.000 NA
ATOM     12  C   UNL     1      48.224   6.446  14.195  0.00  0.00    +0.000 A 
ATOM     13  C   UNL     1      47.633   7.661  13.893  0.00  0.00    +0.000 A 
ATOM     14  C   UNL     1      48.235   8.732  14.528  0.00  0.00    +0.000 A 
ATOM     15  N   UNL     1      49.275   8.637  15.383  0.00  0.00    +0.000 NA
BRANCH  10  17
ATOM     16  C   UNL     1      50.741   5.901  17.058  0.00  0.00    +0.000 C 
ATOM     17  O   UNL     1      50.761   7.212  16.508  0.00  0.00    +0.000 OA
ENDBRANCH  10  17
ENDBRANCH   4  13
ENDBRANCH   1   8
BRANCH   1  18
ATOM     18  N   UNL     1      44.623   4.176  11.601  0.00  0.00    +0.000 N 
ATOM     19  H   UNL     1      45.231   3.880  12.362  0.00  0.00    +0.000 HD
BRANCH  18  20
ATOM     20  C   UNL     1      45.173   3.911  10.332  0.00  0.00    +0.000 A 
ATOM     21  C   UNL     1      45.207   2.593   9.862  0.00  0.00    +0.000 A 
ATOM     22  C   UNL     1      45.659   2.313   8.571  0.00  0.00    +0.000 A 
ATOM     23  C   UNL     1      46.049   3.378   7.771  0.00  0.00    +0.000 A 
ATOM     24  N   UNL     1      46.016   4.675   8.170  0.00  0.00    +0.000 NA
ATOM     25  C   UNL     1      45.560   4.897   9.426  0.00  0.00    +0.000 A 
BRANCH  23  26
ATOM     26  C   UNL     1      46.535   3.139   6.378  0.00  0.00    +0.000 C 
ATOM     27  N   UNL     1      46.783   1.822   6.079  0.00  0.00    +0.000 N 
ATOM     28  O   UNL     1      46.702   4.034   5.563  0.00  0.00    +0.000 OA
ATOM     29  H   UNL     1      46.645   1.119   6.796  0.00  0.00    +0.000 HD
ATOM     30  H   UNL     1      47.128   1.573   5.166  0.00  0.00    +0.000 HD
ENDBRANCH  23  26
ENDBRANCH  18  20
ENDBRANCH   1  18
TORSDOF 6
ENDMDL
MODEL 8
REMARK VINA RESULT:    -6.991      2.105      7.597
REMARK INTER + INTRA:          -9.594
REMARK INTER:                  -9.071
REMARK INTRA:                  -0.523
REMARK UNBOUND:                -0.151
REMARK  Name = 
REMARK  7 active torsions:
REMARK  status: ('A' for Active; 'I' for Inactive)
REMARK    1  A    between atoms: C_1  and  O_2
REMARK    2  A    between atoms: O_2  and  C_3
REMARK    3  A    between atoms: C_6  and  C_7
REMARK    4  A    between atoms: C_11  and  C_12
REMARK    5  A    between atoms: C_12  and  N_13
REMARK    6  A    between atoms: N_13  and  C_14
REMARK    7  A    between atoms: C_17  and  C_18
REMARK                            x       y       z     vdW  Elec       q    Type
REMARK                         _______ _______ _______ _____ _____    ______ ____
ROOT
ATOM      1  C   UNL     1      48.047   8.426  13.203  0.00  0.00    +0.000 C 
ATOM      2  C   UNL     1      48.270   9.706  13.992  0.00  0.00    +0.000 C 
ATOM      3  C   UNL     1      48.964   9.529  12.683  0.00  0.00    +0.000 C 
ENDROOT
BRANCH   1   8
ATOM      4  C   UNL     1      45.233   6.868  11.288  0.00  0.00    +0.000 A 
ATOM      5  C   UNL     1      44.287   7.886  11.200  0.00  0.00    +0.000 A 
ATOM      6  C   UNL     1      44.555   9.109  11.798  0.00  0.00    +0.000 A 
ATOM      7  C   UNL     1      45.765   9.289  12.458  0.00  0.00    +0.000 A 
ATOM      8  C   UNL     1      46.691   8.247  12.510  0.00  0.00    +0.000 A 
ATOM      9  N   UNL     1      46.411   7.044  11.937  0.00  0.00    +0.000 NA
BRANCH   4  13
ATOM     10  C   UNL     1      44.742   3.082   9.558  0.00  0.00    +0.000 A 
ATOM     11  N   UNL     1      44.106   3.321  10.710  0.00  0.00    +0.000 NA
ATOM     12  C   UNL     1      44.267   4.561  11.225  0.00  0.00    +0.000 A 
ATOM     13  C   UNL     1      45.052   5.555  10.665  0.00  0.00    +0.000 A 
ATOM     14  C   UNL     1      45.644   5.175   9.474  0.00  0.00    +0.000 A 
ATOM     15  N   UNL     1      45.516   3.961   8.902  0.00  0.00    +0.000 NA
BRANCH  10  17
ATOM     16  C   UNL     1      45.770   1.390   8.359  0.00  0.00    +0.000 C 
ATOM     17  O   UNL     1      44.609   1.803   9.068  0.00  0.00    +0.000 OA
ENDBRANCH  10  17
ENDBRANCH   4  13
ENDBRANCH   1   8
BRANCH   1  18
ATOM     18  N   UNL     1      48.738   7.157  13.538  0.00  0.00    +0.000 N 
ATOM     19  H   UNL     1      49.076   6.644  12.726  0.00  0.00    +0.000 HD
BRANCH  18  20
ATOM     20  C   UNL     1      48.338   6.309  14.588  0.00  0.00    +0.000 A 
ATOM     21  C   UNL     1      47.471   5.244  14.318  0.00  0.00    +0.000 A 
ATOM     22  C   UNL     1      47.134   4.332  15.320  0.00  0.00    +0.000 A 
ATOM     23  C   UNL     1      47.698   4.506  16.576  0.00  0.00    +0.000 A 
ATOM     24  N   UNL     1      48.559   5.509  16.887  0.00  0.00    +0.000 NA
ATOM     25  C   UNL     1      48.865   6.361  15.878  0.00  0.00    +0.000 A 
BRANCH  23  26
ATOM     26  C   UNL     1      47.378   3.558  17.687  0.00  0.00    +0.000 C 
ATOM     27  N   UNL     1      48.130   3.736  18.821  0.00  0.00    +0.000 N 
ATOM     28  O   UNL     1      46.521   2.692  17.604  0.00  0.00    +0.000 OA
ATOM     29  H   UNL     1      48.842   4.459  18.834  0.00  0.00    +0.000 HD
ATOM     30  H   UNL     1      47.990   3.130  19.613  0.00  0.00    +0.000 HD
ENDBRANCH  23  26
ENDBRANCH  18  20
ENDBRANCH   1  18
TORSDOF 6
ENDMDL
MODEL 9
REMARK VINA RESULT:    -6.876      3.317      7.858
REMARK INTER + INTRA:          -9.438
REMARK INTER:                  -8.698
REMARK INTRA:                  -0.740
REMARK UNBOUND:                -0.151
REMARK  Name = 
REMARK  7 active torsions:
REMARK  status: ('A' for Active; 'I' for Inactive)
REMARK    1  A    between atoms: C_1  and  O_2
REMARK    2  A    between atoms: O_2  and  C_3
REMARK    3  A    between atoms: C_6  and  C_7
REMARK    4  A    between atoms: C_11  and  C_12
REMARK    5  A    between atoms: C_12  and  N_13
REMARK    6  A    between atoms: N_13  and  C_14
REMARK    7  A    between atoms: C_17  and  C_18
REMARK                            x       y       z     vdW  Elec       q    Type
REMARK                         _______ _______ _______ _____ _____    ______ ____
ROOT
ATOM      1  C   UNL     1      49.123   8.595  16.869  0.00  0.00    +0.000 C 
ATOM      2  C   UNL     1      47.920   9.425  17.288  0.00  0.00    +0.000 C 
ATOM      3  C   UNL     1      49.241  10.096  17.116  0.00  0.00    +0.000 C 
ENDROOT
BRANCH   1   8
ATOM      4  C   UNL     1      48.264   6.770  13.715  0.00  0.00    +0.000 A 
ATOM      5  C   UNL     1      49.261   7.160  12.824  0.00  0.00    +0.000 A 
ATOM      6  C   UNL     1      50.230   8.059  13.247  0.00  0.00    +0.000 A 
ATOM      7  C   UNL     1      50.186   8.537  14.550  0.00  0.00    +0.000 A 
ATOM      8  C   UNL     1      49.178   8.109  15.415  0.00  0.00    +0.000 A 
ATOM      9  N   UNL     1      48.220   7.242  14.986  0.00  0.00    +0.000 NA
BRANCH   4  13
ATOM     10  C   UNL     1      45.317   3.963  12.714  0.00  0.00    +0.000 A 
ATOM     11  N   UNL     1      46.084   3.699  13.778  0.00  0.00    +0.000 NA
ATOM     12  C   UNL     1      47.006   4.639  14.085  0.00  0.00    +0.000 A 
ATOM     13  C   UNL     1      47.218   5.805  13.369  0.00  0.00    +0.000 A 
ATOM     14  C   UNL     1      46.352   5.954  12.301  0.00  0.00    +0.000 A 
ATOM     15  N   UNL     1      45.404   5.061  11.947  0.00  0.00    +0.000 NA
BRANCH  10  17
ATOM     16  C   UNL     1      43.328   3.496  11.625  0.00  0.00    +0.000 C 
ATOM     17  O   UNL     1      44.414   2.978  12.383  0.00  0.00    +0.000 OA
ENDBRANCH  10  17
ENDBRANCH   4  13
ENDBRANCH   1   8
BRANCH   1  18
ATOM     18  N   UNL     1      49.879   7.751  17.826  0.00  0.00    +0.000 N 
ATOM     19  H   UNL     1      50.736   8.181  18.169  0.00  0.00    +0.000 HD
BRANCH  18  20
ATOM     20  C   UNL     1      49.979   6.352  17.716  0.00  0.00    +0.000 A 
ATOM     21  C   UNL     1      48.824   5.570  17.823  0.00  0.00    +0.000 A 
ATOM     22  C   UNL     1      48.881   4.189  17.622  0.00  0.00    +0.000 A 
ATOM     23  C   UNL     1      50.107   3.628  17.298  0.00  0.00    +0.000 A 
ATOM     24  N   UNL     1      51.253   4.341  17.161  0.00  0.00    +0.000 NA
ATOM     25  C   UNL     1      51.146   5.679  17.354  0.00  0.00    +0.000 A 
BRANCH  23  26
ATOM     26  C   UNL     1      50.227   2.155  17.066  0.00  0.00    +0.000 C 
ATOM     27  N   UNL     1      51.102   1.516  17.908  0.00  0.00    +0.000 N 
ATOM     28  O   UNL     1      49.603   1.559  16.201  0.00  0.00    +0.000 OA
ATOM     29  H   UNL     1      51.608   2.059  18.599  0.00  0.00    +0.000 HD
ATOM     30  H   UNL     1      51.255   0.525  17.812  0.00  0.00    +0.000 HD
ENDBRANCH  23  26
ENDBRANCH  18  20
ENDBRANCH   1  18
TORSDOF 6
ENDMDL
