MODEL 1
REMARK VINA RESULT:    -9.080      0.000      0.000
REMARK INTER + INTRA:         -12.450
REMARK INTER:                 -12.264
REMARK INTRA:                  -0.185
REMARK UNBOUND:                -0.185
REMARK  Name = 
REMARK  6 active torsions:
REMARK  status: ('A' for Active; 'I' for Inactive)
REMARK    1  A    between atoms: C_2  and  C_5
REMARK    2  A    between atoms: C_9  and  N_10
REMARK    3  A    between atoms: N_10  and  C_11
REMARK    4  A    between atoms: C_11  and  C_12
REMARK    5  A    between atoms: C_16  and  C_17
REMARK    6  A    between atoms: C_21  and  C_22
REMARK                            x       y       z     vdW  Elec       q    Type
REMARK                         _______ _______ _______ _____ _____    ______ ____
ROOT
ATOM      1  C   UNL     1      44.312   4.840  11.989  0.00  0.00    +0.000 A 
ATOM      2  C   UNL     1      44.253   6.105  11.407  0.00  0.00    +0.000 A 
ATOM      3  C   UNL     1      45.100   7.090  11.891  0.00  0.00    +0.000 A 
ATOM      4  N   UNL     1      45.996   6.899  12.886  0.00  0.00    +0.000 NA
ATOM      5  C   UNL     1      46.083   5.659  13.428  0.00  0.00    +0.000 A 
ATOM      6  C   UNL     1      45.255   4.620  13.000  0.00  0.00    +0.000 A 
ENDROOT
BRANCH   5   7
ATOM      7  C   UNL     1      47.086   5.481  14.498  0.00  0.00    +0.000 A 
ATOM      8  C   UNL     1      48.037   6.470  14.782  0.00  0.00    +0.000 A 
ATOM      9  C   UNL     1      48.981   6.248  15.768  0.00  0.00    +0.000 A 
ATOM     10  N   UNL     1      49.049   5.117  16.495  0.00  0.00    +0.000 NA
ATOM     11  C   UNL     1      48.120   4.149  16.250  0.00  0.00    +0.000 A 
ATOM     12  C   UNL     1      47.135   4.307  15.270  0.00  0.00    +0.000 A 
BRANCH  11  13
ATOM     13  C   UNL     1      48.171   2.855  17.051  0.00  0.00    +0.000 C 
ATOM     14  F   UNL     1      46.967   2.462  17.559  0.00  0.00    +0.000 F 
ATOM     15  F   UNL     1      48.623   1.799  16.315  0.00  0.00    +0.000 F 
ATOM     16  F   UNL     1      49.013   2.938  18.124  0.00  0.00    +0.000 F 
ENDBRANCH  11  13
ENDBRANCH   5   7
BRANCH   1  17
ATOM     17  C   UNL     1      43.382   3.730  11.569  0.00  0.00    +0.000 C 
BRANCH  17  18
ATOM     18  N   UNL     1      44.129   2.648  10.951  0.00  0.00    +0.000 N 
ATOM     19  H   UNL     1      44.733   2.145  11.599  0.00  0.00    +0.000 HD
BRANCH  18  24
ATOM     20  C   UNL     1      46.184   2.172   7.858  0.00  0.00    +0.000 A 
ATOM     21  C   UNL     1      45.974   3.417   7.291  0.00  0.00    +0.000 A 
ATOM     22  N   UNL     1      45.199   4.367   7.852  0.00  0.00    +0.000 NA
ATOM     23  C   UNL     1      44.607   4.055   9.035  0.00  0.00    +0.000 A 
ATOM     24  C   UNL     1      44.715   2.828   9.696  0.00  0.00    +0.000 A 
ATOM     25  C   UNL     1      45.553   1.894   9.083  0.00  0.00    +0.000 A 
BRANCH  20  27
ATOM     26  F   UNL     1      46.948  -0.094   7.710  0.00  0.00    +0.000 F 
ATOM     27  C   UNL     1      47.057   1.157   7.189  0.00  0.00    +0.000 C 
ATOM     28  F   UNL     1      48.379   1.480   7.267  0.00  0.00    +0.000 F 
ATOM     29  F   UNL     1      46.787   1.034   5.859  0.00  0.00    +0.000 F 
ENDBRANCH  20  27
ENDBRANCH  18  24
ENDBRANCH  17  18
ENDBRANCH   1  17
TORSDOF 6
ENDMDL
MODEL 2
REMARK VINA RESULT:    -8.808      3.409      4.466
REMARK INTER + INTRA:         -12.084
REMARK INTER:                 -11.375
REMARK INTRA:                  -0.708
REMARK UNBOUND:                -0.185
REMARK  Name = 
REMARK  6 active torsions:
REMARK  status: ('A' for Active; 'I' for Inactive)
REMARK    1  A    between atoms: C_2  and  C_5
REMARK    2  A    between atoms: C_9  and  N_10
REMARK    3  A    between atoms: N_10  and  C_11
REMARK    4  A    between atoms: C_11  and  C_12
REMARK    5  A    between atoms: C_16  and  C_17
REMARK    6  A    between atoms: C_21  and  C_22
REMARK                            x       y       z     vdW  Elec       q    Type
REMARK                         _______ _______ _______ _____ _____    ______ ____
ROOT
ATOM      1  C   UNL     1      44.779   4.084  12.269  0.00  0.00    +0.000 A 
ATOM      2  C   UNL     1      45.657   3.279  12.993  0.00  0.00    +0.000 A 
ATOM      3  C   UNL     1      46.827   3.848  13.469  0.00  0.00    +0.000 A 
ATOM      4  N   UNL     1      47.168   5.144  13.292  0.00  0.00    +0.000 NA
ATOM      5  C   UNL     1      46.298   5.940  12.623  0.00  0.00    +0.000 A 
ATOM      6  C   UNL     1      45.104   5.436  12.104  0.00  0.00    +0.000 A 
ENDROOT
BRANCH   5   7
ATOM      7  C   UNL     1      46.693   7.355  12.465  0.00  0.00    +0.000 A 
ATOM      8  C   UNL     1      45.767   8.395  12.619  0.00  0.00    +0.000 A 
ATOM      9  C   UNL     1      46.170   9.703  12.427  0.00  0.00    +0.000 A 
ATOM     10  N   UNL     1      47.427  10.057  12.096  0.00  0.00    +0.000 NA
ATOM     11  C   UNL     1      48.349   9.062  11.961  0.00  0.00    +0.000 A 
ATOM     12  C   UNL     1      48.012   7.717  12.143  0.00  0.00    +0.000 A 
BRANCH  11  13
ATOM     13  C   UNL     1      49.779   9.425  11.582  0.00  0.00    +0.000 C 
ATOM     14  F   UNL     1      49.879  10.430  10.665  0.00  0.00    +0.000 F 
ATOM     15  F   UNL     1      50.521   9.828  12.653  0.00  0.00    +0.000 F 
ATOM     16  F   UNL     1      50.460   8.369  11.044  0.00  0.00    +0.000 F 
ENDBRANCH  11  13
ENDBRANCH   5   7
BRANCH   1  17
ATOM     17  C   UNL     1      43.515   3.532  11.658  0.00  0.00    +0.000 C 
BRANCH  17  18
ATOM     18  N   UNL     1      43.828   2.455  10.734  0.00  0.00    +0.000 N 
ATOM     19  H   UNL     1      44.123   1.594  11.191  0.00  0.00    +0.000 HD
BRANCH  18  24
ATOM     20  C   UNL     1      46.184   2.168   7.837  0.00  0.00    +0.000 A 
ATOM     21  C   UNL     1      46.072   3.465   7.366  0.00  0.00    +0.000 A 
ATOM     22  N   UNL     1      45.271   4.393   7.928  0.00  0.00    +0.000 NA
ATOM     23  C   UNL     1      44.548   4.003   9.010  0.00  0.00    +0.000 A 
ATOM     24  C   UNL     1      44.549   2.720   9.566  0.00  0.00    +0.000 A 
ATOM     25  C   UNL     1      45.420   1.811   8.961  0.00  0.00    +0.000 A 
BRANCH  20  27
ATOM     26  F   UNL     1      47.011  -0.075   7.686  0.00  0.00    +0.000 F 
ATOM     27  C   UNL     1      47.093   1.183   7.173  0.00  0.00    +0.000 C 
ATOM     28  F   UNL     1      48.404   1.542   7.270  0.00  0.00    +0.000 F 
ATOM     29  F   UNL     1      46.843   1.061   5.839  0.00  0.00    +0.000 F 
ENDBRANCH  20  27
ENDBRANCH  18  24
ENDBRANCH  17  18
ENDBRANCH   1  17
TORSDOF 6
ENDMDL
MODEL 3
REMARK VINA RESULT:    -8.744      1.312      1.772
REMARK INTER + INTRA:         -11.996
REMARK INTER:                 -11.118
REMARK INTRA:                  -0.878
REMARK UNBOUND:                -0.185
REMARK  Name = 
REMARK  6 active torsions:
REMARK  status: ('A' for Active; 'I' for Inactive)
REMARK    1  A    between atoms: C_2  and  C_5
REMARK    2  A    between atoms: C_9  and  N_10
REMARK    3  A    between atoms: N_10  and  C_11
REMARK    4  A    between atoms: C_11  and  C_12
REMARK    5  A    between atoms: C_16  and  C_17
REMARK    6  A    between atoms: C_21  and  C_22
REMARK                            x       y       z     vdW  Elec       q    Type
REMARK                         _______ _______ _______ _____ _____    ______ ____
ROOT
ATOM      1  C   UNL     1      45.554   5.855  11.922  0.00  0.00    +0.000 A 
ATOM      2  C   UNL     1      46.346   6.637  11.083  0.00  0.00    +0.000 A 
ATOM      3  C   UNL     1      47.557   7.103  11.570  0.00  0.00    +0.000 A 
ATOM      4  N   UNL     1      48.031   6.835  12.808  0.00  0.00    +0.000 NA
ATOM      5  C   UNL     1      47.281   6.041  13.612  0.00  0.00    +0.000 A 
ATOM      6  C   UNL     1      46.046   5.544  13.195  0.00  0.00    +0.000 A 
ENDROOT
BRANCH   5   7
ATOM      7  C   UNL     1      47.839   5.752  14.950  0.00  0.00    +0.000 A 
ATOM      8  C   UNL     1      48.611   6.695  15.641  0.00  0.00    +0.000 A 
ATOM      9  C   UNL     1      49.144   6.370  16.875  0.00  0.00    +0.000 A 
ATOM     10  N   UNL     1      48.965   5.178  17.475  0.00  0.00    +0.000 NA
ATOM     11  C   UNL     1      48.201   4.252  16.830  0.00  0.00    +0.000 A 
ATOM     12  C   UNL     1      47.627   4.514  15.581  0.00  0.00    +0.000 A 
BRANCH  11  13
ATOM     13  C   UNL     1      47.982   2.892  17.477  0.00  0.00    +0.000 C 
ATOM     14  F   UNL     1      46.671   2.544  17.624  0.00  0.00    +0.000 F 
ATOM     15  F   UNL     1      48.556   1.875  16.772  0.00  0.00    +0.000 F 
ATOM     16  F   UNL     1      48.524   2.817  18.730  0.00  0.00    +0.000 F 
ENDBRANCH  11  13
ENDBRANCH   5   7
BRANCH   1  17
ATOM     17  C   UNL     1      44.194   5.362  11.496  0.00  0.00    +0.000 C 
BRANCH  17  18
ATOM     18  N   UNL     1      44.145   5.189  10.055  0.00  0.00    +0.000 N 
ATOM     19  H   UNL     1      43.254   5.457   9.639  0.00  0.00    +0.000 HD
BRANCH  18  24
ATOM     20  C   UNL     1      45.998   2.878   7.764  0.00  0.00    +0.000 A 
ATOM     21  C   UNL     1      45.532   1.680   8.277  0.00  0.00    +0.000 A 
ATOM     22  N   UNL     1      44.679   1.600   9.319  0.00  0.00    +0.000 NA
ATOM     23  C   UNL     1      44.275   2.774   9.871  0.00  0.00    +0.000 A 
ATOM     24  C   UNL     1      44.692   4.046   9.467  0.00  0.00    +0.000 A 
ATOM     25  C   UNL     1      45.552   4.067   8.366  0.00  0.00    +0.000 A 
BRANCH  20  27
ATOM     26  F   UNL     1      48.255   2.914   6.963  0.00  0.00    +0.000 F 
ATOM     27  C   UNL     1      46.943   2.904   6.605  0.00  0.00    +0.000 C 
ATOM     28  F   UNL     1      46.763   4.001   5.816  0.00  0.00    +0.000 F 
ATOM     29  F   UNL     1      46.787   1.829   5.781  0.00  0.00    +0.000 F 
ENDBRANCH  20  27
ENDBRANCH  18  24
ENDBRANCH  17  18
ENDBRANCH   1  17
TORSDOF 6
ENDMDL
MODEL 4
REMARK VINA RESULT:    -8.708      3.830      5.239
REMARK INTER + INTRA:         -11.948
REMARK INTER:                 -11.419
REMARK INTRA:                  -0.529
REMARK UNBOUND:                -0.185
REMARK  Name = 
REMARK  6 active torsions:
REMARK  status: ('A' for Active; 'I' for Inactive)
REMARK    1  A    between atoms: C_2  and  C_5
REMARK    2  A    between atoms: C_9  and  N_10
REMARK    3  A    between atoms: N_10  and  C_11
REMARK    4  A    between atoms: C_11  and  C_12
REMARK    5  A    between atoms: C_16  and  C_17
REMARK    6  A    between atoms: C_21  and  C_22
REMARK                            x       y       z     vdW  Elec       q    Type
REMARK                         _______ _______ _______ _____ _____    ______ ____
ROOT
ATOM      1  C   UNL     1      44.691   3.932  12.215  0.00  0.00    +0.000 A 
ATOM      2  C   UNL     1      45.706   3.318  12.949  0.00  0.00    +0.000 A 
ATOM      3  C   UNL     1      46.749   4.105  13.409  0.00  0.00    +0.000 A 
ATOM      4  N   UNL     1      46.841   5.439  13.207  0.00  0.00    +0.000 NA
ATOM      5  C   UNL     1      45.836   6.045  12.528  0.00  0.00    +0.000 A 
ATOM      6  C   UNL     1      44.758   5.317  12.024  0.00  0.00    +0.000 A 
ENDROOT
BRANCH   5   7
ATOM      7  C   UNL     1      45.959   7.506  12.343  0.00  0.00    +0.000 A 
ATOM      8  C   UNL     1      47.076   8.212  12.809  0.00  0.00    +0.000 A 
ATOM      9  C   UNL     1      47.134   9.584  12.647  0.00  0.00    +0.000 A 
ATOM     10  N   UNL     1      46.166  10.308  12.054  0.00  0.00    +0.000 NA
ATOM     11  C   UNL     1      45.079   9.639  11.575  0.00  0.00    +0.000 A 
ATOM     12  C   UNL     1      44.955   8.252  11.701  0.00  0.00    +0.000 A 
BRANCH  11  13
ATOM     13  C   UNL     1      43.962  10.427  10.903  0.00  0.00    +0.000 C 
ATOM     14  F   UNL     1      44.394  11.351   9.997  0.00  0.00    +0.000 F 
ATOM     15  F   UNL     1      43.088   9.627  10.227  0.00  0.00    +0.000 F 
ATOM     16  F   UNL     1      43.201  11.121  11.800  0.00  0.00    +0.000 F 
ENDBRANCH  11  13
ENDBRANCH   5   7
BRANCH   1  17
ATOM     17  C   UNL     1      43.553   3.141  11.620  0.00  0.00    +0.000 C 
BRANCH  17  18
ATOM     18  N   UNL     1      44.058   2.155  10.680  0.00  0.00    +0.000 N 
ATOM     19  H   UNL     1      44.530   1.369  11.124  0.00  0.00    +0.000 HD
BRANCH  18  24
ATOM     20  C   UNL     1      46.251   2.282   7.648  0.00  0.00    +0.000 A 
ATOM     21  C   UNL     1      46.016   3.598   7.292  0.00  0.00    +0.000 A 
ATOM     22  N   UNL     1      45.183   4.413   7.971  0.00  0.00    +0.000 NA
ATOM     23  C   UNL     1      44.557   3.884   9.055  0.00  0.00    +0.000 A 
ATOM     24  C   UNL     1      44.686   2.566   9.502  0.00  0.00    +0.000 A 
ATOM     25  C   UNL     1      45.584   1.778   8.777  0.00  0.00    +0.000 A 
BRANCH  20  27
ATOM     26  F   UNL     1      47.229   1.731   5.531  0.00  0.00    +0.000 F 
ATOM     27  C   UNL     1      47.189   1.425   6.857  0.00  0.00    +0.000 C 
ATOM     28  F   UNL     1      46.864   0.104   6.925  0.00  0.00    +0.000 F 
ATOM     29  F   UNL     1      48.474   1.512   7.301  0.00  0.00    +0.000 F 
ENDBRANCH  20  27
ENDBRANCH  18  24
ENDBRANCH  17  18
ENDBRANCH   1  17
TORSDOF 6
ENDMDL
MODEL 5
REMARK VINA RESULT:    -8.658      3.640      4.759
REMARK INTER + INTRA:         -11.880
REMARK INTER:                 -10.850
REMARK INTRA:                  -1.030
REMARK UNBOUND:                -0.185
REMARK  Name = 
REMARK  6 active torsions:
REMARK  status: ('A' for Active; 'I' for Inactive)
REMARK    1  A    between atoms: C_2  and  C_5
REMARK    2  A    between atoms: C_9  and  N_10
REMARK    3  A    between atoms: N_10  and  C_11
REMARK    4  A    between atoms: C_11  and  C_12
REMARK    5  A    between atoms: C_16  and  C_17
REMARK    6  A    between atoms: C_21  and  C_22
REMARK                            x       y       z     vdW  Elec       q    Type
REMARK                         _______ _______ _______ _____ _____    ______ ____
ROOT
ATOM      1  C   UNL     1      44.981   5.443  12.067  0.00  0.00    +0.000 A 
ATOM      2  C   UNL     1      45.373   4.567  13.077  0.00  0.00    +0.000 A 
ATOM      3  C   UNL     1      46.606   4.768  13.678  0.00  0.00    +0.000 A 
ATOM      4  N   UNL     1      47.452   5.772  13.357  0.00  0.00    +0.000 NA
ATOM      5  C   UNL     1      47.056   6.650  12.402  0.00  0.00    +0.000 A 
ATOM      6  C   UNL     1      45.833   6.506  11.745  0.00  0.00    +0.000 A 
ENDROOT
BRANCH   5   7
ATOM      7  C   UNL     1      47.997   7.747  12.090  0.00  0.00    +0.000 A 
ATOM      8  C   UNL     1      47.597   9.089  12.140  0.00  0.00    +0.000 A 
ATOM      9  C   UNL     1      48.499  10.083  11.807  0.00  0.00    +0.000 A 
ATOM     10  N   UNL     1      49.769   9.843  11.429  0.00  0.00    +0.000 NA
ATOM     11  C   UNL     1      50.185   8.545  11.393  0.00  0.00    +0.000 A 
ATOM     12  C   UNL     1      49.328   7.490  11.721  0.00  0.00    +0.000 A 
BRANCH  11  13
ATOM     13  C   UNL     1      51.613   8.238  10.965  0.00  0.00    +0.000 C 
ATOM     14  F   UNL     1      52.177   9.188  10.164  0.00  0.00    +0.000 F 
ATOM     15  F   UNL     1      52.461   8.098  12.025  0.00  0.00    +0.000 F 
ATOM     16  F   UNL     1      51.708   7.066  10.267  0.00  0.00    +0.000 F 
ENDBRANCH  11  13
ENDBRANCH   5   7
BRANCH   1  17
ATOM     17  C   UNL     1      43.686   5.260  11.315  0.00  0.00    +0.000 C 
BRANCH  17  18
ATOM     18  N   UNL     1      43.938   5.152   9.889  0.00  0.00    +0.000 N 
ATOM     19  H   UNL     1      43.159   5.460   9.310  0.00  0.00    +0.000 HD
BRANCH  18  24
ATOM     20  C   UNL     1      45.992   2.866   7.750  0.00  0.00    +0.000 A 
ATOM     21  C   UNL     1      45.618   1.667   8.331  0.00  0.00    +0.000 A 
ATOM     22  N   UNL     1      44.764   1.581   9.371  0.00  0.00    +0.000 NA
ATOM     23  C   UNL     1      44.263   2.749   9.850  0.00  0.00    +0.000 A 
ATOM     24  C   UNL     1      44.581   4.024   9.373  0.00  0.00    +0.000 A 
ATOM     25  C   UNL     1      45.447   4.049   8.277  0.00  0.00    +0.000 A 
BRANCH  20  27
ATOM     26  F   UNL     1      48.254   2.873   6.961  0.00  0.00    +0.000 F 
ATOM     27  C   UNL     1      46.944   2.899   6.596  0.00  0.00    +0.000 C 
ATOM     28  F   UNL     1      46.791   4.017   5.832  0.00  0.00    +0.000 F 
ATOM     29  F   UNL     1      46.771   1.847   5.747  0.00  0.00    +0.000 F 
ENDBRANCH  20  27
ENDBRANCH  18  24
ENDBRANCH  17  18
ENDBRANCH   1  17
TORSDOF 6
ENDMDL
MODEL 6
REMARK VINA RESULT:    -8.475      1.921      2.744
REMARK INTER + INTRA:         -11.633
REMARK INTER:                 -10.709
REMARK INTRA:                  -0.924
REMARK UNBOUND:                -0.185
REMARK  Name = 
REMARK  6 active torsions:
REMARK  status: ('A' for Active; 'I' for Inactive)
REMARK    1  A    between atoms: C_2  and  C_5
REMARK    2  A    between atoms: C_9  and  N_10
REMARK    3  A    between atoms: N_10  and  C_11
REMARK    4  A    between atoms: C_11  and  C_12
REMARK    5  A    between atoms: C_16  and  C_17
REMARK    6  A    between atoms: C_21  and  C_22
REMARK                            x       y       z     vdW  Elec       q    Type
REMARK                         _______ _______ _______ _____ _____    ______ ____
ROOT
ATOM      1  C   UNL     1      46.246   6.282  12.082  0.00  0.00    +0.000 A 
ATOM      2  C   UNL     1      47.334   6.974  11.551  0.00  0.00    +0.000 A 
ATOM      3  C   UNL     1      48.484   7.075  12.318  0.00  0.00    +0.000 A 
ATOM      4  N   UNL     1      48.627   6.531  13.548  0.00  0.00    +0.000 NA
ATOM      5  C   UNL     1      47.585   5.824  14.050  0.00  0.00    +0.000 A 
ATOM      6  C   UNL     1      46.391   5.687  13.341  0.00  0.00    +0.000 A 
ENDROOT
BRANCH   5   7
ATOM      7  C   UNL     1      47.784   5.226  15.387  0.00  0.00    +0.000 A 
ATOM      8  C   UNL     1      47.121   4.052  15.769  0.00  0.00    +0.000 A 
ATOM      9  C   UNL     1      47.307   3.546  17.042  0.00  0.00    +0.000 A 
ATOM     10  N   UNL     1      48.105   4.118  17.964  0.00  0.00    +0.000 NA
ATOM     11  C   UNL     1      48.775   5.250  17.607  0.00  0.00    +0.000 A 
ATOM     12  C   UNL     1      48.637   5.815  16.335  0.00  0.00    +0.000 A 
BRANCH  11  13
ATOM     13  C   UNL     1      49.682   5.925  18.626  0.00  0.00    +0.000 C 
ATOM     14  F   UNL     1      49.171   7.073  19.159  0.00  0.00    +0.000 F 
ATOM     15  F   UNL     1      49.970   5.121  19.690  0.00  0.00    +0.000 F 
ATOM     16  F   UNL     1      50.893   6.275  18.097  0.00  0.00    +0.000 F 
ENDBRANCH  11  13
ENDBRANCH   5   7
BRANCH   1  17
ATOM     17  C   UNL     1      44.934   6.179  11.344  0.00  0.00    +0.000 C 
BRANCH  17  18
ATOM     18  N   UNL     1      45.163   5.879   9.942  0.00  0.00    +0.000 N 
ATOM     19  H   UNL     1      44.613   6.452   9.304  0.00  0.00    +0.000 HD
BRANCH  18  24
ATOM     20  C   UNL     1      46.015   2.804   7.981  0.00  0.00    +0.000 A 
ATOM     21  C   UNL     1      45.219   1.907   8.671  0.00  0.00    +0.000 A 
ATOM     22  N   UNL     1      44.454   2.252   9.727  0.00  0.00    +0.000 NA
ATOM     23  C   UNL     1      44.490   3.555  10.109  0.00  0.00    +0.000 A 
ATOM     24  C   UNL     1      45.271   4.552   9.517  0.00  0.00    +0.000 A 
ATOM     25  C   UNL     1      46.019   4.143   8.411  0.00  0.00    +0.000 A 
BRANCH  20  27
ATOM     26  F   UNL     1      46.852   1.016   6.625  0.00  0.00    +0.000 F 
ATOM     27  C   UNL     1      46.842   2.363   6.815  0.00  0.00    +0.000 C 
ATOM     28  F   UNL     1      48.147   2.734   6.937  0.00  0.00    +0.000 F 
ATOM     29  F   UNL     1      46.415   2.904   5.639  0.00  0.00    +0.000 F 
ENDBRANCH  20  27
ENDBRANCH  18  24
ENDBRANCH  17  18
ENDBRANCH   1  17
TORSDOF 6
ENDMDL
MODEL 7
REMARK VINA RESULT:    -8.274      1.797      7.925
REMARK INTER + INTRA:         -11.362
REMARK INTER:                 -10.334
REMARK INTRA:                  -1.028
REMARK UNBOUND:                -0.185
REMARK  Name = 
REMARK  6 active torsions:
REMARK  status: ('A' for Active; 'I' for Inactive)
REMARK    1  A    between atoms: C_2  and  C_5
REMARK    2  A    between atoms: C_9  and  N_10
REMARK    3  A    between atoms: N_10  and  C_11
REMARK    4  A    between atoms: C_11  and  C_12
REMARK    5  A    between atoms: C_16  and  C_17
REMARK    6  A    between atoms: C_21  and  C_22
REMARK                            x       y       z     vdW  Elec       q    Type
REMARK                         _______ _______ _______ _____ _____    ______ ____
ROOT
ATOM      1  C   UNL     1      47.253   7.598  13.282  0.00  0.00    +0.000 A 
ATOM      2  C   UNL     1      46.612   8.780  12.913  0.00  0.00    +0.000 A 
ATOM      3  C   UNL     1      45.447   8.688  12.169  0.00  0.00    +0.000 A 
ATOM      4  N   UNL     1      44.878   7.521  11.788  0.00  0.00    +0.000 NA
ATOM      5  C   UNL     1      45.478   6.370  12.180  0.00  0.00    +0.000 A 
ATOM      6  C   UNL     1      46.660   6.383  12.922  0.00  0.00    +0.000 A 
ENDROOT
BRANCH   5   7
ATOM      7  C   UNL     1      44.819   5.114  11.765  0.00  0.00    +0.000 A 
ATOM      8  C   UNL     1      43.895   4.464  12.593  0.00  0.00    +0.000 A 
ATOM      9  C   UNL     1      43.328   3.272  12.181  0.00  0.00    +0.000 A 
ATOM     10  N   UNL     1      43.609   2.678  11.006  0.00  0.00    +0.000 NA
ATOM     11  C   UNL     1      44.491   3.304  10.175  0.00  0.00    +0.000 A 
ATOM     12  C   UNL     1      45.099   4.513  10.525  0.00  0.00    +0.000 A 
BRANCH  11  13
ATOM     13  C   UNL     1      44.835   2.658   8.840  0.00  0.00    +0.000 C 
ATOM     14  F   UNL     1      46.170   2.625   8.560  0.00  0.00    +0.000 F 
ATOM     15  F   UNL     1      44.409   1.364   8.756  0.00  0.00    +0.000 F 
ATOM     16  F   UNL     1      44.255   3.301   7.784  0.00  0.00    +0.000 F 
ENDBRANCH  11  13
ENDBRANCH   5   7
BRANCH   1  17
ATOM     17  C   UNL     1      48.561   7.607  14.035  0.00  0.00    +0.000 C 
BRANCH  17  18
ATOM     18  N   UNL     1      48.323   7.722  15.463  0.00  0.00    +0.000 N 
ATOM     19  H   UNL     1      48.568   8.632  15.848  0.00  0.00    +0.000 HD
BRANCH  18  24
ATOM     20  C   UNL     1      48.576   4.337  17.046  0.00  0.00    +0.000 A 
ATOM     21  C   UNL     1      49.217   4.716  18.212  0.00  0.00    +0.000 A 
ATOM     22  N   UNL     1      49.575   5.987  18.484  0.00  0.00    +0.000 NA
ATOM     23  C   UNL     1      49.276   6.922  17.544  0.00  0.00    +0.000 A 
ATOM     24  C   UNL     1      48.658   6.668  16.317  0.00  0.00    +0.000 A 
ATOM     25  C   UNL     1      48.285   5.339  16.103  0.00  0.00    +0.000 A 
BRANCH  20  27
ATOM     26  F   UNL     1      47.179   2.465  17.580  0.00  0.00    +0.000 F 
ATOM     27  C   UNL     1      48.202   2.910  16.800  0.00  0.00    +0.000 C 
ATOM     28  F   UNL     1      49.241   2.058  17.025  0.00  0.00    +0.000 F 
ATOM     29  F   UNL     1      47.816   2.687  15.512  0.00  0.00    +0.000 F 
ENDBRANCH  20  27
ENDBRANCH  18  24
ENDBRANCH  17  18
ENDBRANCH   1  17
TORSDOF 6
ENDMDL
MODEL 8
REMARK VINA RESULT:    -8.181      1.782      2.986
REMARK INTER + INTRA:         -11.235
REMARK INTER:                 -10.233
REMARK INTRA:                  -1.002
REMARK UNBOUND:                -0.185
REMARK  Name = 
REMARK  6 active torsions:
REMARK  status: ('A' for Active; 'I' for Inactive)
REMARK    1  A    between atoms: C_2  and  C_5
REMARK    2  A    between atoms: C_9  and  N_10
REMARK    3  A    between atoms: N_10  and  C_11
REMARK    4  A    between atoms: C_11  and  C_12
REMARK    5  A    between atoms: C_16  and  C_17
REMARK    6  A    between atoms: C_21  and  C_22
REMARK                            x       y       z     vdW  Elec       q    Type
REMARK                         _______ _______ _______ _____ _____    ______ ____
ROOT
ATOM      1  C   UNL     1      46.982   7.249  12.335  0.00  0.00    +0.000 A 
ATOM      2  C   UNL     1      48.160   7.549  11.652  0.00  0.00    +0.000 A 
ATOM      3  C   UNL     1      49.360   7.438  12.336  0.00  0.00    +0.000 A 
ATOM      4  N   UNL     1      49.466   7.040  13.624  0.00  0.00    +0.000 NA
ATOM      5  C   UNL     1      48.325   6.709  14.278  0.00  0.00    +0.000 A 
ATOM      6  C   UNL     1      47.078   6.807  13.659  0.00  0.00    +0.000 A 
ENDROOT
BRANCH   5   7
ATOM      7  C   UNL     1      48.479   6.259  15.678  0.00  0.00    +0.000 A 
ATOM      8  C   UNL     1      48.949   7.123  16.676  0.00  0.00    +0.000 A 
ATOM      9  C   UNL     1      49.113   6.651  17.966  0.00  0.00    +0.000 A 
ATOM     10  N   UNL     1      48.843   5.385  18.338  0.00  0.00    +0.000 NA
ATOM     11  C   UNL     1      48.366   4.533  17.386  0.00  0.00    +0.000 A 
ATOM     12  C   UNL     1      48.173   4.943  16.063  0.00  0.00    +0.000 A 
BRANCH  11  13
ATOM     13  C   UNL     1      48.056   3.093  17.771  0.00  0.00    +0.000 C 
ATOM     14  F   UNL     1      48.295   2.798  19.081  0.00  0.00    +0.000 F 
ATOM     15  F   UNL     1      46.751   2.759  17.550  0.00  0.00    +0.000 F 
ATOM     16  F   UNL     1      48.789   2.191  17.052  0.00  0.00    +0.000 F 
ENDBRANCH  11  13
ENDBRANCH   5   7
BRANCH   1  17
ATOM     17  C   UNL     1      45.628   7.408  11.688  0.00  0.00    +0.000 C 
BRANCH  17  18
ATOM     18  N   UNL     1      44.733   6.347  12.118  0.00  0.00    +0.000 N 
ATOM     19  H   UNL     1      44.754   6.175  13.122  0.00  0.00    +0.000 HD
BRANCH  18  24
ATOM     20  C   UNL     1      45.064   3.786   9.407  0.00  0.00    +0.000 A 
ATOM     21  C   UNL     1      44.158   2.863   9.899  0.00  0.00    +0.000 A 
ATOM     22  N   UNL     1      43.479   3.031  11.053  0.00  0.00    +0.000 NA
ATOM     23  C   UNL     1      43.721   4.176  11.744  0.00  0.00    +0.000 A 
ATOM     24  C   UNL     1      44.629   5.171  11.371  0.00  0.00    +0.000 A 
ATOM     25  C   UNL     1      45.280   4.956  10.154  0.00  0.00    +0.000 A 
BRANCH  20  27
ATOM     26  F   UNL     1      44.973   3.505   7.029  0.00  0.00    +0.000 F 
ATOM     27  C   UNL     1      45.786   3.545   8.119  0.00  0.00    +0.000 C 
ATOM     28  F   UNL     1      46.466   2.364   8.121  0.00  0.00    +0.000 F 
ATOM     29  F   UNL     1      46.717   4.505   7.856  0.00  0.00    +0.000 F 
ENDBRANCH  20  27
ENDBRANCH  18  24
ENDBRANCH  17  18
ENDBRANCH   1  17
TORSDOF 6
ENDMDL
MODEL 9
REMARK VINA RESULT:    -8.076      3.577      4.441
REMARK INTER + INTRA:         -11.094
REMARK INTER:                 -10.167
REMARK INTRA:                  -0.927
REMARK UNBOUND:                -0.185
REMARK  Name = 
REMARK  6 active torsions:
REMARK  status: ('A' for Active; 'I' for Inactive)
REMARK    1  A    between atoms: C_2  and  C_5
REMARK    2  A    between atoms: C_9  and  N_10
REMARK    3  A    between atoms: N_10  and  C_11
REMARK    4  A    between atoms: C_11  and  C_12
REMARK    5  A    between atoms: C_16  and  C_17
REMARK    6  A    between atoms: C_21  and  C_22
REMARK                            x       y       z     vdW  Elec       q    Type
REMARK                         _______ _______ _______ _____ _____    ______ ____
ROOT
ATOM      1  C   UNL     1      45.589   5.655  12.193  0.00  0.00    +0.000 A 
ATOM      2  C   UNL     1      45.718   4.652  13.153  0.00  0.00    +0.000 A 
ATOM      3  C   UNL     1      46.880   4.613  13.908  0.00  0.00    +0.000 A 
ATOM      4  N   UNL     1      47.895   5.498  13.785  0.00  0.00    +0.000 NA
ATOM      5  C   UNL     1      47.755   6.497  12.880  0.00  0.00    +0.000 A 
ATOM      6  C   UNL     1      46.618   6.595  12.076  0.00  0.00    +0.000 A 
ENDROOT
BRANCH   5   7
ATOM      7  C   UNL     1      48.875   7.457  12.786  0.00  0.00    +0.000 A 
ATOM      8  C   UNL     1      49.739   7.468  11.684  0.00  0.00    +0.000 A 
ATOM      9  C   UNL     1      50.796   8.359  11.653  0.00  0.00    +0.000 A 
ATOM     10  N   UNL     1      51.057   9.243  12.635  0.00  0.00    +0.000 NA
ATOM     11  C   UNL     1      50.216   9.264  13.708  0.00  0.00    +0.000 A 
ATOM     12  C   UNL     1      49.126   8.394  13.804  0.00  0.00    +0.000 A 
BRANCH  11  13
ATOM     13  C   UNL     1      50.484  10.247  14.839  0.00  0.00    +0.000 C 
ATOM     14  F   UNL     1      51.387  11.223  14.532  0.00  0.00    +0.000 F 
ATOM     15  F   UNL     1      49.358  10.901  15.245  0.00  0.00    +0.000 F 
ATOM     16  F   UNL     1      50.973   9.634  15.958  0.00  0.00    +0.000 F 
ENDBRANCH  11  13
ENDBRANCH   5   7
BRANCH   1  17
ATOM     17  C   UNL     1      44.388   5.732  11.283  0.00  0.00    +0.000 C 
BRANCH  17  18
ATOM     18  N   UNL     1      44.788   5.547   9.899  0.00  0.00    +0.000 N 
ATOM     19  H   UNL     1      44.258   6.115   9.240  0.00  0.00    +0.000 HD
BRANCH  18  24
ATOM     20  C   UNL     1      46.068   2.697   7.835  0.00  0.00    +0.000 A 
ATOM     21  C   UNL     1      45.331   1.684   8.424  0.00  0.00    +0.000 A 
ATOM     22  N   UNL     1      44.475   1.886   9.446  0.00  0.00    +0.000 NA
ATOM     23  C   UNL     1      44.352   3.161   9.899  0.00  0.00    +0.000 A 
ATOM     24  C   UNL     1      45.058   4.265   9.412  0.00  0.00    +0.000 A 
ATOM     25  C   UNL     1      45.907   4.000   8.335  0.00  0.00    +0.000 A 
BRANCH  20  27
ATOM     26  F   UNL     1      48.266   2.874   6.900  0.00  0.00    +0.000 F 
ATOM     27  C   UNL     1      47.002   2.412   6.702  0.00  0.00    +0.000 C 
ATOM     28  F   UNL     1      46.580   2.968   5.532  0.00  0.00    +0.000 F 
ATOM     29  F   UNL     1      47.126   1.078   6.451  0.00  0.00    +0.000 F 
ENDBRANCH  20  27
ENDBRANCH  18  24
ENDBRANCH  17  18
ENDBRANCH   1  17
TORSDOF 6
ENDMDL
