MODEL 1
REMARK VINA RESULT:    -9.315      0.000      0.000
REMARK INTER + INTRA:         -11.586
REMARK INTER:                 -10.948
REMARK INTRA:                  -0.638
REMARK UNBOUND:                -0.638
REMARK  Name = 
REMARK  5 active torsions:
REMARK  status: ('A' for Active; 'I' for Inactive)
REMARK    1  A    between atoms: C_1  and  C_2
REMARK    2  A    between atoms: C_9  and  C_10
REMARK    3  A    between atoms: C_10  and  N_11
REMARK    4  A    between atoms: C_15  and  C_16
REMARK    5  A    between atoms: C_25  and  C_26
REMARK                            x       y       z     vdW  Elec       q    Type
REMARK                         _______ _______ _______ _____ _____    ______ ____
ROOT
ATOM      1  C   UNL     1      44.047   4.853  11.424  0.00  0.00    +0.000 C 
ATOM      2  C   UNL     1      43.301   6.163  11.273  0.00  0.00    +0.000 C 
ATOM      3  C   UNL     1      42.628   5.045  11.988  0.00  0.00    +0.000 C 
ENDROOT
BRANCH   1  12
ATOM      4  C   UNL     1      49.545   7.316  11.828  0.00  0.00    +0.000 C 
ATOM      5  C   UNL     1      49.262   8.326  12.945  0.00  0.00    +0.000 C 
ATOM      6  C   UNL     1      48.541   7.691  14.168  0.00  0.00    +0.000 C 
ATOM      7  N   UNL     1      47.116   7.474  13.917  0.00  0.00    +0.000 N 
ATOM      8  C   UNL     1      46.707   6.196  13.588  0.00  0.00    +0.000 A 
ATOM      9  N   UNL     1      47.424   5.130  13.974  0.00  0.00    +0.000 NA
ATOM     10  C   UNL     1      46.972   3.916  13.609  0.00  0.00    +0.000 A 
ATOM     11  C   UNL     1      45.856   3.719  12.832  0.00  0.00    +0.000 A 
ATOM     12  C   UNL     1      45.187   4.859  12.447  0.00  0.00    +0.000 A 
ATOM     13  N   UNL     1      45.590   6.071  12.876  0.00  0.00    +0.000 NA
ATOM     14  C   UNL     1      46.391   8.603  13.312  0.00  0.00    +0.000 C 
ATOM     15  C   UNL     1      47.151   9.204  12.099  0.00  0.00    +0.000 C 
ATOM     16  C   UNL     1      46.464  10.488  11.630  0.00  0.00    +0.000 C 
ATOM     17  N   UNL     1      48.565   9.523  12.412  0.00  0.00    +0.000 NA
ATOM     18  H   UNL     1      48.565  10.230  13.149  0.00  0.00    +0.000 HD
ENDBRANCH   1  12
BRANCH   1  19
ATOM     19  N   UNL     1      44.076   3.742  10.467  0.00  0.00    +0.000 N 
ATOM     20  C   UNL     1      45.034   3.498   9.493  0.00  0.00    +0.000 A 
ATOM     21  C   UNL     1      45.662   4.484   8.742  0.00  0.00    +0.000 A 
ATOM     22  C   UNL     1      46.472   4.102   7.669  0.00  0.00    +0.000 A 
ATOM     23  C   UNL     1      46.630   2.749   7.373  0.00  0.00    +0.000 A 
ATOM     24  C   UNL     1      46.017   1.833   8.208  0.00  0.00    +0.000 A 
ATOM     25  N   UNL     1      45.217   2.181   9.242  0.00  0.00    +0.000 NA
ATOM     26  H   UNL     1      43.823   2.834  10.855  0.00  0.00    +0.000 HD
BRANCH  23  27
ATOM     27  C   UNL     1      47.419   2.316   6.203  0.00  0.00    +0.000 C 
ATOM     28  N   UNL     1      47.246   3.003   5.033  0.00  0.00    +0.000 N 
ATOM     29  O   UNL     1      48.233   1.406   6.287  0.00  0.00    +0.000 OA
ATOM     30  H   UNL     1      46.798   3.909   4.977  0.00  0.00    +0.000 HD
ATOM     31  H   UNL     1      47.878   2.759   4.277  0.00  0.00    +0.000 HD
ENDBRANCH  23  27
ENDBRANCH   1  19
TORSDOF 3
ENDMDL
MODEL 2
REMARK VINA RESULT:    -6.673      3.408      5.726
REMARK INTER + INTRA:          -8.481
REMARK INTER:                  -8.170
REMARK INTRA:                  -0.311
REMARK UNBOUND:                -0.638
REMARK  Name = 
REMARK  5 active torsions:
REMARK  status: ('A' for Active; 'I' for Inactive)
REMARK    1  A    between atoms: C_1  and  C_2
REMARK    2  A    between atoms: C_9  and  C_10
REMARK    3  A    between atoms: C_10  and  N_11
REMARK    4  A    between atoms: C_15  and  C_16
REMARK    5  A    between atoms: C_25  and  C_26
REMARK                            x       y       z     vdW  Elec       q    Type
REMARK                         _______ _______ _______ _____ _____    ______ ____
ROOT
ATOM      1  C   UNL     1      47.927   7.834  13.274  0.00  0.00    +0.000 C 
ATOM      2  C   UNL     1      47.974   8.718  12.044  0.00  0.00    +0.000 C 
ATOM      3  C   UNL     1      47.396   9.278  13.297  0.00  0.00    +0.000 C 
ENDROOT
BRANCH   1  12
ATOM      4  C   UNL     1      50.183   8.587  18.824  0.00  0.00    +0.000 C 
ATOM      5  C   UNL     1      50.341   7.113  19.209  0.00  0.00    +0.000 C 
ATOM      6  C   UNL     1      51.070   6.276  18.120  0.00  0.00    +0.000 C 
ATOM      7  N   UNL     1      50.193   5.953  16.994  0.00  0.00    +0.000 N 
ATOM      8  C   UNL     1      50.314   6.712  15.846  0.00  0.00    +0.000 A 
ATOM      9  N   UNL     1      51.466   7.335  15.558  0.00  0.00    +0.000 NA
ATOM     10  C   UNL     1      51.508   8.066  14.428  0.00  0.00    +0.000 A 
ATOM     11  C   UNL     1      50.432   8.241  13.593  0.00  0.00    +0.000 A 
ATOM     12  C   UNL     1      49.274   7.598  13.966  0.00  0.00    +0.000 A 
ATOM     13  N   UNL     1      49.249   6.801  15.052  0.00  0.00    +0.000 NA
ATOM     14  C   UNL     1      48.856   5.447  17.345  0.00  0.00    +0.000 C 
ATOM     15  C   UNL     1      48.171   6.313  18.437  0.00  0.00    +0.000 C 
ATOM     16  C   UNL     1      46.880   5.642  18.909  0.00  0.00    +0.000 C 
ATOM     17  N   UNL     1      49.039   6.531  19.620  0.00  0.00    +0.000 NA
ATOM     18  H   UNL     1      49.229   5.617  20.033  0.00  0.00    +0.000 HD
ENDBRANCH   1  12
BRANCH   1  19
ATOM     19  N   UNL     1      46.867   6.888  13.638  0.00  0.00    +0.000 N 
ATOM     20  C   UNL     1      46.318   5.894  12.840  0.00  0.00    +0.000 A 
ATOM     21  C   UNL     1      46.073   6.024  11.478  0.00  0.00    +0.000 A 
ATOM     22  C   UNL     1      45.351   5.022  10.825  0.00  0.00    +0.000 A 
ATOM     23  C   UNL     1      44.890   3.922  11.547  0.00  0.00    +0.000 A 
ATOM     24  C   UNL     1      45.230   3.844  12.885  0.00  0.00    +0.000 A 
ATOM     25  N   UNL     1      45.915   4.810  13.540  0.00  0.00    +0.000 NA
ATOM     26  H   UNL     1      46.946   6.494  14.575  0.00  0.00    +0.000 HD
BRANCH  23  27
ATOM     27  C   UNL     1      44.063   2.883  10.902  0.00  0.00    +0.000 C 
ATOM     28  N   UNL     1      44.563   2.283   9.779  0.00  0.00    +0.000 N 
ATOM     29  O   UNL     1      42.991   2.537  11.380  0.00  0.00    +0.000 OA
ATOM     30  H   UNL     1      45.534   2.336   9.501  0.00  0.00    +0.000 HD
ATOM     31  H   UNL     1      44.029   1.498   9.419  0.00  0.00    +0.000 HD
ENDBRANCH  23  27
ENDBRANCH   1  19
TORSDOF 3
ENDMDL
MODEL 3
REMARK VINA RESULT:    -6.637      3.526      6.097
REMARK INTER + INTRA:          -8.439
REMARK INTER:                  -8.730
REMARK INTRA:                   0.291
REMARK UNBOUND:                -0.638
REMARK  Name = 
REMARK  5 active torsions:
REMARK  status: ('A' for Active; 'I' for Inactive)
REMARK    1  A    between atoms: C_1  and  C_2
REMARK    2  A    between atoms: C_9  and  C_10
REMARK    3  A    between atoms: C_10  and  N_11
REMARK    4  A    between atoms: C_15  and  C_16
REMARK    5  A    between atoms: C_25  and  C_26
REMARK                            x       y       z     vdW  Elec       q    Type
REMARK                         _______ _______ _______ _____ _____    ______ ____
ROOT
ATOM      1  C   UNL     1      48.132   7.378  13.778  0.00  0.00    +0.000 C 
ATOM      2  C   UNL     1      48.496   8.035  12.462  0.00  0.00    +0.000 C 
ATOM      3  C   UNL     1      47.565   8.751  13.376  0.00  0.00    +0.000 C 
ENDROOT
BRANCH   1  12
ATOM      4  C   UNL     1      48.456   6.465  19.738  0.00  0.00    +0.000 C 
ATOM      5  C   UNL     1      49.232   5.144  19.726  0.00  0.00    +0.000 C 
ATOM      6  C   UNL     1      50.494   5.190  18.820  0.00  0.00    +0.000 C 
ATOM      7  N   UNL     1      50.159   5.080  17.400  0.00  0.00    +0.000 N 
ATOM      8  C   UNL     1      50.137   6.240  16.652  0.00  0.00    +0.000 A 
ATOM      9  N   UNL     1      50.864   7.305  17.022  0.00  0.00    +0.000 NA
ATOM     10  C   UNL     1      50.786   8.405  16.251  0.00  0.00    +0.000 A 
ATOM     11  C   UNL     1      49.974   8.508  15.148  0.00  0.00    +0.000 A 
ATOM     12  C   UNL     1      49.233   7.388  14.844  0.00  0.00    +0.000 A 
ATOM     13  N   UNL     1      49.368   6.258  15.565  0.00  0.00    +0.000 NA
ATOM     14  C   UNL     1      49.205   4.016  17.045  0.00  0.00    +0.000 C 
ATOM     15  C   UNL     1      47.964   4.009  17.979  0.00  0.00    +0.000 C 
ATOM     16  C   UNL     1      47.103   2.775  17.703  0.00  0.00    +0.000 C 
ATOM     17  N   UNL     1      48.330   4.005  19.416  0.00  0.00    +0.000 NA
ATOM     18  H   UNL     1      48.851   3.146  19.598  0.00  0.00    +0.000 HD
ENDBRANCH   1  12
BRANCH   1  19
ATOM     19  N   UNL     1      47.047   6.420  14.013  0.00  0.00    +0.000 N 
ATOM     20  C   UNL     1      46.417   5.617  13.072  0.00  0.00    +0.000 A 
ATOM     21  C   UNL     1      46.117   6.014  11.774  0.00  0.00    +0.000 A 
ATOM     22  C   UNL     1      45.321   5.182  10.983  0.00  0.00    +0.000 A 
ATOM     23  C   UNL     1      44.844   3.981  11.508  0.00  0.00    +0.000 A 
ATOM     24  C   UNL     1      45.239   3.638  12.787  0.00  0.00    +0.000 A 
ATOM     25  N   UNL     1      45.997   4.434  13.575  0.00  0.00    +0.000 NA
ATOM     26  H   UNL     1      47.151   5.852  14.853  0.00  0.00    +0.000 HD
BRANCH  23  27
ATOM     27  C   UNL     1      43.941   3.116  10.723  0.00  0.00    +0.000 C 
ATOM     28  N   UNL     1      44.168   3.020   9.378  0.00  0.00    +0.000 N 
ATOM     29  O   UNL     1      43.052   2.471  11.262  0.00  0.00    +0.000 OA
ATOM     30  H   UNL     1      45.029   3.310   8.933  0.00  0.00    +0.000 HD
ATOM     31  H   UNL     1      43.607   2.335   8.880  0.00  0.00    +0.000 HD
ENDBRANCH  23  27
ENDBRANCH   1  19
TORSDOF 3
ENDMDL
