MODEL 1
REMARK VINA RESULT:    -9.283      0.000      0.000
REMARK INTER + INTRA:         -12.620
REMARK INTER:                 -12.267
REMARK INTRA:                  -0.353
REMARK UNBOUND:                -0.353
REMARK  Name = 
REMARK  6 active torsions:
REMARK  status: ('A' for Active; 'I' for Inactive)
REMARK    1  A    between atoms: C_2  and  C_19
REMARK    2  A    between atoms: N_3  and  C_4
REMARK    3  A    between atoms: C_4  and  C_5
REMARK    4  A    between atoms: C_8  and  C_9
REMARK    5  A    between atoms: C_9  and  C_10
REMARK    6  A    between atoms: C_13  and  O_14
REMARK                            x       y       z     vdW  Elec       q    Type
REMARK                         _______ _______ _______ _____ _____    ______ ____
ROOT
ATOM      1  C   UNL     1      46.245   7.331  12.765  0.00  0.00    +0.000 C 
ENDROOT
BRANCH   1   2
ATOM      2  C   UNL     1      45.821   6.195  11.882  0.00  0.00    +0.000 A 
ATOM      3  C   UNL     1      45.184   5.069  12.400  0.00  0.00    +0.000 A 
ATOM      4  C   UNL     1      44.795   4.045  11.544  0.00  0.00    +0.000 A 
ATOM      5  C   UNL     1      45.043   4.165  10.173  0.00  0.00    +0.000 A 
ATOM      6  N   UNL     1      45.638   5.255   9.644  0.00  0.00    +0.000 NA
ATOM      7  C   UNL     1      46.011   6.238  10.504  0.00  0.00    +0.000 A 
BRANCH   5   8
ATOM      8  C   UNL     1      44.455   3.123   9.252  0.00  0.00    +0.000 C 
BRANCH   8   9
ATOM      9  C   UNL     1      45.234   2.676   7.996  0.00  0.00    +0.000 C 
ATOM     10  C   UNL     1      46.024   3.797   7.295  0.00  0.00    +0.000 C 
ATOM     11  C   UNL     1      46.869   3.247   6.136  0.00  0.00    +0.000 C 
ATOM     12  C   UNL     1      47.798   2.118   6.585  0.00  0.00    +0.000 C 
ATOM     13  C   UNL     1      47.026   1.011   7.293  0.00  0.00    +0.000 C 
ATOM     14  C   UNL     1      46.207   1.564   8.446  0.00  0.00    +0.000 C 
BRANCH  12  15
ATOM     15  O   UNL     1      48.489   1.574   5.464  0.00  0.00    +0.000 OA
ATOM     16  H   UNL     1      48.013   1.840   4.658  0.00  0.00    +0.000 HD
ENDBRANCH  12  15
ENDBRANCH   8   9
ENDBRANCH   5   8
ENDBRANCH   1   2
BRANCH   1  19
ATOM     17  O   UNL     1      48.958   6.711  13.133  0.00  0.00    +0.000 OA
ATOM     18  C   UNL     1      48.197   6.615  14.092  0.00  0.00    +0.000 C 
ATOM     19  N   UNL     1      46.853   6.861  13.984  0.00  0.00    +0.000 N 
ATOM     20  H   UNL     1      46.290   6.922  14.826  0.00  0.00    +0.000 HD
BRANCH  18  21
ATOM     21  C   UNL     1      48.674   6.175  15.408  0.00  0.00    +0.000 A 
ATOM     22  C   UNL     1      49.632   6.923  16.078  0.00  0.00    +0.000 A 
ATOM     23  S   UNL     1      50.086   6.266  17.584  0.00  0.00    +0.000 S 
ATOM     24  C   UNL     1      48.980   4.983  17.419  0.00  0.00    +0.000 A 
ATOM     25  N   UNL     1      48.834   4.057  18.405  0.00  0.00    +0.000 NA
ATOM     26  C   UNL     1      47.923   3.173  18.174  0.00  0.00    +0.000 A 
ATOM     27  N   UNL     1      47.155   3.120  17.040  0.00  0.00    +0.000 N 
ATOM     28  C   UNL     1      47.330   3.981  15.981  0.00  0.00    +0.000 A 
ATOM     29  O   UNL     1      46.734   3.812  14.921  0.00  0.00    +0.000 OA
ATOM     30  C   UNL     1      48.299   5.034  16.216  0.00  0.00    +0.000 A 
ATOM     31  H   UNL     1      46.484   2.380  16.905  0.00  0.00    +0.000 HD
ENDBRANCH  18  21
ENDBRANCH   1  19
TORSDOF 6
ENDMDL
MODEL 2
REMARK VINA RESULT:    -8.924      1.688      2.291
REMARK INTER + INTRA:         -12.147
REMARK INTER:                 -12.016
REMARK INTRA:                  -0.131
REMARK UNBOUND:                -0.353
REMARK  Name = 
REMARK  6 active torsions:
REMARK  status: ('A' for Active; 'I' for Inactive)
REMARK    1  A    between atoms: C_2  and  C_19
REMARK    2  A    between atoms: N_3  and  C_4
REMARK    3  A    between atoms: C_4  and  C_5
REMARK    4  A    between atoms: C_8  and  C_9
REMARK    5  A    between atoms: C_9  and  C_10
REMARK    6  A    between atoms: C_13  and  O_14
REMARK                            x       y       z     vdW  Elec       q    Type
REMARK                         _______ _______ _______ _____ _____    ______ ____
ROOT
ATOM      1  C   UNL     1      46.595   6.411  13.171  0.00  0.00    +0.000 C 
ENDROOT
BRANCH   1   2
ATOM      2  C   UNL     1      45.946   5.537  12.139  0.00  0.00    +0.000 A 
ATOM      3  C   UNL     1      45.785   5.961  10.822  0.00  0.00    +0.000 A 
ATOM      4  C   UNL     1      45.191   5.112   9.895  0.00  0.00    +0.000 A 
ATOM      5  C   UNL     1      44.770   3.841  10.299  0.00  0.00    +0.000 A 
ATOM      6  N   UNL     1      44.935   3.398  11.563  0.00  0.00    +0.000 NA
ATOM      7  C   UNL     1      45.515   4.249  12.449  0.00  0.00    +0.000 A 
BRANCH   5   8
ATOM      8  C   UNL     1      44.291   2.882   9.236  0.00  0.00    +0.000 C 
BRANCH   8   9
ATOM      9  C   UNL     1      45.177   2.587   8.007  0.00  0.00    +0.000 C 
ATOM     10  C   UNL     1      46.036   3.774   7.532  0.00  0.00    +0.000 C 
ATOM     11  C   UNL     1      46.980   3.362   6.391  0.00  0.00    +0.000 C 
ATOM     12  C   UNL     1      47.855   2.166   6.770  0.00  0.00    +0.000 C 
ATOM     13  C   UNL     1      47.013   0.992   7.255  0.00  0.00    +0.000 C 
ATOM     14  C   UNL     1      46.096   1.407   8.392  0.00  0.00    +0.000 C 
BRANCH  12  15
ATOM     15  O   UNL     1      48.641   1.759   5.654  0.00  0.00    +0.000 OA
ATOM     16  H   UNL     1      48.367   2.287   4.884  0.00  0.00    +0.000 HD
ENDBRANCH  12  15
ENDBRANCH   8   9
ENDBRANCH   5   8
ENDBRANCH   1   2
BRANCH   1  19
ATOM     17  O   UNL     1      49.007   6.281  14.602  0.00  0.00    +0.000 OA
ATOM     18  C   UNL     1      48.017   5.721  15.064  0.00  0.00    +0.000 C 
ATOM     19  N   UNL     1      46.814   5.705  14.408  0.00  0.00    +0.000 N 
ATOM     20  H   UNL     1      45.988   5.369  14.892  0.00  0.00    +0.000 HD
BRANCH  18  21
ATOM     21  C   UNL     1      48.076   4.984  16.332  0.00  0.00    +0.000 A 
ATOM     22  C   UNL     1      47.823   3.619  16.347  0.00  0.00    +0.000 A 
ATOM     23  S   UNL     1      47.916   2.921  17.900  0.00  0.00    +0.000 S 
ATOM     24  C   UNL     1      48.349   4.410  18.602  0.00  0.00    +0.000 A 
ATOM     25  N   UNL     1      48.619   4.500  19.932  0.00  0.00    +0.000 NA
ATOM     26  C   UNL     1      48.988   5.674  20.321  0.00  0.00    +0.000 A 
ATOM     27  N   UNL     1      49.096   6.770  19.506  0.00  0.00    +0.000 N 
ATOM     28  C   UNL     1      48.747   6.744  18.175  0.00  0.00    +0.000 A 
ATOM     29  O   UNL     1      48.709   7.776  17.510  0.00  0.00    +0.000 OA
ATOM     30  C   UNL     1      48.387   5.433  17.672  0.00  0.00    +0.000 A 
ATOM     31  H   UNL     1      49.355   7.669  19.881  0.00  0.00    +0.000 HD
ENDBRANCH  18  21
ENDBRANCH   1  19
TORSDOF 6
ENDMDL
MODEL 3
REMARK VINA RESULT:    -8.639      2.440      4.138
REMARK INTER + INTRA:         -11.770
REMARK INTER:                 -10.898
REMARK INTRA:                  -0.872
REMARK UNBOUND:                -0.353
REMARK  Name = 
REMARK  6 active torsions:
REMARK  status: ('A' for Active; 'I' for Inactive)
REMARK    1  A    between atoms: C_2  and  C_19
REMARK    2  A    between atoms: N_3  and  C_4
REMARK    3  A    between atoms: C_4  and  C_5
REMARK    4  A    between atoms: C_8  and  C_9
REMARK    5  A    between atoms: C_9  and  C_10
REMARK    6  A    between atoms: C_13  and  O_14
REMARK                            x       y       z     vdW  Elec       q    Type
REMARK                         _______ _______ _______ _____ _____    ______ ____
ROOT
ATOM      1  C   UNL     1      46.800   4.940  14.022  0.00  0.00    +0.000 C 
ENDROOT
BRANCH   1   2
ATOM      2  C   UNL     1      46.061   4.630  12.754  0.00  0.00    +0.000 A 
ATOM      3  C   UNL     1      45.908   5.582  11.748  0.00  0.00    +0.000 A 
ATOM      4  C   UNL     1      45.229   5.246  10.582  0.00  0.00    +0.000 A 
ATOM      5  C   UNL     1      44.715   3.954  10.434  0.00  0.00    +0.000 A 
ATOM      6  N   UNL     1      44.870   3.008  11.384  0.00  0.00    +0.000 NA
ATOM      7  C   UNL     1      45.534   3.363  12.514  0.00  0.00    +0.000 A 
BRANCH   5   8
ATOM      8  C   UNL     1      44.139   3.569   9.093  0.00  0.00    +0.000 C 
BRANCH   8   9
ATOM      9  C   UNL     1      45.071   3.072   7.968  0.00  0.00    +0.000 C 
ATOM     10  C   UNL     1      46.087   4.113   7.464  0.00  0.00    +0.000 C 
ATOM     11  C   UNL     1      47.056   3.501   6.441  0.00  0.00    +0.000 C 
ATOM     12  C   UNL     1      47.764   2.261   6.986  0.00  0.00    +0.000 C 
ATOM     13  C   UNL     1      46.765   1.231   7.500  0.00  0.00    +0.000 C 
ATOM     14  C   UNL     1      45.823   1.843   8.522  0.00  0.00    +0.000 C 
BRANCH  12  15
ATOM     15  O   UNL     1      48.576   1.673   5.974  0.00  0.00    +0.000 OA
ATOM     16  H   UNL     1      48.499   2.217   5.172  0.00  0.00    +0.000 HD
ENDBRANCH  12  15
ENDBRANCH   8   9
ENDBRANCH   5   8
ENDBRANCH   1   2
BRANCH   1  19
ATOM     17  O   UNL     1      49.044   5.941  15.379  0.00  0.00    +0.000 OA
ATOM     18  C   UNL     1      48.355   6.720  14.727  0.00  0.00    +0.000 C 
ATOM     19  N   UNL     1      47.222   6.318  14.069  0.00  0.00    +0.000 N 
ATOM     20  H   UNL     1      46.772   6.954  13.420  0.00  0.00    +0.000 HD
BRANCH  18  21
ATOM     21  C   UNL     1      48.675   8.151  14.655  0.00  0.00    +0.000 A 
ATOM     22  C   UNL     1      48.791   8.889  15.824  0.00  0.00    +0.000 A 
ATOM     23  S   UNL     1      49.150  10.536  15.563  0.00  0.00    +0.000 S 
ATOM     24  C   UNL     1      49.213  10.310  13.877  0.00  0.00    +0.000 A 
ATOM     25  N   UNL     1      49.522  11.342  13.047  0.00  0.00    +0.000 NA
ATOM     26  C   UNL     1      49.590  11.020  11.800  0.00  0.00    +0.000 A 
ATOM     27  N   UNL     1      49.361   9.763  11.303  0.00  0.00    +0.000 N 
ATOM     28  C   UNL     1      48.959   8.712  12.095  0.00  0.00    +0.000 A 
ATOM     29  O   UNL     1      48.614   7.642  11.602  0.00  0.00    +0.000 OA
ATOM     30  C   UNL     1      48.930   9.006  13.515  0.00  0.00    +0.000 A 
ATOM     31  H   UNL     1      49.394   9.585  10.312  0.00  0.00    +0.000 HD
ENDBRANCH  18  21
ENDBRANCH   1  19
TORSDOF 6
ENDMDL
MODEL 4
REMARK VINA RESULT:    -8.582      3.306      4.081
REMARK INTER + INTRA:         -11.694
REMARK INTER:                 -10.641
REMARK INTRA:                  -1.053
REMARK UNBOUND:                -0.353
REMARK  Name = 
REMARK  6 active torsions:
REMARK  status: ('A' for Active; 'I' for Inactive)
REMARK    1  A    between atoms: C_2  and  C_19
REMARK    2  A    between atoms: N_3  and  C_4
REMARK    3  A    between atoms: C_4  and  C_5
REMARK    4  A    between atoms: C_8  and  C_9
REMARK    5  A    between atoms: C_9  and  C_10
REMARK    6  A    between atoms: C_13  and  O_14
REMARK                            x       y       z     vdW  Elec       q    Type
REMARK                         _______ _______ _______ _____ _____    ______ ____
ROOT
ATOM      1  C   UNL     1      44.295   6.462  13.064  0.00  0.00    +0.000 C 
ENDROOT
BRANCH   1   2
ATOM      2  C   UNL     1      44.366   5.350  12.060  0.00  0.00    +0.000 A 
ATOM      3  C   UNL     1      45.238   4.275  12.225  0.00  0.00    +0.000 A 
ATOM      4  C   UNL     1      45.260   3.258  11.277  0.00  0.00    +0.000 A 
ATOM      5  C   UNL     1      44.402   3.326  10.175  0.00  0.00    +0.000 A 
ATOM      6  N   UNL     1      43.534   4.345  10.005  0.00  0.00    +0.000 NA
ATOM      7  C   UNL     1      43.534   5.327  10.944  0.00  0.00    +0.000 A 
BRANCH   5   8
ATOM      8  C   UNL     1      44.326   2.128   9.261  0.00  0.00    +0.000 C 
BRANCH   8   9
ATOM      9  C   UNL     1      45.185   2.081   7.979  0.00  0.00    +0.000 C 
ATOM     10  C   UNL     1      45.917   3.394   7.645  0.00  0.00    +0.000 C 
ATOM     11  C   UNL     1      46.846   3.225   6.432  0.00  0.00    +0.000 C 
ATOM     12  C   UNL     1      47.836   2.075   6.620  0.00  0.00    +0.000 C 
ATOM     13  C   UNL     1      47.120   0.775   6.965  0.00  0.00    +0.000 C 
ATOM     14  C   UNL     1      46.217   0.950   8.173  0.00  0.00    +0.000 C 
BRANCH  12  15
ATOM     15  O   UNL     1      48.608   1.893   5.437  0.00  0.00    +0.000 OA
ATOM     16  H   UNL     1      49.547   1.866   5.691  0.00  0.00    +0.000 HD
ENDBRANCH  12  15
ENDBRANCH   8   9
ENDBRANCH   5   8
ENDBRANCH   1   2
BRANCH   1  19
ATOM     17  O   UNL     1      44.783   8.557  11.260  0.00  0.00    +0.000 OA
ATOM     18  C   UNL     1      45.617   8.323  12.130  0.00  0.00    +0.000 C 
ATOM     19  N   UNL     1      45.471   7.294  13.024  0.00  0.00    +0.000 N 
ATOM     20  H   UNL     1      46.100   7.232  13.818  0.00  0.00    +0.000 HD
BRANCH  18  21
ATOM     21  C   UNL     1      46.855   9.104  12.235  0.00  0.00    +0.000 A 
ATOM     22  C   UNL     1      46.809  10.486  12.120  0.00  0.00    +0.000 A 
ATOM     23  S   UNL     1      48.335  11.236  12.249  0.00  0.00    +0.000 S 
ATOM     24  C   UNL     1      49.107   9.743  12.515  0.00  0.00    +0.000 A 
ATOM     25  N   UNL     1      50.446   9.683  12.745  0.00  0.00    +0.000 NA
ATOM     26  C   UNL     1      50.892   8.496  12.985  0.00  0.00    +0.000 A 
ATOM     27  N   UNL     1      50.124   7.361  13.000  0.00  0.00    +0.000 N 
ATOM     28  C   UNL     1      48.784   7.365  12.685  0.00  0.00    +0.000 A 
ATOM     29  O   UNL     1      48.160   6.315  12.557  0.00  0.00    +0.000 OA
ATOM     30  C   UNL     1      48.220   8.683  12.470  0.00  0.00    +0.000 A 
ATOM     31  H   UNL     1      50.541   6.457  13.159  0.00  0.00    +0.000 HD
ENDBRANCH  18  21
ENDBRANCH   1  19
TORSDOF 6
ENDMDL
MODEL 5
REMARK VINA RESULT:    -8.297      2.939      4.062
REMARK INTER + INTRA:         -11.317
REMARK INTER:                 -10.610
REMARK INTRA:                  -0.707
REMARK UNBOUND:                -0.353
REMARK  Name = 
REMARK  6 active torsions:
REMARK  status: ('A' for Active; 'I' for Inactive)
REMARK    1  A    between atoms: C_2  and  C_19
REMARK    2  A    between atoms: N_3  and  C_4
REMARK    3  A    between atoms: C_4  and  C_5
REMARK    4  A    between atoms: C_8  and  C_9
REMARK    5  A    between atoms: C_9  and  C_10
REMARK    6  A    between atoms: C_13  and  O_14
REMARK                            x       y       z     vdW  Elec       q    Type
REMARK                         _______ _______ _______ _____ _____    ______ ____
ROOT
ATOM      1  C   UNL     1      46.758   5.692  13.655  0.00  0.00    +0.000 C 
ENDROOT
BRANCH   1   2
ATOM      2  C   UNL     1      46.045   5.030  12.514  0.00  0.00    +0.000 A 
ATOM      3  C   UNL     1      45.732   5.727  11.348  0.00  0.00    +0.000 A 
ATOM      4  C   UNL     1      45.083   5.070  10.309  0.00  0.00    +0.000 A 
ATOM      5  C   UNL     1      44.761   3.717  10.446  0.00  0.00    +0.000 A 
ATOM      6  N   UNL     1      45.073   3.014  11.555  0.00  0.00    +0.000 NA
ATOM      7  C   UNL     1      45.704   3.681  12.557  0.00  0.00    +0.000 A 
BRANCH   5   8
ATOM      8  C   UNL     1      44.217   2.991   9.239  0.00  0.00    +0.000 C 
BRANCH   8   9
ATOM      9  C   UNL     1      45.140   2.693   8.039  0.00  0.00    +0.000 C 
ATOM     10  C   UNL     1      46.066   3.855   7.633  0.00  0.00    +0.000 C 
ATOM     11  C   UNL     1      47.038   3.434   6.519  0.00  0.00    +0.000 C 
ATOM     12  C   UNL     1      47.846   2.193   6.896  0.00  0.00    +0.000 C 
ATOM     13  C   UNL     1      46.937   1.042   7.313  0.00  0.00    +0.000 C 
ATOM     14  C   UNL     1      45.992   1.464   8.424  0.00  0.00    +0.000 C 
BRANCH  12  15
ATOM     15  O   UNL     1      48.659   1.783   5.801  0.00  0.00    +0.000 OA
ATOM     16  H   UNL     1      49.557   2.129   5.946  0.00  0.00    +0.000 HD
ENDBRANCH  12  15
ENDBRANCH   8   9
ENDBRANCH   5   8
ENDBRANCH   1   2
BRANCH   1  19
ATOM     17  O   UNL     1      47.004   8.488  13.653  0.00  0.00    +0.000 OA
ATOM     18  C   UNL     1      47.956   7.814  13.270  0.00  0.00    +0.000 C 
ATOM     19  N   UNL     1      47.901   6.446  13.204  0.00  0.00    +0.000 N 
ATOM     20  H   UNL     1      48.753   5.922  13.033  0.00  0.00    +0.000 HD
BRANCH  18  21
ATOM     21  C   UNL     1      49.201   8.438  12.807  0.00  0.00    +0.000 A 
ATOM     22  C   UNL     1      49.182   9.270  11.697  0.00  0.00    +0.000 A 
ATOM     23  S   UNL     1      50.713   9.898  11.284  0.00  0.00    +0.000 S 
ATOM     24  C   UNL     1      51.448   9.121  12.607  0.00  0.00    +0.000 A 
ATOM     25  N   UNL     1      52.775   9.283  12.861  0.00  0.00    +0.000 NA
ATOM     26  C   UNL     1      53.190   8.683  13.925  0.00  0.00    +0.000 A 
ATOM     27  N   UNL     1      52.404   7.924  14.752  0.00  0.00    +0.000 N 
ATOM     28  C   UNL     1      51.080   7.662  14.485  0.00  0.00    +0.000 A 
ATOM     29  O   UNL     1      50.445   6.855  15.159  0.00  0.00    +0.000 OA
ATOM     30  C   UNL     1      50.547   8.364  13.333  0.00  0.00    +0.000 A 
ATOM     31  H   UNL     1      52.799   7.451  15.550  0.00  0.00    +0.000 HD
ENDBRANCH  18  21
ENDBRANCH   1  19
TORSDOF 6
ENDMDL
MODEL 6
REMARK VINA RESULT:    -8.228      2.764      3.639
REMARK INTER + INTRA:         -11.227
REMARK INTER:                 -10.675
REMARK INTRA:                  -0.551
REMARK UNBOUND:                -0.353
REMARK  Name = 
REMARK  6 active torsions:
REMARK  status: ('A' for Active; 'I' for Inactive)
REMARK    1  A    between atoms: C_2  and  C_19
REMARK    2  A    between atoms: N_3  and  C_4
REMARK    3  A    between atoms: C_4  and  C_5
REMARK    4  A    between atoms: C_8  and  C_9
REMARK    5  A    between atoms: C_9  and  C_10
REMARK    6  A    between atoms: C_13  and  O_14
REMARK                            x       y       z     vdW  Elec       q    Type
REMARK                         _______ _______ _______ _____ _____    ______ ____
ROOT
ATOM      1  C   UNL     1      47.143   4.963  14.275  0.00  0.00    +0.000 C 
ENDROOT
BRANCH   1   2
ATOM      2  C   UNL     1      46.327   4.768  13.032  0.00  0.00    +0.000 A 
ATOM      3  C   UNL     1      46.236   5.760  12.057  0.00  0.00    +0.000 A 
ATOM      4  C   UNL     1      45.480   5.530  10.913  0.00  0.00    +0.000 A 
ATOM      5  C   UNL     1      44.827   4.304  10.755  0.00  0.00    +0.000 A 
ATOM      6  N   UNL     1      44.918   3.320  11.674  0.00  0.00    +0.000 NA
ATOM      7  C   UNL     1      45.660   3.571  12.784  0.00  0.00    +0.000 A 
BRANCH   5   8
ATOM      8  C   UNL     1      44.160   4.020   9.430  0.00  0.00    +0.000 C 
BRANCH   8   9
ATOM      9  C   UNL     1      44.956   3.336   8.298  0.00  0.00    +0.000 C 
ATOM     10  C   UNL     1      46.077   4.197   7.686  0.00  0.00    +0.000 C 
ATOM     11  C   UNL     1      46.899   3.401   6.661  0.00  0.00    +0.000 C 
ATOM     12  C   UNL     1      47.460   2.107   7.251  0.00  0.00    +0.000 C 
ATOM     13  C   UNL     1      46.359   1.255   7.872  0.00  0.00    +0.000 C 
ATOM     14  C   UNL     1      45.563   2.047   8.894  0.00  0.00    +0.000 C 
BRANCH  12  15
ATOM     15  O   UNL     1      48.130   1.356   6.243  0.00  0.00    +0.000 OA
ATOM     16  H   UNL     1      47.818   1.669   5.377  0.00  0.00    +0.000 HD
ENDBRANCH  12  15
ENDBRANCH   8   9
ENDBRANCH   5   8
ENDBRANCH   1   2
BRANCH   1  19
ATOM     17  O   UNL     1      49.347   5.947  15.708  0.00  0.00    +0.000 OA
ATOM     18  C   UNL     1      48.591   6.749  15.168  0.00  0.00    +0.000 C 
ATOM     19  N   UNL     1      47.472   6.351  14.484  0.00  0.00    +0.000 N 
ATOM     20  H   UNL     1      46.964   7.028  13.924  0.00  0.00    +0.000 HD
BRANCH  18  21
ATOM     21  C   UNL     1      48.812   8.197  15.267  0.00  0.00    +0.000 A 
ATOM     22  C   UNL     1      49.302   8.895  14.173  0.00  0.00    +0.000 A 
ATOM     23  S   UNL     1      49.514  10.562  14.462  0.00  0.00    +0.000 S 
ATOM     24  C   UNL     1      48.909  10.420  16.046  0.00  0.00    +0.000 A 
ATOM     25  N   UNL     1      48.783  11.514  16.844  0.00  0.00    +0.000 NA
ATOM     26  C   UNL     1      48.260  11.272  17.999  0.00  0.00    +0.000 A 
ATOM     27  N   UNL     1      47.866  10.034  18.435  0.00  0.00    +0.000 N 
ATOM     28  C   UNL     1      48.057   8.890  17.697  0.00  0.00    +0.000 A 
ATOM     29  O   UNL     1      47.836   7.781  18.176  0.00  0.00    +0.000 OA
ATOM     30  C   UNL     1      48.583   9.114  16.364  0.00  0.00    +0.000 A 
ATOM     31  H   UNL     1      47.497   9.907  19.365  0.00  0.00    +0.000 HD
ENDBRANCH  18  21
ENDBRANCH   1  19
TORSDOF 6
ENDMDL
MODEL 7
REMARK VINA RESULT:    -8.128      1.275      1.671
REMARK INTER + INTRA:         -11.094
REMARK INTER:                 -10.267
REMARK INTRA:                  -0.827
REMARK UNBOUND:                -0.353
REMARK  Name = 
REMARK  6 active torsions:
REMARK  status: ('A' for Active; 'I' for Inactive)
REMARK    1  A    between atoms: C_2  and  C_19
REMARK    2  A    between atoms: N_3  and  C_4
REMARK    3  A    between atoms: C_4  and  C_5
REMARK    4  A    between atoms: C_8  and  C_9
REMARK    5  A    between atoms: C_9  and  C_10
REMARK    6  A    between atoms: C_13  and  O_14
REMARK                            x       y       z     vdW  Elec       q    Type
REMARK                         _______ _______ _______ _____ _____    ______ ____
ROOT
ATOM      1  C   UNL     1      47.375   8.333  13.571  0.00  0.00    +0.000 C 
ENDROOT
BRANCH   1   2
ATOM      2  C   UNL     1      46.544   7.404  12.736  0.00  0.00    +0.000 A 
ATOM      3  C   UNL     1      46.734   6.024  12.774  0.00  0.00    +0.000 A 
ATOM      4  C   UNL     1      45.931   5.198  11.995  0.00  0.00    +0.000 A 
ATOM      5  C   UNL     1      44.939   5.766  11.190  0.00  0.00    +0.000 A 
ATOM      6  N   UNL     1      44.720   7.097  11.153  0.00  0.00    +0.000 NA
ATOM      7  C   UNL     1      45.521   7.881  11.921  0.00  0.00    +0.000 A 
BRANCH   5   8
ATOM      8  C   UNL     1      43.973   4.838  10.493  0.00  0.00    +0.000 C 
BRANCH   8   9
ATOM      9  C   UNL     1      44.444   4.002   9.284  0.00  0.00    +0.000 C 
ATOM     10  C   UNL     1      45.674   4.567   8.549  0.00  0.00    +0.000 C 
ATOM     11  C   UNL     1      46.153   3.614   7.444  0.00  0.00    +0.000 C 
ATOM     12  C   UNL     1      46.429   2.207   7.975  0.00  0.00    +0.000 C 
ATOM     13  C   UNL     1      45.222   1.646   8.717  0.00  0.00    +0.000 C 
ATOM     14  C   UNL     1      44.767   2.589   9.816  0.00  0.00    +0.000 C 
BRANCH  12  15
ATOM     15  O   UNL     1      46.776   1.335   6.903  0.00  0.00    +0.000 OA
ATOM     16  H   UNL     1      46.326   1.651   6.100  0.00  0.00    +0.000 HD
ENDBRANCH  12  15
ENDBRANCH   8   9
ENDBRANCH   5   8
ENDBRANCH   1   2
BRANCH   1  19
ATOM     17  O   UNL     1      49.736   6.976  14.252  0.00  0.00    +0.000 OA
ATOM     18  C   UNL     1      48.882   7.143  15.118  0.00  0.00    +0.000 C 
ATOM     19  N   UNL     1      47.687   7.760  14.856  0.00  0.00    +0.000 N 
ATOM     20  H   UNL     1      47.079   8.016  15.627  0.00  0.00    +0.000 HD
BRANCH  18  21
ATOM     21  C   UNL     1      49.068   6.641  16.485  0.00  0.00    +0.000 A 
ATOM     22  C   UNL     1      49.631   7.464  17.449  0.00  0.00    +0.000 A 
ATOM     23  S   UNL     1      49.790   6.722  18.976  0.00  0.00    +0.000 S 
ATOM     24  C   UNL     1      49.065   5.288  18.416  0.00  0.00    +0.000 A 
ATOM     25  N   UNL     1      48.856   4.239  19.255  0.00  0.00    +0.000 NA
ATOM     26  C   UNL     1      48.249   3.237  18.714  0.00  0.00    +0.000 A 
ATOM     27  N   UNL     1      47.843   3.183  17.406  0.00  0.00    +0.000 N 
ATOM     28  C   UNL     1      48.112   4.184  16.501  0.00  0.00    +0.000 A 
ATOM     29  O   UNL     1      47.873   4.039  15.306  0.00  0.00    +0.000 OA
ATOM     30  C   UNL     1      48.738   5.361  17.074  0.00  0.00    +0.000 A 
ATOM     31  H   UNL     1      47.405   2.355  17.035  0.00  0.00    +0.000 HD
ENDBRANCH  18  21
ENDBRANCH   1  19
TORSDOF 6
ENDMDL
MODEL 8
REMARK VINA RESULT:    -7.984      3.156      4.860
REMARK INTER + INTRA:         -10.904
REMARK INTER:                 -10.054
REMARK INTRA:                  -0.850
REMARK UNBOUND:                -0.353
REMARK  Name = 
REMARK  6 active torsions:
REMARK  status: ('A' for Active; 'I' for Inactive)
REMARK    1  A    between atoms: C_2  and  C_19
REMARK    2  A    between atoms: N_3  and  C_4
REMARK    3  A    between atoms: C_4  and  C_5
REMARK    4  A    between atoms: C_8  and  C_9
REMARK    5  A    between atoms: C_9  and  C_10
REMARK    6  A    between atoms: C_13  and  O_14
REMARK                            x       y       z     vdW  Elec       q    Type
REMARK                         _______ _______ _______ _____ _____    ______ ____
ROOT
ATOM      1  C   UNL     1      45.466   6.910  12.946  0.00  0.00    +0.000 C 
ENDROOT
BRANCH   1   2
ATOM      2  C   UNL     1      45.100   5.733  12.091  0.00  0.00    +0.000 A 
ATOM      3  C   UNL     1      44.143   5.834  11.082  0.00  0.00    +0.000 A 
ATOM      4  C   UNL     1      43.846   4.721  10.303  0.00  0.00    +0.000 A 
ATOM      5  C   UNL     1      44.519   3.518  10.539  0.00  0.00    +0.000 A 
ATOM      6  N   UNL     1      45.465   3.401  11.494  0.00  0.00    +0.000 NA
ATOM      7  C   UNL     1      45.734   4.502  12.243  0.00  0.00    +0.000 A 
BRANCH   5   8
ATOM      8  C   UNL     1      44.302   2.383   9.568  0.00  0.00    +0.000 C 
BRANCH   8   9
ATOM      9  C   UNL     1      45.134   2.309   8.270  0.00  0.00    +0.000 C 
ATOM     10  C   UNL     1      46.001   3.551   7.988  0.00  0.00    +0.000 C 
ATOM     11  C   UNL     1      46.890   3.345   6.752  0.00  0.00    +0.000 C 
ATOM     12  C   UNL     1      47.751   2.087   6.864  0.00  0.00    +0.000 C 
ATOM     13  C   UNL     1      46.902   0.856   7.157  0.00  0.00    +0.000 C 
ATOM     14  C   UNL     1      46.040   1.064   8.389  0.00  0.00    +0.000 C 
BRANCH  12  15
ATOM     15  O   UNL     1      48.484   1.884   5.660  0.00  0.00    +0.000 OA
ATOM     16  H   UNL     1      49.370   2.267   5.778  0.00  0.00    +0.000 HD
ENDBRANCH  12  15
ENDBRANCH   8   9
ENDBRANCH   5   8
ENDBRANCH   1   2
BRANCH   1  19
ATOM     17  O   UNL     1      47.939   6.922  14.272  0.00  0.00    +0.000 OA
ATOM     18  C   UNL     1      47.855   7.476  13.180  0.00  0.00    +0.000 C 
ATOM     19  N   UNL     1      46.674   7.547  12.487  0.00  0.00    +0.000 N 
ATOM     20  H   UNL     1      46.680   7.872  11.526  0.00  0.00    +0.000 HD
BRANCH  18  21
ATOM     21  C   UNL     1      49.009   8.145  12.568  0.00  0.00    +0.000 A 
ATOM     22  C   UNL     1      50.265   7.563  12.650  0.00  0.00    +0.000 A 
ATOM     23  S   UNL     1      51.495   8.477  11.903  0.00  0.00    +0.000 S 
ATOM     24  C   UNL     1      50.383   9.661  11.396  0.00  0.00    +0.000 A 
ATOM     25  N   UNL     1      50.788  10.726  10.654  0.00  0.00    +0.000 NA
ATOM     26  C   UNL     1      49.834  11.516  10.292  0.00  0.00    +0.000 A 
ATOM     27  N   UNL     1      48.513  11.348  10.617  0.00  0.00    +0.000 N 
ATOM     28  C   UNL     1      48.073  10.336  11.439  0.00  0.00    +0.000 A 
ATOM     29  O   UNL     1      46.911  10.302  11.836  0.00  0.00    +0.000 OA
ATOM     30  C   UNL     1      49.097   9.382  11.822  0.00  0.00    +0.000 A 
ATOM     31  H   UNL     1      47.821  12.023  10.333  0.00  0.00    +0.000 HD
ENDBRANCH  18  21
ENDBRANCH   1  19
TORSDOF 6
ENDMDL
MODEL 9
REMARK VINA RESULT:    -7.809      2.451      3.174
REMARK INTER + INTRA:         -10.672
REMARK INTER:                  -9.875
REMARK INTRA:                  -0.797
REMARK UNBOUND:                -0.353
REMARK  Name = 
REMARK  6 active torsions:
REMARK  status: ('A' for Active; 'I' for Inactive)
REMARK    1  A    between atoms: C_2  and  C_19
REMARK    2  A    between atoms: N_3  and  C_4
REMARK    3  A    between atoms: C_4  and  C_5
REMARK    4  A    between atoms: C_8  and  C_9
REMARK    5  A    between atoms: C_9  and  C_10
REMARK    6  A    between atoms: C_13  and  O_14
REMARK                            x       y       z     vdW  Elec       q    Type
REMARK                         _______ _______ _______ _____ _____    ______ ____
ROOT
ATOM      1  C   UNL     1      48.270   6.809  13.961  0.00  0.00    +0.000 C 
ENDROOT
BRANCH   1   2
ATOM      2  C   UNL     1      47.117   6.315  13.139  0.00  0.00    +0.000 A 
ATOM      3  C   UNL     1      46.476   7.137  12.214  0.00  0.00    +0.000 A 
ATOM      4  C   UNL     1      45.421   6.633  11.462  0.00  0.00    +0.000 A 
ATOM      5  C   UNL     1      45.023   5.305  11.641  0.00  0.00    +0.000 A 
ATOM      6  N   UNL     1      45.641   4.482  12.514  0.00  0.00    +0.000 NA
ATOM      7  C   UNL     1      46.667   5.001  13.238  0.00  0.00    +0.000 A 
BRANCH   5   8
ATOM      8  C   UNL     1      43.995   4.738  10.691  0.00  0.00    +0.000 C 
BRANCH   8   9
ATOM      9  C   UNL     1      44.450   3.973   9.431  0.00  0.00    +0.000 C 
ATOM     10  C   UNL     1      45.660   4.589   8.703  0.00  0.00    +0.000 C 
ATOM     11  C   UNL     1      46.126   3.700   7.540  0.00  0.00    +0.000 C 
ATOM     12  C   UNL     1      46.424   2.270   7.990  0.00  0.00    +0.000 C 
ATOM     13  C   UNL     1      45.236   1.658   8.723  0.00  0.00    +0.000 C 
ATOM     14  C   UNL     1      44.794   2.537   9.880  0.00  0.00    +0.000 C 
BRANCH  12  15
ATOM     15  O   UNL     1      46.758   1.460   6.866  0.00  0.00    +0.000 OA
ATOM     16  H   UNL     1      46.004   0.874   6.683  0.00  0.00    +0.000 HD
ENDBRANCH  12  15
ENDBRANCH   8   9
ENDBRANCH   5   8
ENDBRANCH   1   2
BRANCH   1  19
ATOM     17  O   UNL     1      50.338   6.336  15.799  0.00  0.00    +0.000 OA
ATOM     18  C   UNL     1      49.177   6.299  16.197  0.00  0.00    +0.000 C 
ATOM     19  N   UNL     1      48.111   6.480  15.355  0.00  0.00    +0.000 N 
ATOM     20  H   UNL     1      47.182   6.597  15.747  0.00  0.00    +0.000 HD
BRANCH  18  21
ATOM     21  C   UNL     1      48.856   6.004  17.599  0.00  0.00    +0.000 A 
ATOM     22  C   UNL     1      49.121   4.744  18.115  0.00  0.00    +0.000 A 
ATOM     23  S   UNL     1      48.673   4.564  19.750  0.00  0.00    +0.000 S 
ATOM     24  C   UNL     1      48.156   6.183  19.843  0.00  0.00    +0.000 A 
ATOM     25  N   UNL     1      47.685   6.699  21.010  0.00  0.00    +0.000 NA
ATOM     26  C   UNL     1      47.380   7.951  20.954  0.00  0.00    +0.000 A 
ATOM     27  N   UNL     1      47.487   8.732  19.833  0.00  0.00    +0.000 N 
ATOM     28  C   UNL     1      47.873   8.231  18.611  0.00  0.00    +0.000 A 
ATOM     29  O   UNL     1      47.811   8.919  17.596  0.00  0.00    +0.000 OA
ATOM     30  C   UNL     1      48.288   6.842  18.634  0.00  0.00    +0.000 A 
ATOM     31  H   UNL     1      47.197   9.697  19.846  0.00  0.00    +0.000 HD
ENDBRANCH  18  21
ENDBRANCH   1  19
TORSDOF 6
ENDMDL
