MODEL 1
REMARK VINA RESULT:    -9.189      0.000      0.000
REMARK INTER + INTRA:         -13.143
REMARK INTER:                 -12.680
REMARK INTRA:                  -0.463
REMARK UNBOUND:                -0.463
REMARK  Name = 
REMARK  8 active torsions:
REMARK  status: ('A' for Active; 'I' for Inactive)
REMARK    1  A    between atoms: C_1  and  C_2
REMARK    2  A    between atoms: C_4  and  C_5
REMARK    3  A    between atoms: C_10  and  N_11
REMARK    4  A    between atoms: N_11  and  C_12
REMARK    5  A    between atoms: C_12  and  C_13
REMARK    6  A    between atoms: C_17  and  C_18
REMARK    7  A    between atoms: CA_21  and  C_22
REMARK    8  A    between atoms: C_22  and  O_23
REMARK                            x       y       z     vdW  Elec       q    Type
REMARK                         _______ _______ _______ _____ _____    ______ ____
ROOT
ATOM      1  C   UNL     1      44.178   5.148  11.520  0.00  0.00    +0.000 C 
ATOM      2  C   UNL     1      43.489   4.040  12.343  0.00  0.00    +0.000 C 
ATOM      3  C   UNL     1      43.019   5.440  12.459  0.00  0.00    +0.000 C 
ENDROOT
BRANCH   1   4
ATOM      4  C   UNL     1      45.562   5.592  12.026  0.00  0.00    +0.000 A 
ATOM      5  C   UNL     1      46.339   6.523  11.328  0.00  0.00    +0.000 A 
ATOM      6  C   UNL     1      47.541   6.998  11.857  0.00  0.00    +0.000 A 
ATOM      7  C   UNL     1      47.985   6.557  13.108  0.00  0.00    +0.000 A 
ATOM      8  C   UNL     1      47.249   5.624  13.850  0.00  0.00    +0.000 A 
ATOM      9  C   UNL     1      46.063   5.137  13.265  0.00  0.00    +0.000 A 
BRANCH   8  10
ATOM     10  C   UNL     1      47.642   5.207  15.214  0.00  0.00    +0.000 A 
ATOM     11  C   UNL     1      47.138   4.048  15.820  0.00  0.00    +0.000 A 
ATOM     12  C   UNL     1      47.481   3.715  17.132  0.00  0.00    +0.000 A 
ATOM     13  CA  UNL     1      48.345   4.547  17.834  0.00  0.00    +0.000 A 
ATOM     14  N   UNL     1      48.857   5.679  17.291  0.00  0.00    +0.000 NA
ATOM     15  C   UNL     1      48.496   5.973  16.013  0.00  0.00    +0.000 A 
BRANCH  13  16
ATOM     16  C   UNL     1      48.761   4.210  19.245  0.00  0.00    +0.000 C 
BRANCH  16  17
ATOM     17  O   UNL     1      48.261   2.932  19.631  0.00  0.00    +0.000 OA
ATOM     18  H   UNL     1      48.305   2.389  18.820  0.00  0.00    +0.000 HD
ENDBRANCH  16  17
ENDBRANCH  13  16
ENDBRANCH   8  10
ENDBRANCH   1   4
BRANCH   1  19
ATOM     19  N   UNL     1      44.149   4.887  10.077  0.00  0.00    +0.000 N 
ATOM     20  H   UNL     1      43.303   5.164   9.586  0.00  0.00    +0.000 HD
BRANCH  19  27
ATOM     21  C   UNL     1      44.084   1.772   9.759  0.00  0.00    +0.000 C 
ATOM     22  C   UNL     1      44.941   2.751   9.031  0.00  0.00    +0.000 A 
ATOM     23  C   UNL     1      45.890   2.201   8.142  0.00  0.00    +0.000 A 
ATOM     24  C   UNL     1      46.730   3.003   7.377  0.00  0.00    +0.000 A 
ATOM     25  C   UNL     1      46.582   4.360   7.542  0.00  0.00    +0.000 A 
ATOM     26  N   UNL     1      45.704   4.927   8.418  0.00  0.00    +0.000 NA
ATOM     27  C   UNL     1      44.897   4.135   9.181  0.00  0.00    +0.000 A 
BRANCH  24  28
ATOM     28  C   UNL     1      47.703   2.340   6.469  0.00  0.00    +0.000 C 
ATOM     29  N   UNL     1      47.983   2.900   5.256  0.00  0.00    +0.000 N 
ATOM     30  O   UNL     1      48.259   1.298   6.794  0.00  0.00    +0.000 OA
ATOM     31  H   UNL     1      47.596   3.753   4.887  0.00  0.00    +0.000 HD
ATOM     32  H   UNL     1      48.658   2.404   4.685  0.00  0.00    +0.000 HD
ENDBRANCH  24  28
ENDBRANCH  19  27
ENDBRANCH   1  19
TORSDOF 7
ENDMDL
MODEL 2
REMARK VINA RESULT:    -8.802      3.435      4.577
REMARK INTER + INTRA:         -12.609
REMARK INTER:                 -11.492
REMARK INTRA:                  -1.117
REMARK UNBOUND:                -0.463
REMARK  Name = 
REMARK  8 active torsions:
REMARK  status: ('A' for Active; 'I' for Inactive)
REMARK    1  A    between atoms: C_1  and  C_2
REMARK    2  A    between atoms: C_4  and  C_5
REMARK    3  A    between atoms: C_10  and  N_11
REMARK    4  A    between atoms: N_11  and  C_12
REMARK    5  A    between atoms: C_12  and  C_13
REMARK    6  A    between atoms: C_17  and  C_18
REMARK    7  A    between atoms: CA_21  and  C_22
REMARK    8  A    between atoms: C_22  and  O_23
REMARK                            x       y       z     vdW  Elec       q    Type
REMARK                         _______ _______ _______ _____ _____    ______ ____
ROOT
ATOM      1  C   UNL     1      43.727   5.622  11.052  0.00  0.00    +0.000 C 
ATOM      2  C   UNL     1      42.498   5.084  11.812  0.00  0.00    +0.000 C 
ATOM      3  C   UNL     1      42.643   6.541  11.592  0.00  0.00    +0.000 C 
ENDROOT
BRANCH   1   4
ATOM      4  C   UNL     1      45.048   5.631  11.842  0.00  0.00    +0.000 A 
ATOM      5  C   UNL     1      45.408   4.579  12.690  0.00  0.00    +0.000 A 
ATOM      6  C   UNL     1      46.657   4.550  13.313  0.00  0.00    +0.000 A 
ATOM      7  C   UNL     1      47.582   5.574  13.086  0.00  0.00    +0.000 A 
ATOM      8  C   UNL     1      47.275   6.655  12.248  0.00  0.00    +0.000 A 
ATOM      9  C   UNL     1      45.990   6.670  11.671  0.00  0.00    +0.000 A 
BRANCH   8  10
ATOM     10  C   UNL     1      48.262   7.706  11.915  0.00  0.00    +0.000 A 
ATOM     11  C   UNL     1      49.606   7.416  11.645  0.00  0.00    +0.000 A 
ATOM     12  C   UNL     1      50.526   8.436  11.394  0.00  0.00    +0.000 A 
ATOM     13  CA  UNL     1      50.088   9.755  11.405  0.00  0.00    +0.000 A 
ATOM     14  N   UNL     1      48.799  10.085  11.663  0.00  0.00    +0.000 NA
ATOM     15  C   UNL     1      47.933   9.064  11.907  0.00  0.00    +0.000 A 
BRANCH  13  16
ATOM     16  C   UNL     1      51.044  10.886  11.114  0.00  0.00    +0.000 C 
BRANCH  16  17
ATOM     17  O   UNL     1      51.879  10.572  10.002  0.00  0.00    +0.000 OA
ATOM     18  H   UNL     1      52.578  11.254  10.012  0.00  0.00    +0.000 HD
ENDBRANCH  16  17
ENDBRANCH  13  16
ENDBRANCH   8  10
ENDBRANCH   1   4
BRANCH   1  19
ATOM     19  N   UNL     1      43.863   5.050   9.709  0.00  0.00    +0.000 N 
ATOM     20  H   UNL     1      43.141   5.299   9.039  0.00  0.00    +0.000 HD
BRANCH  19  27
ATOM     21  C   UNL     1      43.873   2.027  10.530  0.00  0.00    +0.000 C 
ATOM     22  C   UNL     1      44.691   2.696   9.478  0.00  0.00    +0.000 A 
ATOM     23  C   UNL     1      45.639   1.880   8.821  0.00  0.00    +0.000 A 
ATOM     24  C   UNL     1      46.445   2.369   7.798  0.00  0.00    +0.000 A 
ATOM     25  C   UNL     1      46.265   3.693   7.471  0.00  0.00    +0.000 A 
ATOM     26  N   UNL     1      45.388   4.521   8.108  0.00  0.00    +0.000 NA
ATOM     27  C   UNL     1      44.615   4.040   9.123  0.00  0.00    +0.000 A 
BRANCH  24  28
ATOM     28  C   UNL     1      47.419   1.443   7.164  0.00  0.00    +0.000 C 
ATOM     29  N   UNL     1      48.504   1.950   6.511  0.00  0.00    +0.000 N 
ATOM     30  O   UNL     1      47.261   0.229   7.220  0.00  0.00    +0.000 OA
ATOM     31  H   UNL     1      48.740   2.924   6.407  0.00  0.00    +0.000 HD
ATOM     32  H   UNL     1      49.134   1.268   6.103  0.00  0.00    +0.000 HD
ENDBRANCH  24  28
ENDBRANCH  19  27
ENDBRANCH   1  19
TORSDOF 7
ENDMDL
MODEL 3
REMARK VINA RESULT:    -8.319      1.562      8.309
REMARK INTER + INTRA:         -11.943
REMARK INTER:                 -10.917
REMARK INTRA:                  -1.026
REMARK UNBOUND:                -0.463
REMARK  Name = 
REMARK  8 active torsions:
REMARK  status: ('A' for Active; 'I' for Inactive)
REMARK    1  A    between atoms: C_1  and  C_2
REMARK    2  A    between atoms: C_4  and  C_5
REMARK    3  A    between atoms: C_10  and  N_11
REMARK    4  A    between atoms: N_11  and  C_12
REMARK    5  A    between atoms: C_12  and  C_13
REMARK    6  A    between atoms: C_17  and  C_18
REMARK    7  A    between atoms: CA_21  and  C_22
REMARK    8  A    between atoms: C_22  and  O_23
REMARK                            x       y       z     vdW  Elec       q    Type
REMARK                         _______ _______ _______ _____ _____    ______ ____
ROOT
ATOM      1  C   UNL     1      46.238   7.329  12.745  0.00  0.00    +0.000 C 
ATOM      2  C   UNL     1      46.596   8.620  11.981  0.00  0.00    +0.000 C 
ATOM      3  C   UNL     1      45.639   8.677  13.111  0.00  0.00    +0.000 C 
ENDROOT
BRANCH   1   4
ATOM      4  C   UNL     1      45.286   6.365  12.015  0.00  0.00    +0.000 A 
ATOM      5  C   UNL     1      43.909   6.356  12.264  0.00  0.00    +0.000 A 
ATOM      6  C   UNL     1      43.046   5.555  11.515  0.00  0.00    +0.000 A 
ATOM      7  C   UNL     1      43.546   4.749  10.486  0.00  0.00    +0.000 A 
ATOM      8  C   UNL     1      44.916   4.715  10.193  0.00  0.00    +0.000 A 
ATOM      9  C   UNL     1      45.760   5.506  10.998  0.00  0.00    +0.000 A 
BRANCH   8  10
ATOM     10  C   UNL     1      45.466   3.946   9.054  0.00  0.00    +0.000 A 
ATOM     11  C   UNL     1      45.484   2.545   9.033  0.00  0.00    +0.000 A 
ATOM     12  C   UNL     1      46.065   1.849   7.971  0.00  0.00    +0.000 A 
ATOM     13  CA  UNL     1      46.622   2.568   6.920  0.00  0.00    +0.000 A 
ATOM     14  N   UNL     1      46.631   3.924   6.897  0.00  0.00    +0.000 NA
ATOM     15  C   UNL     1      46.059   4.566   7.952  0.00  0.00    +0.000 A 
BRANCH  13  16
ATOM     16  C   UNL     1      47.237   1.855   5.741  0.00  0.00    +0.000 C 
BRANCH  16  17
ATOM     17  O   UNL     1      48.658   1.822   5.852  0.00  0.00    +0.000 OA
ATOM     18  H   UNL     1      48.977   2.455   5.180  0.00  0.00    +0.000 HD
ENDBRANCH  16  17
ENDBRANCH  13  16
ENDBRANCH   8  10
ENDBRANCH   1   4
BRANCH   1  19
ATOM     19  N   UNL     1      47.412   6.659  13.314  0.00  0.00    +0.000 N 
ATOM     20  H   UNL     1      48.233   6.606  12.717  0.00  0.00    +0.000 HD
BRANCH  19  27
ATOM     21  C   UNL     1      46.504   3.681  13.662  0.00  0.00    +0.000 C 
ATOM     22  C   UNL     1      47.247   4.534  14.633  0.00  0.00    +0.000 A 
ATOM     23  C   UNL     1      47.510   3.951  15.892  0.00  0.00    +0.000 A 
ATOM     24  C   UNL     1      48.221   4.625  16.880  0.00  0.00    +0.000 A 
ATOM     25  C   UNL     1      48.648   5.892  16.555  0.00  0.00    +0.000 A 
ATOM     26  N   UNL     1      48.381   6.502  15.365  0.00  0.00    +0.000 NA
ATOM     27  C   UNL     1      47.665   5.843  14.409  0.00  0.00    +0.000 A 
BRANCH  24  28
ATOM     28  C   UNL     1      48.449   3.939  18.178  0.00  0.00    +0.000 C 
ATOM     29  N   UNL     1      47.906   4.455  19.318  0.00  0.00    +0.000 N 
ATOM     30  O   UNL     1      49.119   2.914  18.239  0.00  0.00    +0.000 OA
ATOM     31  H   UNL     1      47.336   5.283  19.389  0.00  0.00    +0.000 HD
ATOM     32  H   UNL     1      48.093   3.939  20.171  0.00  0.00    +0.000 HD
ENDBRANCH  24  28
ENDBRANCH  19  27
ENDBRANCH   1  19
TORSDOF 7
ENDMDL
MODEL 4
REMARK VINA RESULT:    -8.023      2.061      8.666
REMARK INTER + INTRA:         -11.535
REMARK INTER:                 -11.310
REMARK INTRA:                  -0.225
REMARK UNBOUND:                -0.463
REMARK  Name = 
REMARK  8 active torsions:
REMARK  status: ('A' for Active; 'I' for Inactive)
REMARK    1  A    between atoms: C_1  and  C_2
REMARK    2  A    between atoms: C_4  and  C_5
REMARK    3  A    between atoms: C_10  and  N_11
REMARK    4  A    between atoms: N_11  and  C_12
REMARK    5  A    between atoms: C_12  and  C_13
REMARK    6  A    between atoms: C_17  and  C_18
REMARK    7  A    between atoms: CA_21  and  C_22
REMARK    8  A    between atoms: C_22  and  O_23
REMARK                            x       y       z     vdW  Elec       q    Type
REMARK                         _______ _______ _______ _____ _____    ______ ____
ROOT
ATOM      1  C   UNL     1      46.351   5.248  13.878  0.00  0.00    +0.000 C 
ATOM      2  C   UNL     1      47.685   5.742  13.282  0.00  0.00    +0.000 C 
ATOM      3  C   UNL     1      46.621   6.720  13.609  0.00  0.00    +0.000 C 
ENDROOT
BRANCH   1   4
ATOM      4  C   UNL     1      45.391   4.566  12.888  0.00  0.00    +0.000 A 
ATOM      5  C   UNL     1      44.024   4.434  13.157  0.00  0.00    +0.000 A 
ATOM      6  C   UNL     1      43.148   3.913  12.202  0.00  0.00    +0.000 A 
ATOM      7  C   UNL     1      43.625   3.522  10.946  0.00  0.00    +0.000 A 
ATOM      8  C   UNL     1      44.985   3.630  10.622  0.00  0.00    +0.000 A 
ATOM      9  C   UNL     1      45.843   4.121  11.626  0.00  0.00    +0.000 A 
BRANCH   8  10
ATOM     10  C   UNL     1      45.506   3.313   9.274  0.00  0.00    +0.000 A 
ATOM     11  C   UNL     1      45.813   2.005   8.875  0.00  0.00    +0.000 A 
ATOM     12  C   UNL     1      46.362   1.746   7.617  0.00  0.00    +0.000 A 
ATOM     13  CA  UNL     1      46.593   2.809   6.753  0.00  0.00    +0.000 A 
ATOM     14  N   UNL     1      46.315   4.092   7.094  0.00  0.00    +0.000 NA
ATOM     15  C   UNL     1      45.786   4.305   8.329  0.00  0.00    +0.000 A 
BRANCH  13  16
ATOM     16  C   UNL     1      47.161   2.571   5.375  0.00  0.00    +0.000 C 
BRANCH  16  17
ATOM     17  O   UNL     1      48.399   1.868   5.450  0.00  0.00    +0.000 OA
ATOM     18  H   UNL     1      48.320   1.148   4.795  0.00  0.00    +0.000 HD
ENDBRANCH  16  17
ENDBRANCH  13  16
ENDBRANCH   8  10
ENDBRANCH   1   4
BRANCH   1  19
ATOM     19  N   UNL     1      46.527   4.493  15.123  0.00  0.00    +0.000 N 
ATOM     20  H   UNL     1      45.701   4.390  15.707  0.00  0.00    +0.000 HD
BRANCH  19  27
ATOM     21  C   UNL     1      48.192   6.173  17.176  0.00  0.00    +0.000 C 
ATOM     22  C   UNL     1      48.403   4.756  16.763  0.00  0.00    +0.000 A 
ATOM     23  C   UNL     1      49.537   4.116  17.311  0.00  0.00    +0.000 A 
ATOM     24  C   UNL     1      49.834   2.785  17.034  0.00  0.00    +0.000 A 
ATOM     25  C   UNL     1      48.959   2.136  16.194  0.00  0.00    +0.000 A 
ATOM     26  N   UNL     1      47.877   2.731  15.616  0.00  0.00    +0.000 NA
ATOM     27  C   UNL     1      47.603   4.042  15.875  0.00  0.00    +0.000 A 
BRANCH  24  28
ATOM     28  C   UNL     1      51.049   2.191  17.649  0.00  0.00    +0.000 C 
ATOM     29  N   UNL     1      51.188   0.834  17.692  0.00  0.00    +0.000 N 
ATOM     30  O   UNL     1      51.929   2.902  18.119  0.00  0.00    +0.000 OA
ATOM     31  H   UNL     1      50.538   0.154  17.333  0.00  0.00    +0.000 HD
ATOM     32  H   UNL     1      52.041   0.490  18.119  0.00  0.00    +0.000 HD
ENDBRANCH  24  28
ENDBRANCH  19  27
ENDBRANCH   1  19
TORSDOF 7
ENDMDL
MODEL 5
REMARK VINA RESULT:    -7.979      3.363      4.087
REMARK INTER + INTRA:         -11.474
REMARK INTER:                 -10.978
REMARK INTRA:                  -0.496
REMARK UNBOUND:                -0.463
REMARK  Name = 
REMARK  8 active torsions:
REMARK  status: ('A' for Active; 'I' for Inactive)
REMARK    1  A    between atoms: C_1  and  C_2
REMARK    2  A    between atoms: C_4  and  C_5
REMARK    3  A    between atoms: C_10  and  N_11
REMARK    4  A    between atoms: N_11  and  C_12
REMARK    5  A    between atoms: C_12  and  C_13
REMARK    6  A    between atoms: C_17  and  C_18
REMARK    7  A    between atoms: CA_21  and  C_22
REMARK    8  A    between atoms: C_22  and  O_23
REMARK                            x       y       z     vdW  Elec       q    Type
REMARK                         _______ _______ _______ _____ _____    ______ ____
ROOT
ATOM      1  C   UNL     1      44.851   5.607  11.542  0.00  0.00    +0.000 C 
ATOM      2  C   UNL     1      45.515   4.492  12.374  0.00  0.00    +0.000 C 
ATOM      3  C   UNL     1      44.216   5.056  12.808  0.00  0.00    +0.000 C 
ENDROOT
BRANCH   1   4
ATOM      4  C   UNL     1      45.480   7.005  11.678  0.00  0.00    +0.000 A 
ATOM      5  C   UNL     1      44.699   8.152  11.854  0.00  0.00    +0.000 A 
ATOM      6  C   UNL     1      45.288   9.397  12.087  0.00  0.00    +0.000 A 
ATOM      7  C   UNL     1      46.680   9.516  12.161  0.00  0.00    +0.000 A 
ATOM      8  C   UNL     1      47.512   8.401  11.989  0.00  0.00    +0.000 A 
ATOM      9  C   UNL     1      46.882   7.171  11.715  0.00  0.00    +0.000 A 
BRANCH   8  10
ATOM     10  C   UNL     1      48.981   8.475  12.153  0.00  0.00    +0.000 A 
ATOM     11  C   UNL     1      49.868   7.872  11.251  0.00  0.00    +0.000 A 
ATOM     12  C   UNL     1      51.248   7.908  11.465  0.00  0.00    +0.000 A 
ATOM     13  CA  UNL     1      51.737   8.562  12.589  0.00  0.00    +0.000 A 
ATOM     14  N   UNL     1      50.918   9.158  13.492  0.00  0.00    +0.000 NA
ATOM     15  C   UNL     1      49.580   9.098  13.250  0.00  0.00    +0.000 A 
BRANCH  13  16
ATOM     16  C   UNL     1      53.222   8.646  12.846  0.00  0.00    +0.000 C 
BRANCH  16  17
ATOM     17  O   UNL     1      53.822   7.355  12.780  0.00  0.00    +0.000 OA
ATOM     18  H   UNL     1      53.086   6.745  12.579  0.00  0.00    +0.000 HD
ENDBRANCH  16  17
ENDBRANCH  13  16
ENDBRANCH   8  10
ENDBRANCH   1   4
BRANCH   1  19
ATOM     19  N   UNL     1      44.615   5.215  10.148  0.00  0.00    +0.000 N 
ATOM     20  H   UNL     1      43.720   5.488   9.750  0.00  0.00    +0.000 HD
BRANCH  19  27
ATOM     21  C   UNL     1      44.155   2.122   9.969  0.00  0.00    +0.000 C 
ATOM     22  C   UNL     1      45.071   2.964   9.147  0.00  0.00    +0.000 A 
ATOM     23  C   UNL     1      45.884   2.270   8.224  0.00  0.00    +0.000 A 
ATOM     24  C   UNL     1      46.760   2.936   7.373  0.00  0.00    +0.000 A 
ATOM     25  C   UNL     1      46.788   4.306   7.489  0.00  0.00    +0.000 A 
ATOM     26  N   UNL     1      46.046   5.007   8.394  0.00  0.00    +0.000 NA
ATOM     27  C   UNL     1      45.204   4.346   9.240  0.00  0.00    +0.000 A 
BRANCH  24  28
ATOM     28  C   UNL     1      47.582   2.128   6.435  0.00  0.00    +0.000 C 
ATOM     29  N   UNL     1      48.202   2.739   5.383  0.00  0.00    +0.000 N 
ATOM     30  O   UNL     1      47.712   0.919   6.591  0.00  0.00    +0.000 OA
ATOM     31  H   UNL     1      48.174   3.720   5.159  0.00  0.00    +0.000 HD
ATOM     32  H   UNL     1      48.752   2.135   4.782  0.00  0.00    +0.000 HD
ENDBRANCH  24  28
ENDBRANCH  19  27
ENDBRANCH   1  19
TORSDOF 7
ENDMDL
MODEL 6
REMARK VINA RESULT:    -7.676      3.414      8.614
REMARK INTER + INTRA:         -11.055
REMARK INTER:                 -10.037
REMARK INTRA:                  -1.019
REMARK UNBOUND:                -0.463
REMARK  Name = 
REMARK  8 active torsions:
REMARK  status: ('A' for Active; 'I' for Inactive)
REMARK    1  A    between atoms: C_1  and  C_2
REMARK    2  A    between atoms: C_4  and  C_5
REMARK    3  A    between atoms: C_10  and  N_11
REMARK    4  A    between atoms: N_11  and  C_12
REMARK    5  A    between atoms: C_12  and  C_13
REMARK    6  A    between atoms: C_17  and  C_18
REMARK    7  A    between atoms: CA_21  and  C_22
REMARK    8  A    between atoms: C_22  and  O_23
REMARK                            x       y       z     vdW  Elec       q    Type
REMARK                         _______ _______ _______ _____ _____    ______ ____
ROOT
ATOM      1  C   UNL     1      48.949   5.577  17.688  0.00  0.00    +0.000 C 
ATOM      2  C   UNL     1      48.450   6.543  18.782  0.00  0.00    +0.000 C 
ATOM      3  C   UNL     1      47.647   5.347  18.438  0.00  0.00    +0.000 C 
ENDROOT
BRANCH   1   4
ATOM      4  C   UNL     1      48.795   6.072  16.240  0.00  0.00    +0.000 A 
ATOM      5  C   UNL     1      49.679   6.999  15.678  0.00  0.00    +0.000 A 
ATOM      6  C   UNL     1      49.592   7.354  14.330  0.00  0.00    +0.000 A 
ATOM      7  C   UNL     1      48.618   6.774  13.510  0.00  0.00    +0.000 A 
ATOM      8  C   UNL     1      47.704   5.841  14.019  0.00  0.00    +0.000 A 
ATOM      9  C   UNL     1      47.798   5.540  15.392  0.00  0.00    +0.000 A 
BRANCH   8  10
ATOM     10  C   UNL     1      46.723   5.142  13.160  0.00  0.00    +0.000 A 
ATOM     11  C   UNL     1      46.069   5.777  12.095  0.00  0.00    +0.000 A 
ATOM     12  C   UNL     1      45.104   5.107  11.341  0.00  0.00    +0.000 A 
ATOM     13  CA  UNL     1      44.802   3.787  11.655  0.00  0.00    +0.000 A 
ATOM     14  N   UNL     1      45.406   3.131  12.676  0.00  0.00    +0.000 NA
ATOM     15  C   UNL     1      46.338   3.818  13.390  0.00  0.00    +0.000 A 
BRANCH  13  16
ATOM     16  C   UNL     1      43.783   3.018  10.849  0.00  0.00    +0.000 C 
BRANCH  16  17
ATOM     17  O   UNL     1      42.999   2.177  11.692  0.00  0.00    +0.000 OA
ATOM     18  H   UNL     1      42.083   2.499  11.585  0.00  0.00    +0.000 HD
ENDBRANCH  16  17
ENDBRANCH  13  16
ENDBRANCH   8  10
ENDBRANCH   1   4
BRANCH   1  19
ATOM     19  N   UNL     1      50.282   5.034  17.972  0.00  0.00    +0.000 N 
ATOM     20  H   UNL     1      51.003   5.711  18.208  0.00  0.00    +0.000 HD
BRANCH  19  27
ATOM     21  C   UNL     1      49.005   2.407  16.840  0.00  0.00    +0.000 C 
ATOM     22  C   UNL     1      50.396   2.612  17.336  0.00  0.00    +0.000 A 
ATOM     23  C   UNL     1      51.217   1.463  17.367  0.00  0.00    +0.000 A 
ATOM     24  C   UNL     1      52.544   1.520  17.778  0.00  0.00    +0.000 A 
ATOM     25  C   UNL     1      53.005   2.759  18.154  0.00  0.00    +0.000 A 
ATOM     26  N   UNL     1      52.233   3.883  18.174  0.00  0.00    +0.000 NA
ATOM     27  C   UNL     1      50.926   3.817  17.789  0.00  0.00    +0.000 A 
BRANCH  24  28
ATOM     28  C   UNL     1      53.335   0.261  17.784  0.00  0.00    +0.000 C 
ATOM     29  N   UNL     1      53.892  -0.190  16.622  0.00  0.00    +0.000 N 
ATOM     30  O   UNL     1      53.495  -0.377  18.817  0.00  0.00    +0.000 OA
ATOM     31  H   UNL     1      53.834   0.251  15.719  0.00  0.00    +0.000 HD
ATOM     32  H   UNL     1      54.423  -1.051  16.692  0.00  0.00    +0.000 HD
ENDBRANCH  24  28
ENDBRANCH  19  27
ENDBRANCH   1  19
TORSDOF 7
ENDMDL
MODEL 7
REMARK VINA RESULT:    -7.359      2.043      8.786
REMARK INTER + INTRA:         -10.618
REMARK INTER:                  -9.791
REMARK INTRA:                  -0.827
REMARK UNBOUND:                -0.463
REMARK  Name = 
REMARK  8 active torsions:
REMARK  status: ('A' for Active; 'I' for Inactive)
REMARK    1  A    between atoms: C_1  and  C_2
REMARK    2  A    between atoms: C_4  and  C_5
REMARK    3  A    between atoms: C_10  and  N_11
REMARK    4  A    between atoms: N_11  and  C_12
REMARK    5  A    between atoms: C_12  and  C_13
REMARK    6  A    between atoms: C_17  and  C_18
REMARK    7  A    between atoms: CA_21  and  C_22
REMARK    8  A    between atoms: C_22  and  O_23
REMARK                            x       y       z     vdW  Elec       q    Type
REMARK                         _______ _______ _______ _____ _____    ______ ____
ROOT
ATOM      1  C   UNL     1      46.476   7.182  12.863  0.00  0.00    +0.000 C 
ATOM      2  C   UNL     1      46.852   8.492  12.142  0.00  0.00    +0.000 C 
ATOM      3  C   UNL     1      45.925   8.531  13.296  0.00  0.00    +0.000 C 
ENDROOT
BRANCH   1   4
ATOM      4  C   UNL     1      45.481   6.274  12.120  0.00  0.00    +0.000 A 
ATOM      5  C   UNL     1      44.110   6.297  12.400  0.00  0.00    +0.000 A 
ATOM      6  C   UNL     1      43.206   5.549  11.642  0.00  0.00    +0.000 A 
ATOM      7  C   UNL     1      43.659   4.768  10.574  0.00  0.00    +0.000 A 
ATOM      8  C   UNL     1      45.022   4.704  10.250  0.00  0.00    +0.000 A 
ATOM      9  C   UNL     1      45.906   5.440  11.063  0.00  0.00    +0.000 A 
BRANCH   8  10
ATOM     10  C   UNL     1      45.523   3.962   9.072  0.00  0.00    +0.000 A 
ATOM     11  C   UNL     1      45.542   2.562   9.019  0.00  0.00    +0.000 A 
ATOM     12  C   UNL     1      46.078   1.891   7.918  0.00  0.00    +0.000 A 
ATOM     13  CA  UNL     1      46.588   2.634   6.860  0.00  0.00    +0.000 A 
ATOM     14  N   UNL     1      46.594   3.989   6.866  0.00  0.00    +0.000 NA
ATOM     15  C   UNL     1      46.067   4.607   7.958  0.00  0.00    +0.000 A 
BRANCH  13  16
ATOM     16  C   UNL     1      47.153   1.948   5.640  0.00  0.00    +0.000 C 
BRANCH  16  17
ATOM     17  O   UNL     1      48.551   1.713   5.791  0.00  0.00    +0.000 OA
ATOM     18  H   UNL     1      48.983   2.448   5.315  0.00  0.00    +0.000 HD
ENDBRANCH  16  17
ENDBRANCH  13  16
ENDBRANCH   8  10
ENDBRANCH   1   4
BRANCH   1  19
ATOM     19  N   UNL     1      47.644   6.458  13.376  0.00  0.00    +0.000 N 
ATOM     20  H   UNL     1      47.841   5.559  12.945  0.00  0.00    +0.000 HD
BRANCH  19  27
ATOM     21  C   UNL     1      50.070   8.409  13.722  0.00  0.00    +0.000 C 
ATOM     22  C   UNL     1      49.587   7.368  14.672  0.00  0.00    +0.000 A 
ATOM     23  C   UNL     1      50.362   7.189  15.839  0.00  0.00    +0.000 A 
ATOM     24  C   UNL     1      50.007   6.273  16.824  0.00  0.00    +0.000 A 
ATOM     25  C   UNL     1      48.860   5.552  16.589  0.00  0.00    +0.000 A 
ATOM     26  N   UNL     1      48.107   5.669  15.458  0.00  0.00    +0.000 NA
ATOM     27  C   UNL     1      48.472   6.554  14.487  0.00  0.00    +0.000 A 
BRANCH  24  28
ATOM     28  C   UNL     1      50.882   6.147  18.018  0.00  0.00    +0.000 C 
ATOM     29  N   UNL     1      50.341   5.775  19.214  0.00  0.00    +0.000 N 
ATOM     30  O   UNL     1      52.085   6.372  17.945  0.00  0.00    +0.000 OA
ATOM     31  H   UNL     1      49.374   5.558  19.393  0.00  0.00    +0.000 HD
ATOM     32  H   UNL     1      50.990   5.701  19.990  0.00  0.00    +0.000 HD
ENDBRANCH  24  28
ENDBRANCH  19  27
ENDBRANCH   1  19
TORSDOF 7
ENDMDL
MODEL 8
REMARK VINA RESULT:    -7.347      3.427      8.205
REMARK INTER + INTRA:         -10.602
REMARK INTER:                  -9.932
REMARK INTRA:                  -0.671
REMARK UNBOUND:                -0.463
REMARK  Name = 
REMARK  8 active torsions:
REMARK  status: ('A' for Active; 'I' for Inactive)
REMARK    1  A    between atoms: C_1  and  C_2
REMARK    2  A    between atoms: C_4  and  C_5
REMARK    3  A    between atoms: C_10  and  N_11
REMARK    4  A    between atoms: N_11  and  C_12
REMARK    5  A    between atoms: C_12  and  C_13
REMARK    6  A    between atoms: C_17  and  C_18
REMARK    7  A    between atoms: CA_21  and  C_22
REMARK    8  A    between atoms: C_22  and  O_23
REMARK                            x       y       z     vdW  Elec       q    Type
REMARK                         _______ _______ _______ _____ _____    ______ ____
ROOT
ATOM      1  C   UNL     1      49.082   7.387  16.803  0.00  0.00    +0.000 C 
ATOM      2  C   UNL     1      50.236   8.273  17.314  0.00  0.00    +0.000 C 
ATOM      3  C   UNL     1      48.846   8.783  17.354  0.00  0.00    +0.000 C 
ENDROOT
BRANCH   1   4
ATOM      4  C   UNL     1      48.968   7.256  15.274  0.00  0.00    +0.000 A 
ATOM      5  C   UNL     1      49.973   7.718  14.417  0.00  0.00    +0.000 A 
ATOM      6  C   UNL     1      49.906   7.493  13.040  0.00  0.00    +0.000 A 
ATOM      7  C   UNL     1      48.830   6.786  12.493  0.00  0.00    +0.000 A 
ATOM      8  C   UNL     1      47.793   6.303  13.303  0.00  0.00    +0.000 A 
ATOM      9  C   UNL     1      47.876   6.586  14.681  0.00  0.00    +0.000 A 
BRANCH   8  10
ATOM     10  C   UNL     1      46.689   5.474  12.769  0.00  0.00    +0.000 A 
ATOM     11  C   UNL     1      45.875   5.898  11.711  0.00  0.00    +0.000 A 
ATOM     12  C   UNL     1      44.803   5.119  11.270  0.00  0.00    +0.000 A 
ATOM     13  CA  UNL     1      44.556   3.902  11.892  0.00  0.00    +0.000 A 
ATOM     14  N   UNL     1      45.315   3.449  12.921  0.00  0.00    +0.000 NA
ATOM     15  C   UNL     1      46.347   4.238  13.325  0.00  0.00    +0.000 A 
BRANCH  13  16
ATOM     16  C   UNL     1      43.424   3.017  11.431  0.00  0.00    +0.000 C 
BRANCH  16  17
ATOM     17  O   UNL     1      43.350   1.832  12.220  0.00  0.00    +0.000 OA
ATOM     18  H   UNL     1      43.604   1.110  11.613  0.00  0.00    +0.000 HD
ENDBRANCH  16  17
ENDBRANCH  13  16
ENDBRANCH   8  10
ENDBRANCH   1   4
BRANCH   1  19
ATOM     19  N   UNL     1      49.003   6.098  17.498  0.00  0.00    +0.000 N 
ATOM     20  H   UNL     1      48.472   6.086  18.365  0.00  0.00    +0.000 HD
BRANCH  19  27
ATOM     21  C   UNL     1      47.688   3.315  16.914  0.00  0.00    +0.000 C 
ATOM     22  C   UNL     1      49.119   3.611  17.210  0.00  0.00    +0.000 A 
ATOM     23  C   UNL     1      49.973   2.490  17.311  0.00  0.00    +0.000 A 
ATOM     24  C   UNL     1      51.336   2.625  17.552  0.00  0.00    +0.000 A 
ATOM     25  C   UNL     1      51.798   3.913  17.689  0.00  0.00    +0.000 A 
ATOM     26  N   UNL     1      50.999   5.017  17.636  0.00  0.00    +0.000 NA
ATOM     27  C   UNL     1      49.659   4.877  17.420  0.00  0.00    +0.000 A 
BRANCH  24  28
ATOM     28  C   UNL     1      52.161   1.393  17.648  0.00  0.00    +0.000 C 
ATOM     29  N   UNL     1      51.597   0.238  18.107  0.00  0.00    +0.000 N 
ATOM     30  O   UNL     1      53.341   1.398  17.320  0.00  0.00    +0.000 OA
ATOM     31  H   UNL     1      50.640   0.112  18.397  0.00  0.00    +0.000 HD
ATOM     32  H   UNL     1      52.209  -0.570  18.144  0.00  0.00    +0.000 HD
ENDBRANCH  24  28
ENDBRANCH  19  27
ENDBRANCH   1  19
TORSDOF 7
ENDMDL
MODEL 9
REMARK VINA RESULT:    -7.219      2.286      8.826
REMARK INTER + INTRA:         -10.425
REMARK INTER:                  -9.334
REMARK INTRA:                  -1.091
REMARK UNBOUND:                -0.463
REMARK  Name = 
REMARK  8 active torsions:
REMARK  status: ('A' for Active; 'I' for Inactive)
REMARK    1  A    between atoms: C_1  and  C_2
REMARK    2  A    between atoms: C_4  and  C_5
REMARK    3  A    between atoms: C_10  and  N_11
REMARK    4  A    between atoms: N_11  and  C_12
REMARK    5  A    between atoms: C_12  and  C_13
REMARK    6  A    between atoms: C_17  and  C_18
REMARK    7  A    between atoms: CA_21  and  C_22
REMARK    8  A    between atoms: C_22  and  O_23
REMARK                            x       y       z     vdW  Elec       q    Type
REMARK                         _______ _______ _______ _____ _____    ______ ____
ROOT
ATOM      1  C   UNL     1      49.015   8.208  13.629  0.00  0.00    +0.000 C 
ATOM      2  C   UNL     1      50.112   8.441  12.571  0.00  0.00    +0.000 C 
ATOM      3  C   UNL     1      49.651   9.571  13.410  0.00  0.00    +0.000 C 
ENDROOT
BRANCH   1   4
ATOM      4  C   UNL     1      47.584   8.056  13.084  0.00  0.00    +0.000 A 
ATOM      5  C   UNL     1      46.665   9.111  13.118  0.00  0.00    +0.000 A 
ATOM      6  C   UNL     1      45.409   8.992  12.520  0.00  0.00    +0.000 A 
ATOM      7  C   UNL     1      45.050   7.811  11.861  0.00  0.00    +0.000 A 
ATOM      8  C   UNL     1      45.929   6.721  11.797  0.00  0.00    +0.000 A 
ATOM      9  C   UNL     1      47.171   6.865  12.448  0.00  0.00    +0.000 A 
BRANCH   8  10
ATOM     10  C   UNL     1      45.618   5.495  11.031  0.00  0.00    +0.000 A 
ATOM     11  C   UNL     1      45.708   5.439   9.633  0.00  0.00    +0.000 A 
ATOM     12  C   UNL     1      45.349   4.285   8.935  0.00  0.00    +0.000 A 
ATOM     13  CA  UNL     1      44.906   3.177   9.647  0.00  0.00    +0.000 A 
ATOM     14  N   UNL     1      44.800   3.184  10.999  0.00  0.00    +0.000 NA
ATOM     15  C   UNL     1      45.155   4.328  11.644  0.00  0.00    +0.000 A 
BRANCH  13  16
ATOM     16  C   UNL     1      44.531   1.902   8.933  0.00  0.00    +0.000 C 
BRANCH  16  17
ATOM     17  O   UNL     1      45.690   1.124   8.642  0.00  0.00    +0.000 OA
ATOM     18  H   UNL     1      46.418   1.570   9.115  0.00  0.00    +0.000 HD
ENDBRANCH  16  17
ENDBRANCH  13  16
ENDBRANCH   8  10
ENDBRANCH   1   4
BRANCH   1  19
ATOM     19  N   UNL     1      49.373   7.172  14.603  0.00  0.00    +0.000 N 
ATOM     20  H   UNL     1      49.933   6.399  14.253  0.00  0.00    +0.000 HD
BRANCH  19  27
ATOM     21  C   UNL     1      48.573   9.133  16.911  0.00  0.00    +0.000 C 
ATOM     22  C   UNL     1      48.643   7.644  16.954  0.00  0.00    +0.000 A 
ATOM     23  C   UNL     1      48.387   7.050  18.209  0.00  0.00    +0.000 A 
ATOM     24  C   UNL     1      48.388   5.669  18.382  0.00  0.00    +0.000 A 
ATOM     25  C   UNL     1      48.657   4.923  17.259  0.00  0.00    +0.000 A 
ATOM     26  N   UNL     1      48.946   5.461  16.039  0.00  0.00    +0.000 NA
ATOM     27  C   UNL     1      48.963   6.816  15.881  0.00  0.00    +0.000 A 
BRANCH  24  28
ATOM     28  C   UNL     1      48.113   5.128  19.738  0.00  0.00    +0.000 C 
ATOM     29  N   UNL     1      48.530   3.869  20.059  0.00  0.00    +0.000 N 
ATOM     30  O   UNL     1      47.516   5.797  20.574  0.00  0.00    +0.000 OA
ATOM     31  H   UNL     1      49.033   3.234  19.461  0.00  0.00    +0.000 HD
ATOM     32  H   UNL     1      48.317   3.559  21.001  0.00  0.00    +0.000 HD
ENDBRANCH  24  28
ENDBRANCH  19  27
ENDBRANCH   1  19
TORSDOF 7
ENDMDL
