MODEL 1
REMARK VINA RESULT:    -9.268      0.000      0.000
REMARK INTER + INTRA:         -11.963
REMARK INTER:                 -11.976
REMARK INTRA:                   0.013
REMARK UNBOUND:                 0.013
REMARK  Name = 
REMARK  5 active torsions:
REMARK  status: ('A' for Active; 'I' for Inactive)
REMARK    1  A    between atoms: C_2  and  C_4
REMARK    2  A    between atoms: C_7  and  O_8
REMARK    3  A    between atoms: O_8  and  C_9
REMARK    4  A    between atoms: C_9  and  C_10
REMARK    5  A    between atoms: C_14  and  C_15
REMARK                            x       y       z     vdW  Elec       q    Type
REMARK                         _______ _______ _______ _____ _____    ______ ____
ROOT
ATOM      1  C   UNL     1      43.791   4.965  11.093  0.00  0.00    +0.000 C 
ATOM      2  C   UNL     1      43.000   3.896  11.837  0.00  0.00    +0.000 C 
ATOM      3  C   UNL     1      42.579   5.322  11.922  0.00  0.00    +0.000 C 
ENDROOT
BRANCH   1   4
ATOM      4  C   UNL     1      45.152   5.427  11.577  0.00  0.00    +0.000 A 
ATOM      5  C   UNL     1      45.824   6.491  10.964  0.00  0.00    +0.000 A 
ATOM      6  C   UNL     1      47.005   7.002  11.501  0.00  0.00    +0.000 A 
ATOM      7  C   UNL     1      47.536   6.457  12.672  0.00  0.00    +0.000 A 
ATOM      8  C   UNL     1      46.905   5.391  13.331  0.00  0.00    +0.000 A 
ATOM      9  C   UNL     1      45.733   4.880  12.745  0.00  0.00    +0.000 A 
BRANCH   8  10
ATOM     10  C   UNL     1      47.397   4.891  14.627  0.00  0.00    +0.000 A 
ATOM     11  C   UNL     1      47.096   3.622  15.104  0.00  0.00    +0.000 A 
ATOM     12  N   UNL     1      47.543   3.097  16.267  0.00  0.00    +0.000 NA
ATOM     13  C   UNL     1      48.348   3.891  16.983  0.00  0.00    +0.000 A 
ATOM     14  N   UNL     1      48.723   5.133  16.650  0.00  0.00    +0.000 NA
ATOM     15  C   UNL     1      48.237   5.598  15.475  0.00  0.00    +0.000 A 
ENDBRANCH   8  10
ENDBRANCH   1   4
BRANCH   1  16
ATOM     16  O   UNL     1      43.665   4.711   9.674  0.00  0.00    +0.000 OA
BRANCH  16  20
ATOM     17  C   UNL     1      46.466   2.456   7.705  0.00  0.00    +0.000 A 
ATOM     18  C   UNL     1      45.619   1.860   8.637  0.00  0.00    +0.000 A 
ATOM     19  C   UNL     1      44.706   2.657   9.316  0.00  0.00    +0.000 A 
ATOM     20  C   UNL     1      44.673   4.017   9.038  0.00  0.00    +0.000 A 
ATOM     21  N   UNL     1      45.493   4.633   8.161  0.00  0.00    +0.000 NA
ATOM     22  C   UNL     1      46.389   3.834   7.525  0.00  0.00    +0.000 A 
BRANCH  17  24
ATOM     23  N   UNL     1      48.520   2.353   6.416  0.00  0.00    +0.000 N 
ATOM     24  C   UNL     1      47.432   1.678   6.906  0.00  0.00    +0.000 C 
ATOM     25  O   UNL     1      47.288   0.482   6.717  0.00  0.00    +0.000 OA
ATOM     26  H   UNL     1      49.227   1.788   5.960  0.00  0.00    +0.000 HD
ATOM     27  H   UNL     1      48.798   3.263   6.757  0.00  0.00    +0.000 HD
ENDBRANCH  17  24
ENDBRANCH  16  20
ENDBRANCH   1  16
TORSDOF 5
ENDMDL
MODEL 2
REMARK VINA RESULT:    -9.135      1.960      2.901
REMARK INTER + INTRA:         -11.792
REMARK INTER:                 -10.773
REMARK INTRA:                  -1.020
REMARK UNBOUND:                 0.013
REMARK  Name = 
REMARK  5 active torsions:
REMARK  status: ('A' for Active; 'I' for Inactive)
REMARK    1  A    between atoms: C_2  and  C_4
REMARK    2  A    between atoms: C_7  and  O_8
REMARK    3  A    between atoms: O_8  and  C_9
REMARK    4  A    between atoms: C_9  and  C_10
REMARK    5  A    between atoms: C_14  and  C_15
REMARK                            x       y       z     vdW  Elec       q    Type
REMARK                         _______ _______ _______ _____ _____    ______ ____
ROOT
ATOM      1  C   UNL     1      43.722   4.989  11.209  0.00  0.00    +0.000 C 
ATOM      2  C   UNL     1      42.367   5.383  11.784  0.00  0.00    +0.000 C 
ATOM      3  C   UNL     1      43.149   6.370  10.989  0.00  0.00    +0.000 C 
ENDROOT
BRANCH   1   4
ATOM      4  C   UNL     1      44.949   4.854  12.090  0.00  0.00    +0.000 A 
ATOM      5  C   UNL     1      45.242   3.658  12.756  0.00  0.00    +0.000 A 
ATOM      6  C   UNL     1      46.442   3.495  13.447  0.00  0.00    +0.000 A 
ATOM      7  C   UNL     1      47.379   4.529  13.480  0.00  0.00    +0.000 A 
ATOM      8  C   UNL     1      47.141   5.750  12.829  0.00  0.00    +0.000 A 
ATOM      9  C   UNL     1      45.908   5.891  12.167  0.00  0.00    +0.000 A 
BRANCH   8  10
ATOM     10  C   UNL     1      48.173   6.799  12.762  0.00  0.00    +0.000 A 
ATOM     11  C   UNL     1      48.323   7.635  11.664  0.00  0.00    +0.000 A 
ATOM     12  N   UNL     1      49.228   8.633  11.558  0.00  0.00    +0.000 NA
ATOM     13  C   UNL     1      50.018   8.807  12.624  0.00  0.00    +0.000 A 
ATOM     14  N   UNL     1      49.989   8.080  13.749  0.00  0.00    +0.000 NA
ATOM     15  C   UNL     1      49.061   7.094  13.786  0.00  0.00    +0.000 A 
ENDBRANCH   8  10
ENDBRANCH   1   4
BRANCH   1  16
ATOM     16  O   UNL     1      43.509   3.940  10.237  0.00  0.00    +0.000 OA
BRANCH  16  20
ATOM     17  C   UNL     1      46.432   2.731   7.628  0.00  0.00    +0.000 A 
ATOM     18  C   UNL     1      45.822   1.805   8.470  0.00  0.00    +0.000 A 
ATOM     19  C   UNL     1      44.861   2.251   9.370  0.00  0.00    +0.000 A 
ATOM     20  C   UNL     1      44.547   3.603   9.394  0.00  0.00    +0.000 A 
ATOM     21  N   UNL     1      45.134   4.533   8.611  0.00  0.00    +0.000 NA
ATOM     22  C   UNL     1      46.083   4.073   7.754  0.00  0.00    +0.000 A 
BRANCH  17  24
ATOM     23  N   UNL     1      47.394   3.011   5.416  0.00  0.00    +0.000 N 
ATOM     24  C   UNL     1      47.426   2.338   6.610  0.00  0.00    +0.000 C 
ATOM     25  O   UNL     1      48.260   1.476   6.832  0.00  0.00    +0.000 OA
ATOM     26  H   UNL     1      48.146   2.806   4.768  0.00  0.00    +0.000 HD
ATOM     27  H   UNL     1      46.896   3.882   5.293  0.00  0.00    +0.000 HD
ENDBRANCH  17  24
ENDBRANCH  16  20
ENDBRANCH   1  16
TORSDOF 5
ENDMDL
MODEL 3
REMARK VINA RESULT:    -8.280      1.670      2.333
REMARK INTER + INTRA:         -10.688
REMARK INTER:                 -10.937
REMARK INTRA:                   0.249
REMARK UNBOUND:                 0.013
REMARK  Name = 
REMARK  5 active torsions:
REMARK  status: ('A' for Active; 'I' for Inactive)
REMARK    1  A    between atoms: C_2  and  C_4
REMARK    2  A    between atoms: C_7  and  O_8
REMARK    3  A    between atoms: O_8  and  C_9
REMARK    4  A    between atoms: C_9  and  C_10
REMARK    5  A    between atoms: C_14  and  C_15
REMARK                            x       y       z     vdW  Elec       q    Type
REMARK                         _______ _______ _______ _____ _____    ______ ____
ROOT
ATOM      1  C   UNL     1      44.171   4.493  11.586  0.00  0.00    +0.000 C 
ATOM      2  C   UNL     1      44.643   3.263  12.352  0.00  0.00    +0.000 C 
ATOM      3  C   UNL     1      43.420   3.988  12.796  0.00  0.00    +0.000 C 
ENDROOT
BRANCH   1   4
ATOM      4  C   UNL     1      44.895   5.822  11.695  0.00  0.00    +0.000 A 
ATOM      5  C   UNL     1      44.280   7.022  11.317  0.00  0.00    +0.000 A 
ATOM      6  C   UNL     1      44.896   8.250  11.552  0.00  0.00    +0.000 A 
ATOM      7  C   UNL     1      46.143   8.302  12.178  0.00  0.00    +0.000 A 
ATOM      8  C   UNL     1      46.806   7.132  12.579  0.00  0.00    +0.000 A 
ATOM      9  C   UNL     1      46.170   5.908  12.300  0.00  0.00    +0.000 A 
BRANCH   8  10
ATOM     10  C   UNL     1      48.065   7.186  13.343  0.00  0.00    +0.000 A 
ATOM     11  C   UNL     1      49.160   7.935  12.930  0.00  0.00    +0.000 A 
ATOM     12  N   UNL     1      50.327   8.049  13.603  0.00  0.00    +0.000 NA
ATOM     13  C   UNL     1      50.390   7.382  14.761  0.00  0.00    +0.000 A 
ATOM     14  N   UNL     1      49.418   6.622  15.283  0.00  0.00    +0.000 NA
ATOM     15  C   UNL     1      48.277   6.549  14.556  0.00  0.00    +0.000 A 
ENDBRANCH   8  10
ENDBRANCH   1   4
BRANCH   1  16
ATOM     16  O   UNL     1      43.791   4.075  10.255  0.00  0.00    +0.000 OA
BRANCH  16  20
ATOM     17  C   UNL     1      46.561   2.750   7.538  0.00  0.00    +0.000 A 
ATOM     18  C   UNL     1      45.903   1.841   8.364  0.00  0.00    +0.000 A 
ATOM     19  C   UNL     1      44.998   2.324   9.301  0.00  0.00    +0.000 A 
ATOM     20  C   UNL     1      44.783   3.694   9.376  0.00  0.00    +0.000 A 
ATOM     21  N   UNL     1      45.419   4.605   8.610  0.00  0.00    +0.000 NA
ATOM     22  C   UNL     1      46.313   4.108   7.716  0.00  0.00    +0.000 A 
BRANCH  17  24
ATOM     23  N   UNL     1      47.441   2.987   5.288  0.00  0.00    +0.000 N 
ATOM     24  C   UNL     1      47.502   2.320   6.485  0.00  0.00    +0.000 C 
ATOM     25  O   UNL     1      48.318   1.436   6.679  0.00  0.00    +0.000 OA
ATOM     26  H   UNL     1      48.160   2.756   4.612  0.00  0.00    +0.000 HD
ATOM     27  H   UNL     1      46.965   3.872   5.179  0.00  0.00    +0.000 HD
ENDBRANCH  17  24
ENDBRANCH  16  20
ENDBRANCH   1  16
TORSDOF 5
ENDMDL
MODEL 4
REMARK VINA RESULT:    -7.893      3.096      4.819
REMARK INTER + INTRA:         -10.187
REMARK INTER:                 -10.413
REMARK INTRA:                   0.227
REMARK UNBOUND:                 0.013
REMARK  Name = 
REMARK  5 active torsions:
REMARK  status: ('A' for Active; 'I' for Inactive)
REMARK    1  A    between atoms: C_2  and  C_4
REMARK    2  A    between atoms: C_7  and  O_8
REMARK    3  A    between atoms: O_8  and  C_9
REMARK    4  A    between atoms: C_9  and  C_10
REMARK    5  A    between atoms: C_14  and  C_15
REMARK                            x       y       z     vdW  Elec       q    Type
REMARK                         _______ _______ _______ _____ _____    ______ ____
ROOT
ATOM      1  C   UNL     1      44.038   4.116  11.492  0.00  0.00    +0.000 C 
ATOM      2  C   UNL     1      44.489   2.847  12.204  0.00  0.00    +0.000 C 
ATOM      3  C   UNL     1      43.254   3.548  12.652  0.00  0.00    +0.000 C 
ENDROOT
BRANCH   1   4
ATOM      4  C   UNL     1      44.758   5.436  11.690  0.00  0.00    +0.000 A 
ATOM      5  C   UNL     1      46.123   5.485  11.996  0.00  0.00    +0.000 A 
ATOM      6  C   UNL     1      46.808   6.699  12.036  0.00  0.00    +0.000 A 
ATOM      7  C   UNL     1      46.137   7.892  11.762  0.00  0.00    +0.000 A 
ATOM      8  C   UNL     1      44.769   7.904  11.448  0.00  0.00    +0.000 A 
ATOM      9  C   UNL     1      44.103   6.666  11.446  0.00  0.00    +0.000 A 
BRANCH   8  10
ATOM     10  C   UNL     1      44.085   9.146  11.045  0.00  0.00    +0.000 A 
ATOM     11  C   UNL     1      44.752  10.354  10.894  0.00  0.00    +0.000 A 
ATOM     12  N   UNL     1      44.185  11.516  10.497  0.00  0.00    +0.000 NA
ATOM     13  C   UNL     1      42.876  11.453  10.227  0.00  0.00    +0.000 A 
ATOM     14  N   UNL     1      42.106  10.362  10.327  0.00  0.00    +0.000 NA
ATOM     15  C   UNL     1      42.736   9.233  10.733  0.00  0.00    +0.000 A 
ENDBRANCH   8  10
ENDBRANCH   1   4
BRANCH   1  16
ATOM     16  O   UNL     1      43.695   3.768  10.130  0.00  0.00    +0.000 OA
BRANCH  16  20
ATOM     17  C   UNL     1      46.565   2.607   7.443  0.00  0.00    +0.000 A 
ATOM     18  C   UNL     1      46.043   1.686   8.348  0.00  0.00    +0.000 A 
ATOM     19  C   UNL     1      45.099   2.118   9.271  0.00  0.00    +0.000 A 
ATOM     20  C   UNL     1      44.713   3.452   9.255  0.00  0.00    +0.000 A 
ATOM     21  N   UNL     1      45.214   4.377   8.410  0.00  0.00    +0.000 NA
ATOM     22  C   UNL     1      46.149   3.932   7.531  0.00  0.00    +0.000 A 
BRANCH  17  24
ATOM     23  N   UNL     1      47.716   3.105   5.364  0.00  0.00    +0.000 N 
ATOM     24  C   UNL     1      47.535   2.223   6.398  0.00  0.00    +0.000 C 
ATOM     25  O   UNL     1      48.171   1.186   6.468  0.00  0.00    +0.000 OA
ATOM     26  H   UNL     1      48.458   2.881   4.712  0.00  0.00    +0.000 HD
ATOM     27  H   UNL     1      47.403   4.066   5.404  0.00  0.00    +0.000 HD
ENDBRANCH  17  24
ENDBRANCH  16  20
ENDBRANCH   1  16
TORSDOF 5
ENDMDL
MODEL 5
REMARK VINA RESULT:    -7.612      2.723      7.454
REMARK INTER + INTRA:          -9.824
REMARK INTER:                  -9.061
REMARK INTRA:                  -0.762
REMARK UNBOUND:                 0.013
REMARK  Name = 
REMARK  5 active torsions:
REMARK  status: ('A' for Active; 'I' for Inactive)
REMARK    1  A    between atoms: C_2  and  C_4
REMARK    2  A    between atoms: C_7  and  O_8
REMARK    3  A    between atoms: O_8  and  C_9
REMARK    4  A    between atoms: C_9  and  C_10
REMARK    5  A    between atoms: C_14  and  C_15
REMARK                            x       y       z     vdW  Elec       q    Type
REMARK                         _______ _______ _______ _____ _____    ______ ____
ROOT
ATOM      1  C   UNL     1      46.497   7.243  12.590  0.00  0.00    +0.000 C 
ATOM      2  C   UNL     1      46.812   8.636  12.059  0.00  0.00    +0.000 C 
ATOM      3  C   UNL     1      45.985   8.481  13.288  0.00  0.00    +0.000 C 
ENDROOT
BRANCH   1   4
ATOM      4  C   UNL     1      45.491   6.340  11.902  0.00  0.00    +0.000 A 
ATOM      5  C   UNL     1      44.114   6.486  12.112  0.00  0.00    +0.000 A 
ATOM      6  C   UNL     1      43.191   5.750  11.370  0.00  0.00    +0.000 A 
ATOM      7  C   UNL     1      43.631   4.853  10.395  0.00  0.00    +0.000 A 
ATOM      8  C   UNL     1      44.998   4.666  10.140  0.00  0.00    +0.000 A 
ATOM      9  C   UNL     1      45.902   5.401  10.927  0.00  0.00    +0.000 A 
BRANCH   8  10
ATOM     10  C   UNL     1      45.463   3.808   9.034  0.00  0.00    +0.000 A 
ATOM     11  C   UNL     1      45.963   4.324   7.846  0.00  0.00    +0.000 A 
ATOM     12  N   UNL     1      46.433   3.590   6.812  0.00  0.00    +0.000 NA
ATOM     13  C   UNL     1      46.407   2.264   6.991  0.00  0.00    +0.000 A 
ATOM     14  N   UNL     1      45.955   1.628   8.079  0.00  0.00    +0.000 NA
ATOM     15  C   UNL     1      45.496   2.422   9.076  0.00  0.00    +0.000 A 
ENDBRANCH   8  10
ENDBRANCH   1   4
BRANCH   1  16
ATOM     16  O   UNL     1      47.739   6.626  12.999  0.00  0.00    +0.000 OA
BRANCH  16  20
ATOM     17  C   UNL     1      47.954   4.551  16.528  0.00  0.00    +0.000 A 
ATOM     18  C   UNL     1      47.127   4.100  15.503  0.00  0.00    +0.000 A 
ATOM     19  C   UNL     1      47.046   4.845  14.333  0.00  0.00    +0.000 A 
ATOM     20  C   UNL     1      47.795   6.010  14.231  0.00  0.00    +0.000 A 
ATOM     21  N   UNL     1      48.588   6.491  15.212  0.00  0.00    +0.000 NA
ATOM     22  C   UNL     1      48.633   5.753  16.353  0.00  0.00    +0.000 A 
BRANCH  17  24
ATOM     23  N   UNL     1      47.199   2.841  18.076  0.00  0.00    +0.000 N 
ATOM     24  C   UNL     1      48.136   3.798  17.785  0.00  0.00    +0.000 C 
ATOM     25  O   UNL     1      49.093   3.994  18.514  0.00  0.00    +0.000 OA
ATOM     26  H   UNL     1      47.391   2.260  18.885  0.00  0.00    +0.000 HD
ATOM     27  H   UNL     1      46.549   2.484  17.389  0.00  0.00    +0.000 HD
ENDBRANCH  17  24
ENDBRANCH  16  20
ENDBRANCH   1  16
TORSDOF 5
ENDMDL
MODEL 6
REMARK VINA RESULT:    -7.117      3.088      4.789
REMARK INTER + INTRA:          -9.184
REMARK INTER:                  -8.553
REMARK INTRA:                  -0.632
REMARK UNBOUND:                 0.013
REMARK  Name = 
REMARK  5 active torsions:
REMARK  status: ('A' for Active; 'I' for Inactive)
REMARK    1  A    between atoms: C_2  and  C_4
REMARK    2  A    between atoms: C_7  and  O_8
REMARK    3  A    between atoms: O_8  and  C_9
REMARK    4  A    between atoms: C_9  and  C_10
REMARK    5  A    between atoms: C_14  and  C_15
REMARK                            x       y       z     vdW  Elec       q    Type
REMARK                         _______ _______ _______ _____ _____    ______ ____
ROOT
ATOM      1  C   UNL     1      48.037   7.956  12.636  0.00  0.00    +0.000 C 
ATOM      2  C   UNL     1      48.809   8.891  11.713  0.00  0.00    +0.000 C 
ATOM      3  C   UNL     1      49.018   7.419  11.620  0.00  0.00    +0.000 C 
ENDROOT
BRANCH   1   4
ATOM      4  C   UNL     1      48.386   7.826  14.107  0.00  0.00    +0.000 A 
ATOM      5  C   UNL     1      48.598   8.954  14.910  0.00  0.00    +0.000 A 
ATOM      6  C   UNL     1      48.777   8.833  16.287  0.00  0.00    +0.000 A 
ATOM      7  C   UNL     1      48.741   7.575  16.891  0.00  0.00    +0.000 A 
ATOM      8  C   UNL     1      48.530   6.410  16.137  0.00  0.00    +0.000 A 
ATOM      9  C   UNL     1      48.383   6.565  14.747  0.00  0.00    +0.000 A 
BRANCH   8  10
ATOM     10  C   UNL     1      48.374   5.094  16.784  0.00  0.00    +0.000 A 
ATOM     11  C   UNL     1      47.178   4.390  16.771  0.00  0.00    +0.000 A 
ATOM     12  N   UNL     1      46.984   3.168  17.317  0.00  0.00    +0.000 NA
ATOM     13  C   UNL     1      48.058   2.622  17.899  0.00  0.00    +0.000 A 
ATOM     14  N   UNL     1      49.272   3.183  17.988  0.00  0.00    +0.000 NA
ATOM     15  C   UNL     1      49.396   4.408  17.423  0.00  0.00    +0.000 A 
ENDBRANCH   8  10
ENDBRANCH   1   4
BRANCH   1  16
ATOM     16  O   UNL     1      46.631   8.068  12.317  0.00  0.00    +0.000 OA
BRANCH  16  20
ATOM     17  C   UNL     1      44.693   4.530  11.587  0.00  0.00    +0.000 A 
ATOM     18  C   UNL     1      45.243   5.255  10.532  0.00  0.00    +0.000 A 
ATOM     19  C   UNL     1      45.860   6.469  10.806  0.00  0.00    +0.000 A 
ATOM     20  C   UNL     1      45.906   6.912  12.122  0.00  0.00    +0.000 A 
ATOM     21  N   UNL     1      45.364   6.249  13.165  0.00  0.00    +0.000 NA
ATOM     22  C   UNL     1      44.749   5.074  12.867  0.00  0.00    +0.000 A 
BRANCH  17  24
ATOM     23  N   UNL     1      43.801   2.473  12.519  0.00  0.00    +0.000 N 
ATOM     24  C   UNL     1      44.062   3.210  11.392  0.00  0.00    +0.000 C 
ATOM     25  O   UNL     1      43.755   2.807  10.283  0.00  0.00    +0.000 OA
ATOM     26  H   UNL     1      43.274   1.619  12.381  0.00  0.00    +0.000 HD
ATOM     27  H   UNL     1      43.808   2.873  13.447  0.00  0.00    +0.000 HD
ENDBRANCH  17  24
ENDBRANCH  16  20
ENDBRANCH   1  16
TORSDOF 5
ENDMDL
MODEL 7
REMARK VINA RESULT:    -7.100      2.432      7.455
REMARK INTER + INTRA:          -9.162
REMARK INTER:                  -8.579
REMARK INTRA:                  -0.584
REMARK UNBOUND:                 0.013
REMARK  Name = 
REMARK  5 active torsions:
REMARK  status: ('A' for Active; 'I' for Inactive)
REMARK    1  A    between atoms: C_2  and  C_4
REMARK    2  A    between atoms: C_7  and  O_8
REMARK    3  A    between atoms: O_8  and  C_9
REMARK    4  A    between atoms: C_9  and  C_10
REMARK    5  A    between atoms: C_14  and  C_15
REMARK                            x       y       z     vdW  Elec       q    Type
REMARK                         _______ _______ _______ _____ _____    ______ ____
ROOT
ATOM      1  C   UNL     1      45.355   6.022  11.905  0.00  0.00    +0.000 C 
ATOM      2  C   UNL     1      44.805   7.327  11.343  0.00  0.00    +0.000 C 
ATOM      3  C   UNL     1      44.263   6.782  12.619  0.00  0.00    +0.000 C 
ENDROOT
BRANCH   1   4
ATOM      4  C   UNL     1      45.008   4.682  11.284  0.00  0.00    +0.000 A 
ATOM      5  C   UNL     1      43.910   3.934  11.727  0.00  0.00    +0.000 A 
ATOM      6  C   UNL     1      43.514   2.775  11.060  0.00  0.00    +0.000 A 
ATOM      7  C   UNL     1      44.208   2.345   9.928  0.00  0.00    +0.000 A 
ATOM      8  C   UNL     1      45.314   3.055   9.437  0.00  0.00    +0.000 A 
ATOM      9  C   UNL     1      45.706   4.202  10.151  0.00  0.00    +0.000 A 
BRANCH   8  10
ATOM     10  C   UNL     1      45.977   2.671   8.178  0.00  0.00    +0.000 A 
ATOM     11  C   UNL     1      46.479   1.396   7.954  0.00  0.00    +0.000 A 
ATOM     12  N   UNL     1      47.066   0.976   6.811  0.00  0.00    +0.000 NA
ATOM     13  C   UNL     1      47.142   1.888   5.836  0.00  0.00    +0.000 A 
ATOM     14  N   UNL     1      46.702   3.152   5.908  0.00  0.00    +0.000 NA
ATOM     15  C   UNL     1      46.127   3.507   7.082  0.00  0.00    +0.000 A 
ENDBRANCH   8  10
ENDBRANCH   1   4
BRANCH   1  16
ATOM     16  O   UNL     1      46.745   6.231  12.247  0.00  0.00    +0.000 OA
BRANCH  16  20
ATOM     17  C   UNL     1      48.035   5.114  15.975  0.00  0.00    +0.000 A 
ATOM     18  C   UNL     1      47.114   4.325  15.290  0.00  0.00    +0.000 A 
ATOM     19  C   UNL     1      46.667   4.749  14.045  0.00  0.00    +0.000 A 
ATOM     20  C   UNL     1      47.157   5.943  13.531  0.00  0.00    +0.000 A 
ATOM     21  N   UNL     1      48.030   6.745  14.176  0.00  0.00    +0.000 NA
ATOM     22  C   UNL     1      48.437   6.317  15.400  0.00  0.00    +0.000 A 
BRANCH  17  24
ATOM     23  N   UNL     1      49.180   5.704  18.033  0.00  0.00    +0.000 N 
ATOM     24  C   UNL     1      48.598   4.717  17.280  0.00  0.00    +0.000 C 
ATOM     25  O   UNL     1      48.521   3.569  17.686  0.00  0.00    +0.000 OA
ATOM     26  H   UNL     1      49.468   5.440  18.969  0.00  0.00    +0.000 HD
ATOM     27  H   UNL     1      49.040   6.687  17.847  0.00  0.00    +0.000 HD
ENDBRANCH  17  24
ENDBRANCH  16  20
ENDBRANCH   1  16
TORSDOF 5
ENDMDL
MODEL 8
REMARK VINA RESULT:    -7.090      3.245      7.994
REMARK INTER + INTRA:          -9.149
REMARK INTER:                  -8.275
REMARK INTRA:                  -0.873
REMARK UNBOUND:                 0.013
REMARK  Name = 
REMARK  5 active torsions:
REMARK  status: ('A' for Active; 'I' for Inactive)
REMARK    1  A    between atoms: C_2  and  C_4
REMARK    2  A    between atoms: C_7  and  O_8
REMARK    3  A    between atoms: O_8  and  C_9
REMARK    4  A    between atoms: C_9  and  C_10
REMARK    5  A    between atoms: C_14  and  C_15
REMARK                            x       y       z     vdW  Elec       q    Type
REMARK                         _______ _______ _______ _____ _____    ______ ____
ROOT
ATOM      1  C   UNL     1      48.647   7.728  12.765  0.00  0.00    +0.000 C 
ATOM      2  C   UNL     1      49.586   8.347  11.736  0.00  0.00    +0.000 C 
ATOM      3  C   UNL     1      49.120   9.157  12.896  0.00  0.00    +0.000 C 
ENDROOT
BRANCH   1   4
ATOM      4  C   UNL     1      47.182   7.483  12.456  0.00  0.00    +0.000 A 
ATOM      5  C   UNL     1      46.205   8.446  12.737  0.00  0.00    +0.000 A 
ATOM      6  C   UNL     1      44.886   8.273  12.322  0.00  0.00    +0.000 A 
ATOM      7  C   UNL     1      44.518   7.131  11.609  0.00  0.00    +0.000 A 
ATOM      8  C   UNL     1      45.454   6.133  11.298  0.00  0.00    +0.000 A 
ATOM      9  C   UNL     1      46.770   6.324  11.758  0.00  0.00    +0.000 A 
BRANCH   8  10
ATOM     10  C   UNL     1      45.098   4.983  10.447  0.00  0.00    +0.000 A 
ATOM     11  C   UNL     1      45.536   4.857   9.136  0.00  0.00    +0.000 A 
ATOM     12  N   UNL     1      45.269   3.813   8.319  0.00  0.00    +0.000 NA
ATOM     13  C   UNL     1      44.529   2.837   8.858  0.00  0.00    +0.000 A 
ATOM     14  N   UNL     1      44.038   2.822  10.104  0.00  0.00    +0.000 NA
ATOM     15  C   UNL     1      44.340   3.900  10.867  0.00  0.00    +0.000 A 
ENDBRANCH   8  10
ENDBRANCH   1   4
BRANCH   1  16
ATOM     16  O   UNL     1      49.353   6.654  13.428  0.00  0.00    +0.000 OA
BRANCH  16  20
ATOM     17  C   UNL     1      48.308   6.058  17.347  0.00  0.00    +0.000 A 
ATOM     18  C   UNL     1      49.148   7.114  17.002  0.00  0.00    +0.000 A 
ATOM     19  C   UNL     1      49.515   7.268  15.670  0.00  0.00    +0.000 A 
ATOM     20  C   UNL     1      49.029   6.362  14.736  0.00  0.00    +0.000 A 
ATOM     21  N   UNL     1      48.234   5.314  15.037  0.00  0.00    +0.000 NA
ATOM     22  C   UNL     1      47.906   5.176  16.348  0.00  0.00    +0.000 A 
BRANCH  17  24
ATOM     23  N   UNL     1      46.509   5.521  18.886  0.00  0.00    +0.000 N 
ATOM     24  C   UNL     1      47.831   5.849  18.728  0.00  0.00    +0.000 C 
ATOM     25  O   UNL     1      48.584   5.930  19.683  0.00  0.00    +0.000 OA
ATOM     26  H   UNL     1      46.220   5.278  19.827  0.00  0.00    +0.000 HD
ATOM     27  H   UNL     1      45.929   5.203  18.122  0.00  0.00    +0.000 HD
ENDBRANCH  17  24
ENDBRANCH  16  20
ENDBRANCH   1  16
TORSDOF 5
ENDMDL
MODEL 9
REMARK VINA RESULT:    -6.720      4.244      8.362
REMARK INTER + INTRA:          -8.671
REMARK INTER:                  -8.381
REMARK INTRA:                  -0.290
REMARK UNBOUND:                 0.013
REMARK  Name = 
REMARK  5 active torsions:
REMARK  status: ('A' for Active; 'I' for Inactive)
REMARK    1  A    between atoms: C_2  and  C_4
REMARK    2  A    between atoms: C_7  and  O_8
REMARK    3  A    between atoms: O_8  and  C_9
REMARK    4  A    between atoms: C_9  and  C_10
REMARK    5  A    between atoms: C_14  and  C_15
REMARK                            x       y       z     vdW  Elec       q    Type
REMARK                         _______ _______ _______ _____ _____    ______ ____
ROOT
ATOM      1  C   UNL     1      48.389   5.000  17.215  0.00  0.00    +0.000 C 
ATOM      2  C   UNL     1      47.359   5.203  18.320  0.00  0.00    +0.000 C 
ATOM      3  C   UNL     1      47.416   3.906  17.590  0.00  0.00    +0.000 C 
ENDROOT
BRANCH   1   4
ATOM      4  C   UNL     1      48.237   5.660  15.858  0.00  0.00    +0.000 A 
ATOM      5  C   UNL     1      49.131   6.645  15.420  0.00  0.00    +0.000 A 
ATOM      6  C   UNL     1      49.071   7.144  14.120  0.00  0.00    +0.000 A 
ATOM      7  C   UNL     1      48.114   6.660  13.226  0.00  0.00    +0.000 A 
ATOM      8  C   UNL     1      47.194   5.672  13.608  0.00  0.00    +0.000 A 
ATOM      9  C   UNL     1      47.262   5.213  14.936  0.00  0.00    +0.000 A 
BRANCH   8  10
ATOM     10  C   UNL     1      46.259   5.076  12.637  0.00  0.00    +0.000 A 
ATOM     11  C   UNL     1      45.893   5.715  11.460  0.00  0.00    +0.000 A 
ATOM     12  N   UNL     1      45.068   5.206  10.518  0.00  0.00    +0.000 NA
ATOM     13  C   UNL     1      44.595   3.980  10.770  0.00  0.00    +0.000 A 
ATOM     14  N   UNL     1      44.861   3.245  11.859  0.00  0.00    +0.000 NA
ATOM     15  C   UNL     1      45.692   3.817  12.764  0.00  0.00    +0.000 A 
ENDBRANCH   8  10
ENDBRANCH   1   4
BRANCH   1  16
ATOM     16  O   UNL     1      49.705   5.054  17.812  0.00  0.00    +0.000 OA
BRANCH  16  20
ATOM     17  C   UNL     1      52.223   1.821  17.686  0.00  0.00    +0.000 A 
ATOM     18  C   UNL     1      52.642   3.009  18.280  0.00  0.00    +0.000 A 
ATOM     19  C   UNL     1      51.781   4.099  18.274  0.00  0.00    +0.000 A 
ATOM     20  C   UNL     1      50.535   3.961  17.676  0.00  0.00    +0.000 A 
ATOM     21  N   UNL     1      50.104   2.834  17.071  0.00  0.00    +0.000 NA
ATOM     22  C   UNL     1      50.973   1.790  17.074  0.00  0.00    +0.000 A 
BRANCH  17  24
ATOM     23  N   UNL     1      52.626  -0.441  18.469  0.00  0.00    +0.000 N 
ATOM     24  C   UNL     1      53.055   0.601  17.689  0.00  0.00    +0.000 C 
ATOM     25  O   UNL     1      54.059   0.512  17.005  0.00  0.00    +0.000 OA
ATOM     26  H   UNL     1      53.146  -1.307  18.382  0.00  0.00    +0.000 HD
ATOM     27  H   UNL     1      51.688  -0.496  18.842  0.00  0.00    +0.000 HD
ENDBRANCH  17  24
ENDBRANCH  16  20
ENDBRANCH   1  16
TORSDOF 5
ENDMDL
