MODEL 1
REMARK VINA RESULT:    -9.204      0.000      0.000
REMARK INTER + INTRA:         -14.508
REMARK INTER:                 -13.508
REMARK INTRA:                  -1.000
REMARK UNBOUND:                -1.000
REMARK  Name = 
REMARK  8 active torsions:
REMARK  status: ('A' for Active; 'I' for Inactive)
REMARK    1  A    between atoms: C_2  and  O_3
REMARK    2  A    between atoms: C_2  and  C_20
REMARK    3  A    between atoms: O_3  and  C_4
REMARK    4  A    between atoms: C_4  and  C_5
REMARK    5  A    between atoms: C_8  and  C_9
REMARK    6  A    between atoms: C_9  and  N_10
REMARK    7  A    between atoms: N_10  and  C_11
REMARK    8  A    between atoms: C_11  and  C_12
REMARK                            x       y       z     vdW  Elec       q    Type
REMARK                         _______ _______ _______ _____ _____    ______ ____
ROOT
ATOM      1  C   UNL     1      46.377   4.765  13.589  0.00  0.00    +0.000 A 
ATOM      2  C   UNL     1      46.040   3.510  13.067  0.00  0.00    +0.000 A 
ATOM      3  C   UNL     1      45.182   3.404  11.970  0.00  0.00    +0.000 A 
ATOM      4  C   UNL     1      44.636   4.549  11.371  0.00  0.00    +0.000 A 
ATOM      5  C   UNL     1      44.977   5.804  11.891  0.00  0.00    +0.000 A 
ATOM      6  C   UNL     1      45.833   5.909  12.990  0.00  0.00    +0.000 A 
ENDROOT
BRANCH   1   7
ATOM      7  C   UNL     1      47.302   4.882  14.774  0.00  0.00    +0.000 C 
BRANCH   7   8
ATOM      8  O   UNL     1      47.575   3.599  15.352  0.00  0.00    +0.000 OA
BRANCH   8  10
ATOM      9  O   UNL     1      46.385   3.142  17.252  0.00  0.00    +0.000 OA
ATOM     10  C   UNL     1      47.413   3.514  16.695  0.00  0.00    +0.000 C 
BRANCH  10  11
ATOM     11  C   UNL     1      48.564   4.014  17.444  0.00  0.00    +0.000 A 
ATOM     12  C   UNL     1      48.451   5.138  18.249  0.00  0.00    +0.000 A 
ATOM     13  S   UNL     1      49.913   5.568  19.017  0.00  0.00    +0.000 S 
ATOM     14  C   UNL     1      50.717   4.218  18.362  0.00  0.00    +0.000 A 
ATOM     15  N   UNL     1      52.009   3.951  18.690  0.00  0.00    +0.000 NA
ATOM     16  C   UNL     1      52.475   2.863  18.177  0.00  0.00    +0.000 A 
ATOM     17  N   UNL     1      51.772   2.032  17.346  0.00  0.00    +0.000 N 
ATOM     18  C   UNL     1      50.477   2.277  16.952  0.00  0.00    +0.000 A 
ATOM     19  O   UNL     1      49.908   1.502  16.195  0.00  0.00    +0.000 OA
ATOM     20  C   UNL     1      49.897   3.476  17.534  0.00  0.00    +0.000 A 
ATOM     21  H   UNL     1      52.193   1.191  16.977  0.00  0.00    +0.000 HD
ENDBRANCH  10  11
ENDBRANCH   8  10
ENDBRANCH   7   8
ENDBRANCH   1   7
BRANCH   4  22
ATOM     22  C   UNL     1      43.706   4.429  10.186  0.00  0.00    +0.000 C 
BRANCH  22  23
ATOM     23  N   UNL     1      44.229   3.478   9.207  0.00  0.00    +0.000 NA
ATOM     24  H   UNL     1      43.449   3.098   8.671  0.00  0.00    +0.000 HD
BRANCH  23  25
ATOM     25  C   UNL     1      45.177   4.110   8.296  0.00  0.00    +0.000 C 
BRANCH  25  26
ATOM     26  C   UNL     1      46.073   3.082   7.649  0.00  0.00    +0.000 A 
ATOM     27  C   UNL     1      46.192   1.795   8.183  0.00  0.00    +0.000 A 
ATOM     28  C   UNL     1      47.028   0.886   7.551  0.00  0.00    +0.000 A 
ATOM     29  N   UNL     1      47.743   1.164   6.442  0.00  0.00    +0.000 NA
ATOM     30  C   UNL     1      47.616   2.412   5.941  0.00  0.00    +0.000 A 
ATOM     31  C   UNL     1      46.804   3.389   6.497  0.00  0.00    +0.000 A 
ENDBRANCH  25  26
ENDBRANCH  23  25
ENDBRANCH  22  23
ENDBRANCH   4  22
TORSDOF 8
ENDMDL
MODEL 2
REMARK VINA RESULT:    -8.693      1.233      2.099
REMARK INTER + INTRA:         -13.759
REMARK INTER:                 -12.655
REMARK INTRA:                  -1.104
REMARK UNBOUND:                -1.000
REMARK  Name = 
REMARK  8 active torsions:
REMARK  status: ('A' for Active; 'I' for Inactive)
REMARK    1  A    between atoms: C_2  and  O_3
REMARK    2  A    between atoms: C_2  and  C_20
REMARK    3  A    between atoms: O_3  and  C_4
REMARK    4  A    between atoms: C_4  and  C_5
REMARK    5  A    between atoms: C_8  and  C_9
REMARK    6  A    between atoms: C_9  and  N_10
REMARK    7  A    between atoms: N_10  and  C_11
REMARK    8  A    between atoms: C_11  and  C_12
REMARK                            x       y       z     vdW  Elec       q    Type
REMARK                         _______ _______ _______ _____ _____    ______ ____
ROOT
ATOM      1  C   UNL     1      46.373   4.586  13.643  0.00  0.00    +0.000 A 
ATOM      2  C   UNL     1      46.027   3.370  13.042  0.00  0.00    +0.000 A 
ATOM      3  C   UNL     1      45.176   3.342  11.934  0.00  0.00    +0.000 A 
ATOM      4  C   UNL     1      44.649   4.529  11.403  0.00  0.00    +0.000 A 
ATOM      5  C   UNL     1      44.999   5.745  12.002  0.00  0.00    +0.000 A 
ATOM      6  C   UNL     1      45.848   5.771  13.112  0.00  0.00    +0.000 A 
ENDROOT
BRANCH   1   7
ATOM      7  C   UNL     1      47.290   4.619  14.840  0.00  0.00    +0.000 C 
BRANCH   7   8
ATOM      8  O   UNL     1      47.591   3.296  15.303  0.00  0.00    +0.000 OA
BRANCH   8  10
ATOM      9  O   UNL     1      46.680   3.079  17.392  0.00  0.00    +0.000 OA
ATOM     10  C   UNL     1      47.655   3.147  16.649  0.00  0.00    +0.000 C 
BRANCH  10  11
ATOM     11  C   UNL     1      49.022   3.176  17.165  0.00  0.00    +0.000 A 
ATOM     12  C   UNL     1      49.888   2.115  16.937  0.00  0.00    +0.000 A 
ATOM     13  S   UNL     1      51.427   2.337  17.642  0.00  0.00    +0.000 S 
ATOM     14  C   UNL     1      51.008   3.890  18.199  0.00  0.00    +0.000 A 
ATOM     15  N   UNL     1      51.921   4.670  18.835  0.00  0.00    +0.000 NA
ATOM     16  C   UNL     1      51.492   5.848  19.145  0.00  0.00    +0.000 A 
ATOM     17  N   UNL     1      50.224   6.303  18.897  0.00  0.00    +0.000 N 
ATOM     18  C   UNL     1      49.252   5.541  18.293  0.00  0.00    +0.000 A 
ATOM     19  O   UNL     1      48.134   6.002  18.112  0.00  0.00    +0.000 OA
ATOM     20  C   UNL     1      49.701   4.217  17.894  0.00  0.00    +0.000 A 
ATOM     21  H   UNL     1      49.950   7.239  19.163  0.00  0.00    +0.000 HD
ENDBRANCH  10  11
ENDBRANCH   8  10
ENDBRANCH   7   8
ENDBRANCH   1   7
BRANCH   4  22
ATOM     22  C   UNL     1      43.727   4.494  10.206  0.00  0.00    +0.000 C 
BRANCH  22  23
ATOM     23  N   UNL     1      44.148   3.466   9.254  0.00  0.00    +0.000 NA
ATOM     24  H   UNL     1      43.317   3.044   8.841  0.00  0.00    +0.000 HD
BRANCH  23  25
ATOM     25  C   UNL     1      44.983   4.024   8.195  0.00  0.00    +0.000 C 
BRANCH  25  26
ATOM     26  C   UNL     1      45.981   3.005   7.701  0.00  0.00    +0.000 A 
ATOM     27  C   UNL     1      46.936   3.344   6.738  0.00  0.00    +0.000 A 
ATOM     28  C   UNL     1      47.832   2.372   6.317  0.00  0.00    +0.000 A 
ATOM     29  N   UNL     1      47.844   1.106   6.782  0.00  0.00    +0.000 NA
ATOM     30  C   UNL     1      46.914   0.797   7.711  0.00  0.00    +0.000 A 
ATOM     31  C   UNL     1      45.979   1.698   8.198  0.00  0.00    +0.000 A 
ENDBRANCH  25  26
ENDBRANCH  23  25
ENDBRANCH  22  23
ENDBRANCH   4  22
TORSDOF 8
ENDMDL
MODEL 3
REMARK VINA RESULT:    -8.090      2.006      2.534
REMARK INTER + INTRA:         -12.873
REMARK INTER:                 -11.925
REMARK INTRA:                  -0.948
REMARK UNBOUND:                -1.000
REMARK  Name = 
REMARK  8 active torsions:
REMARK  status: ('A' for Active; 'I' for Inactive)
REMARK    1  A    between atoms: C_2  and  O_3
REMARK    2  A    between atoms: C_2  and  C_20
REMARK    3  A    between atoms: O_3  and  C_4
REMARK    4  A    between atoms: C_4  and  C_5
REMARK    5  A    between atoms: C_8  and  C_9
REMARK    6  A    between atoms: C_9  and  N_10
REMARK    7  A    between atoms: N_10  and  C_11
REMARK    8  A    between atoms: C_11  and  C_12
REMARK                            x       y       z     vdW  Elec       q    Type
REMARK                         _______ _______ _______ _____ _____    ______ ____
ROOT
ATOM      1  C   UNL     1      47.135   6.109  12.778  0.00  0.00    +0.000 A 
ATOM      2  C   UNL     1      46.595   4.879  13.171  0.00  0.00    +0.000 A 
ATOM      3  C   UNL     1      45.528   4.314  12.468  0.00  0.00    +0.000 A 
ATOM      4  C   UNL     1      44.972   4.968  11.359  0.00  0.00    +0.000 A 
ATOM      5  C   UNL     1      45.515   6.197  10.964  0.00  0.00    +0.000 A 
ATOM      6  C   UNL     1      46.580   6.762  11.669  0.00  0.00    +0.000 A 
ENDROOT
BRANCH   1   7
ATOM      7  C   UNL     1      48.285   6.722  13.536  0.00  0.00    +0.000 C 
BRANCH   7   8
ATOM      8  O   UNL     1      48.424   6.137  14.837  0.00  0.00    +0.000 OA
BRANCH   8  10
ATOM      9  O   UNL     1      50.543   6.908  15.222  0.00  0.00    +0.000 OA
ATOM     10  C   UNL     1      49.408   6.656  15.612  0.00  0.00    +0.000 C 
BRANCH  10  11
ATOM     11  C   UNL     1      49.019   6.797  17.014  0.00  0.00    +0.000 A 
ATOM     12  C   UNL     1      48.525   8.002  17.494  0.00  0.00    +0.000 A 
ATOM     13  S   UNL     1      48.153   7.963  19.159  0.00  0.00    +0.000 S 
ATOM     14  C   UNL     1      48.563   6.315  19.268  0.00  0.00    +0.000 A 
ATOM     15  N   UNL     1      48.400   5.633  20.432  0.00  0.00    +0.000 NA
ATOM     16  C   UNL     1      48.686   4.376  20.359  0.00  0.00    +0.000 A 
ATOM     17  N   UNL     1      49.143   3.748  19.230  0.00  0.00    +0.000 N 
ATOM     18  C   UNL     1      49.362   4.399  18.039  0.00  0.00    +0.000 A 
ATOM     19  O   UNL     1      49.785   3.783  17.071  0.00  0.00    +0.000 OA
ATOM     20  C   UNL     1      49.020   5.812  18.065  0.00  0.00    +0.000 A 
ATOM     21  H   UNL     1      49.347   2.758  19.236  0.00  0.00    +0.000 HD
ENDBRANCH  10  11
ENDBRANCH   8  10
ENDBRANCH   7   8
ENDBRANCH   1   7
BRANCH   4  22
ATOM     22  C   UNL     1      43.816   4.355  10.603  0.00  0.00    +0.000 C 
BRANCH  22  23
ATOM     23  N   UNL     1      44.272   3.254   9.755  0.00  0.00    +0.000 NA
ATOM     24  H   UNL     1      43.504   2.594   9.635  0.00  0.00    +0.000 HD
BRANCH  23  25
ATOM     25  C   UNL     1      44.709   3.730   8.447  0.00  0.00    +0.000 C 
BRANCH  25  26
ATOM     26  C   UNL     1      45.827   2.871   7.906  0.00  0.00    +0.000 A 
ATOM     27  C   UNL     1      45.902   1.510   8.218  0.00  0.00    +0.000 A 
ATOM     28  C   UNL     1      46.948   0.764   7.696  0.00  0.00    +0.000 A 
ATOM     29  N   UNL     1      47.910   1.270   6.897  0.00  0.00    +0.000 NA
ATOM     30  C   UNL     1      47.821   2.586   6.607  0.00  0.00    +0.000 A 
ATOM     31  C   UNL     1      46.812   3.414   7.076  0.00  0.00    +0.000 A 
ENDBRANCH  25  26
ENDBRANCH  23  25
ENDBRANCH  22  23
ENDBRANCH   4  22
TORSDOF 8
ENDMDL
MODEL 4
REMARK VINA RESULT:    -7.748      2.487      3.453
REMARK INTER + INTRA:         -12.372
REMARK INTER:                 -11.514
REMARK INTRA:                  -0.858
REMARK UNBOUND:                -1.000
REMARK  Name = 
REMARK  8 active torsions:
REMARK  status: ('A' for Active; 'I' for Inactive)
REMARK    1  A    between atoms: C_2  and  O_3
REMARK    2  A    between atoms: C_2  and  C_20
REMARK    3  A    between atoms: O_3  and  C_4
REMARK    4  A    between atoms: C_4  and  C_5
REMARK    5  A    between atoms: C_8  and  C_9
REMARK    6  A    between atoms: C_9  and  N_10
REMARK    7  A    between atoms: N_10  and  C_11
REMARK    8  A    between atoms: C_11  and  C_12
REMARK                            x       y       z     vdW  Elec       q    Type
REMARK                         _______ _______ _______ _____ _____    ______ ____
ROOT
ATOM      1  C   UNL     1      46.998   6.064  12.942  0.00  0.00    +0.000 A 
ATOM      2  C   UNL     1      46.335   4.899  13.347  0.00  0.00    +0.000 A 
ATOM      3  C   UNL     1      45.306   4.361  12.569  0.00  0.00    +0.000 A 
ATOM      4  C   UNL     1      44.914   4.977  11.371  0.00  0.00    +0.000 A 
ATOM      5  C   UNL     1      45.580   6.139  10.965  0.00  0.00    +0.000 A 
ATOM      6  C   UNL     1      46.607   6.678  11.745  0.00  0.00    +0.000 A 
ENDROOT
BRANCH   1   7
ATOM      7  C   UNL     1      48.107   6.648  13.780  0.00  0.00    +0.000 C 
BRANCH   7   8
ATOM      8  O   UNL     1      48.345   5.860  14.954  0.00  0.00    +0.000 OA
BRANCH   8  10
ATOM      9  O   UNL     1      49.989   7.266  15.698  0.00  0.00    +0.000 OA
ATOM     10  C   UNL     1      49.099   6.450  15.913  0.00  0.00    +0.000 C 
BRANCH  10  11
ATOM     11  C   UNL     1      48.823   5.939  17.254  0.00  0.00    +0.000 A 
ATOM     12  C   UNL     1      49.104   4.621  17.582  0.00  0.00    +0.000 A 
ATOM     13  S   UNL     1      48.685   4.220  19.188  0.00  0.00    +0.000 S 
ATOM     14  C   UNL     1      48.195   5.817  19.515  0.00  0.00    +0.000 A 
ATOM     15  N   UNL     1      47.784   6.177  20.760  0.00  0.00    +0.000 NA
ATOM     16  C   UNL     1      47.504   7.431  20.887  0.00  0.00    +0.000 A 
ATOM     17  N   UNL     1      47.575   8.349  19.874  0.00  0.00    +0.000 N 
ATOM     18  C   UNL     1      47.945   8.030  18.588  0.00  0.00    +0.000 A 
ATOM     19  O   UNL     1      47.974   8.895  17.724  0.00  0.00    +0.000 OA
ATOM     20  C   UNL     1      48.304   6.633  18.406  0.00  0.00    +0.000 A 
ATOM     21  H   UNL     1      47.344   9.319  20.038  0.00  0.00    +0.000 HD
ENDBRANCH  10  11
ENDBRANCH   8  10
ENDBRANCH   7   8
ENDBRANCH   1   7
BRANCH   4  22
ATOM     22  C   UNL     1      43.799   4.392  10.535  0.00  0.00    +0.000 C 
BRANCH  22  23
ATOM     23  N   UNL     1      44.292   3.300   9.697  0.00  0.00    +0.000 NA
ATOM     24  H   UNL     1      43.537   2.630   9.555  0.00  0.00    +0.000 HD
BRANCH  23  25
ATOM     25  C   UNL     1      44.758   3.785   8.402  0.00  0.00    +0.000 C 
BRANCH  25  26
ATOM     26  C   UNL     1      45.864   2.909   7.864  0.00  0.00    +0.000 A 
ATOM     27  C   UNL     1      45.952   1.561   8.223  0.00  0.00    +0.000 A 
ATOM     28  C   UNL     1      46.986   0.798   7.701  0.00  0.00    +0.000 A 
ATOM     29  N   UNL     1      47.925   1.277   6.859  0.00  0.00    +0.000 NA
ATOM     30  C   UNL     1      47.824   2.581   6.523  0.00  0.00    +0.000 A 
ATOM     31  C   UNL     1      46.826   3.424   6.989  0.00  0.00    +0.000 A 
ENDBRANCH  25  26
ENDBRANCH  23  25
ENDBRANCH  22  23
ENDBRANCH   4  22
TORSDOF 8
ENDMDL
MODEL 5
REMARK VINA RESULT:    -7.703      2.031      2.597
REMARK INTER + INTRA:         -12.305
REMARK INTER:                 -11.278
REMARK INTRA:                  -1.027
REMARK UNBOUND:                -1.000
REMARK  Name = 
REMARK  8 active torsions:
REMARK  status: ('A' for Active; 'I' for Inactive)
REMARK    1  A    between atoms: C_2  and  O_3
REMARK    2  A    between atoms: C_2  and  C_20
REMARK    3  A    between atoms: O_3  and  C_4
REMARK    4  A    between atoms: C_4  and  C_5
REMARK    5  A    between atoms: C_8  and  C_9
REMARK    6  A    between atoms: C_9  and  N_10
REMARK    7  A    between atoms: N_10  and  C_11
REMARK    8  A    between atoms: C_11  and  C_12
REMARK                            x       y       z     vdW  Elec       q    Type
REMARK                         _______ _______ _______ _____ _____    ______ ____
ROOT
ATOM      1  C   UNL     1      46.525   4.950  13.520  0.00  0.00    +0.000 A 
ATOM      2  C   UNL     1      46.148   3.664  13.116  0.00  0.00    +0.000 A 
ATOM      3  C   UNL     1      45.246   3.486  12.064  0.00  0.00    +0.000 A 
ATOM      4  C   UNL     1      44.696   4.589  11.394  0.00  0.00    +0.000 A 
ATOM      5  C   UNL     1      45.077   5.875  11.796  0.00  0.00    +0.000 A 
ATOM      6  C   UNL     1      45.978   6.052  12.850  0.00  0.00    +0.000 A 
ENDROOT
BRANCH   1   7
ATOM      7  C   UNL     1      47.498   5.145  14.656  0.00  0.00    +0.000 C 
BRANCH   7   8
ATOM      8  O   UNL     1      47.349   4.124  15.651  0.00  0.00    +0.000 OA
BRANCH   8  10
ATOM      9  O   UNL     1      49.149   3.197  16.718  0.00  0.00    +0.000 OA
ATOM     10  C   UNL     1      48.314   4.089  16.603  0.00  0.00    +0.000 C 
BRANCH  10  11
ATOM     11  C   UNL     1      48.207   5.181  17.568  0.00  0.00    +0.000 A 
ATOM     12  C   UNL     1      47.302   5.113  18.618  0.00  0.00    +0.000 A 
ATOM     13  S   UNL     1      47.318   6.498  19.615  0.00  0.00    +0.000 S 
ATOM     14  C   UNL     1      48.592   7.191  18.723  0.00  0.00    +0.000 A 
ATOM     15  N   UNL     1      49.143   8.374  19.102  0.00  0.00    +0.000 NA
ATOM     16  C   UNL     1      50.142   8.753  18.378  0.00  0.00    +0.000 A 
ATOM     17  N   UNL     1      50.622   8.065  17.295  0.00  0.00    +0.000 N 
ATOM     18  C   UNL     1      50.076   6.885  16.847  0.00  0.00    +0.000 A 
ATOM     19  O   UNL     1      50.543   6.327  15.864  0.00  0.00    +0.000 OA
ATOM     20  C   UNL     1      48.968   6.401  17.654  0.00  0.00    +0.000 A 
ATOM     21  H   UNL     1      51.411   8.414  16.769  0.00  0.00    +0.000 HD
ENDBRANCH  10  11
ENDBRANCH   8  10
ENDBRANCH   7   8
ENDBRANCH   1   7
BRANCH   4  22
ATOM     22  C   UNL     1      43.719   4.391  10.259  0.00  0.00    +0.000 C 
BRANCH  22  23
ATOM     23  N   UNL     1      44.165   3.322   9.367  0.00  0.00    +0.000 NA
ATOM     24  H   UNL     1      43.357   2.758   9.103  0.00  0.00    +0.000 HD
BRANCH  23  25
ATOM     25  C   UNL     1      44.794   3.854   8.163  0.00  0.00    +0.000 C 
BRANCH  25  26
ATOM     26  C   UNL     1      45.888   2.935   7.673  0.00  0.00    +0.000 A 
ATOM     27  C   UNL     1      45.980   1.619   8.136  0.00  0.00    +0.000 A 
ATOM     28  C   UNL     1      47.002   0.814   7.655  0.00  0.00    +0.000 A 
ATOM     29  N   UNL     1      47.925   1.222   6.760  0.00  0.00    +0.000 NA
ATOM     30  C   UNL     1      47.820   2.496   6.325  0.00  0.00    +0.000 A 
ATOM     31  C   UNL     1      46.833   3.376   6.742  0.00  0.00    +0.000 A 
ENDBRANCH  25  26
ENDBRANCH  23  25
ENDBRANCH  22  23
ENDBRANCH   4  22
TORSDOF 8
ENDMDL
MODEL 6
REMARK VINA RESULT:    -7.514      2.578      3.524
REMARK INTER + INTRA:         -12.028
REMARK INTER:                 -10.671
REMARK INTRA:                  -1.357
REMARK UNBOUND:                -1.000
REMARK  Name = 
REMARK  8 active torsions:
REMARK  status: ('A' for Active; 'I' for Inactive)
REMARK    1  A    between atoms: C_2  and  O_3
REMARK    2  A    between atoms: C_2  and  C_20
REMARK    3  A    between atoms: O_3  and  C_4
REMARK    4  A    between atoms: C_4  and  C_5
REMARK    5  A    between atoms: C_8  and  C_9
REMARK    6  A    between atoms: C_9  and  N_10
REMARK    7  A    between atoms: N_10  and  C_11
REMARK    8  A    between atoms: C_11  and  C_12
REMARK                            x       y       z     vdW  Elec       q    Type
REMARK                         _______ _______ _______ _____ _____    ______ ____
ROOT
ATOM      1  C   UNL     1      45.946   7.010  12.372  0.00  0.00    +0.000 A 
ATOM      2  C   UNL     1      46.083   6.588  11.044  0.00  0.00    +0.000 A 
ATOM      3  C   UNL     1      45.393   5.464  10.581  0.00  0.00    +0.000 A 
ATOM      4  C   UNL     1      44.554   4.734  11.436  0.00  0.00    +0.000 A 
ATOM      5  C   UNL     1      44.415   5.159  12.763  0.00  0.00    +0.000 A 
ATOM      6  C   UNL     1      45.108   6.281  13.225  0.00  0.00    +0.000 A 
ENDROOT
BRANCH   1   7
ATOM      7  C   UNL     1      46.690   8.221  12.874  0.00  0.00    +0.000 C 
BRANCH   7   8
ATOM      8  O   UNL     1      48.077   8.169  12.512  0.00  0.00    +0.000 OA
BRANCH   8  10
ATOM      9  O   UNL     1      49.264   6.219  12.677  0.00  0.00    +0.000 OA
ATOM     10  C   UNL     1      48.821   7.250  13.175  0.00  0.00    +0.000 C 
BRANCH  10  11
ATOM     11  C   UNL     1      48.969   7.550  14.598  0.00  0.00    +0.000 A 
ATOM     12  C   UNL     1      49.475   8.773  15.015  0.00  0.00    +0.000 A 
ATOM     13  S   UNL     1      49.588   8.913  16.713  0.00  0.00    +0.000 S 
ATOM     14  C   UNL     1      48.887   7.379  16.940  0.00  0.00    +0.000 A 
ATOM     15  N   UNL     1      48.629   6.910  18.190  0.00  0.00    +0.000 NA
ATOM     16  C   UNL     1      48.036   5.764  18.217  0.00  0.00    +0.000 A 
ATOM     17  N   UNL     1      47.702   5.035  17.107  0.00  0.00    +0.000 N 
ATOM     18  C   UNL     1      47.977   5.444  15.823  0.00  0.00    +0.000 A 
ATOM     19  O   UNL     1      47.665   4.739  14.874  0.00  0.00    +0.000 OA
ATOM     20  C   UNL     1      48.614   6.749  15.741  0.00  0.00    +0.000 A 
ATOM     21  H   UNL     1      47.236   4.142  17.195  0.00  0.00    +0.000 HD
ENDBRANCH  10  11
ENDBRANCH   8  10
ENDBRANCH   7   8
ENDBRANCH   1   7
BRANCH   4  22
ATOM     22  C   UNL     1      43.813   3.517  10.932  0.00  0.00    +0.000 C 
BRANCH  22  23
ATOM     23  N   UNL     1      44.746   2.505  10.438  0.00  0.00    +0.000 NA
ATOM     24  H   UNL     1      44.672   1.677  11.028  0.00  0.00    +0.000 HD
BRANCH  23  25
ATOM     25  C   UNL     1      44.457   2.139   9.055  0.00  0.00    +0.000 C 
BRANCH  25  26
ATOM     26  C   UNL     1      45.684   2.295   8.188  0.00  0.00    +0.000 A 
ATOM     27  C   UNL     1      46.511   1.203   7.910  0.00  0.00    +0.000 A 
ATOM     28  C   UNL     1      47.625   1.398   7.108  0.00  0.00    +0.000 A 
ATOM     29  N   UNL     1      47.968   2.587   6.571  0.00  0.00    +0.000 NA
ATOM     30  C   UNL     1      47.158   3.631   6.851  0.00  0.00    +0.000 A 
ATOM     31  C   UNL     1      46.021   3.536   7.638  0.00  0.00    +0.000 A 
ENDBRANCH  25  26
ENDBRANCH  23  25
ENDBRANCH  22  23
ENDBRANCH   4  22
TORSDOF 8
ENDMDL
MODEL 7
REMARK VINA RESULT:    -7.481      2.583      3.247
REMARK INTER + INTRA:         -11.980
REMARK INTER:                 -10.813
REMARK INTRA:                  -1.167
REMARK UNBOUND:                -1.000
REMARK  Name = 
REMARK  8 active torsions:
REMARK  status: ('A' for Active; 'I' for Inactive)
REMARK    1  A    between atoms: C_2  and  O_3
REMARK    2  A    between atoms: C_2  and  C_20
REMARK    3  A    between atoms: O_3  and  C_4
REMARK    4  A    between atoms: C_4  and  C_5
REMARK    5  A    between atoms: C_8  and  C_9
REMARK    6  A    between atoms: C_9  and  N_10
REMARK    7  A    between atoms: N_10  and  C_11
REMARK    8  A    between atoms: C_11  and  C_12
REMARK                            x       y       z     vdW  Elec       q    Type
REMARK                         _______ _______ _______ _____ _____    ______ ____
ROOT
ATOM      1  C   UNL     1      46.710   6.260  12.570  0.00  0.00    +0.000 A 
ATOM      2  C   UNL     1      46.369   6.324  11.214  0.00  0.00    +0.000 A 
ATOM      3  C   UNL     1      45.359   5.509  10.696  0.00  0.00    +0.000 A 
ATOM      4  C   UNL     1      44.669   4.608  11.521  0.00  0.00    +0.000 A 
ATOM      5  C   UNL     1      45.008   4.548  12.879  0.00  0.00    +0.000 A 
ATOM      6  C   UNL     1      46.020   5.362  13.394  0.00  0.00    +0.000 A 
ENDROOT
BRANCH   1   7
ATOM      7  C   UNL     1      47.801   7.137  13.131  0.00  0.00    +0.000 C 
BRANCH   7   8
ATOM      8  O   UNL     1      47.753   7.177  14.564  0.00  0.00    +0.000 OA
BRANCH   8  10
ATOM      9  O   UNL     1      50.002   6.835  14.812  0.00  0.00    +0.000 OA
ATOM     10  C   UNL     1      48.847   6.692  15.201  0.00  0.00    +0.000 C 
BRANCH  10  11
ATOM     11  C   UNL     1      48.516   5.874  16.366  0.00  0.00    +0.000 A 
ATOM     12  C   UNL     1      47.994   4.598  16.211  0.00  0.00    +0.000 A 
ATOM     13  S   UNL     1      47.655   3.822  17.693  0.00  0.00    +0.000 S 
ATOM     14  C   UNL     1      48.272   5.135  18.583  0.00  0.00    +0.000 A 
ATOM     15  N   UNL     1      48.344   5.083  19.940  0.00  0.00    +0.000 NA
ATOM     16  C   UNL     1      48.892   6.117  20.484  0.00  0.00    +0.000 A 
ATOM     17  N   UNL     1      49.352   7.207  19.794  0.00  0.00    +0.000 N 
ATOM     18  C   UNL     1      49.268   7.326  18.427  0.00  0.00    +0.000 A 
ATOM     19  O   UNL     1      49.684   8.333  17.871  0.00  0.00    +0.000 OA
ATOM     20  C   UNL     1      48.687   6.168  17.766  0.00  0.00    +0.000 A 
ATOM     21  H   UNL     1      49.775   7.986  20.279  0.00  0.00    +0.000 HD
ENDBRANCH  10  11
ENDBRANCH   8  10
ENDBRANCH   7   8
ENDBRANCH   1   7
BRANCH   4  22
ATOM     22  C   UNL     1      43.579   3.727  10.956  0.00  0.00    +0.000 C 
BRANCH  22  23
ATOM     23  N   UNL     1      43.841   3.408   9.553  0.00  0.00    +0.000 NA
ATOM     24  H   UNL     1      44.394   4.161   9.145  0.00  0.00    +0.000 HD
BRANCH  23  25
ATOM     25  C   UNL     1      44.564   2.149   9.414  0.00  0.00    +0.000 C 
BRANCH  25  26
ATOM     26  C   UNL     1      45.672   2.271   8.395  0.00  0.00    +0.000 A 
ATOM     27  C   UNL     1      46.450   1.163   8.043  0.00  0.00    +0.000 A 
ATOM     28  C   UNL     1      47.454   1.327   7.101  0.00  0.00    +0.000 A 
ATOM     29  N   UNL     1      47.735   2.499   6.494  0.00  0.00    +0.000 NA
ATOM     30  C   UNL     1      46.973   3.557   6.847  0.00  0.00    +0.000 A 
ATOM     31  C   UNL     1      45.944   3.494   7.774  0.00  0.00    +0.000 A 
ENDBRANCH  25  26
ENDBRANCH  23  25
ENDBRANCH  22  23
ENDBRANCH   4  22
TORSDOF 8
ENDMDL
MODEL 8
REMARK VINA RESULT:    -7.315      1.965      2.857
REMARK INTER + INTRA:         -11.736
REMARK INTER:                 -10.731
REMARK INTRA:                  -1.005
REMARK UNBOUND:                -1.000
REMARK  Name = 
REMARK  8 active torsions:
REMARK  status: ('A' for Active; 'I' for Inactive)
REMARK    1  A    between atoms: C_2  and  O_3
REMARK    2  A    between atoms: C_2  and  C_20
REMARK    3  A    between atoms: O_3  and  C_4
REMARK    4  A    between atoms: C_4  and  C_5
REMARK    5  A    between atoms: C_8  and  C_9
REMARK    6  A    between atoms: C_9  and  N_10
REMARK    7  A    between atoms: N_10  and  C_11
REMARK    8  A    between atoms: C_11  and  C_12
REMARK                            x       y       z     vdW  Elec       q    Type
REMARK                         _______ _______ _______ _____ _____    ______ ____
ROOT
ATOM      1  C   UNL     1      46.598   6.992  12.774  0.00  0.00    +0.000 A 
ATOM      2  C   UNL     1      45.644   7.687  12.023  0.00  0.00    +0.000 A 
ATOM      3  C   UNL     1      44.632   6.999  11.349  0.00  0.00    +0.000 A 
ATOM      4  C   UNL     1      44.553   5.599  11.407  0.00  0.00    +0.000 A 
ATOM      5  C   UNL     1      45.505   4.905  12.162  0.00  0.00    +0.000 A 
ATOM      6  C   UNL     1      46.519   5.594  12.833  0.00  0.00    +0.000 A 
ENDROOT
BRANCH   1   7
ATOM      7  C   UNL     1      47.693   7.731  13.501  0.00  0.00    +0.000 C 
BRANCH   7   8
ATOM      8  O   UNL     1      47.889   7.207  14.821  0.00  0.00    +0.000 OA
BRANCH   8  10
ATOM      9  O   UNL     1      50.133   7.036  14.407  0.00  0.00    +0.000 OA
ATOM     10  C   UNL     1      49.178   6.975  15.174  0.00  0.00    +0.000 C 
BRANCH  10  11
ATOM     11  C   UNL     1      49.322   6.536  16.561  0.00  0.00    +0.000 A 
ATOM     12  C   UNL     1      49.867   7.380  17.518  0.00  0.00    +0.000 A 
ATOM     13  S   UNL     1      49.968   6.669  19.066  0.00  0.00    +0.000 S 
ATOM     14  C   UNL     1      49.211   5.245  18.521  0.00  0.00    +0.000 A 
ATOM     15  N   UNL     1      48.924   4.235  19.385  0.00  0.00    +0.000 NA
ATOM     16  C   UNL     1      48.291   3.243  18.853  0.00  0.00    +0.000 A 
ATOM     17  N   UNL     1      47.943   3.162  17.531  0.00  0.00    +0.000 N 
ATOM     18  C   UNL     1      48.244   4.137  16.609  0.00  0.00    +0.000 A 
ATOM     19  O   UNL     1      47.917   3.998  15.439  0.00  0.00    +0.000 OA
ATOM     20  C   UNL     1      48.927   5.292  17.170  0.00  0.00    +0.000 A 
ATOM     21  H   UNL     1      47.444   2.358  17.176  0.00  0.00    +0.000 HD
ENDBRANCH  10  11
ENDBRANCH   8  10
ENDBRANCH   7   8
ENDBRANCH   1   7
BRANCH   4  22
ATOM     22  C   UNL     1      43.458   4.860  10.674  0.00  0.00    +0.000 C 
BRANCH  22  23
ATOM     23  N   UNL     1      43.924   4.398   9.367  0.00  0.00    +0.000 NA
ATOM     24  H   UNL     1      44.730   4.959   9.091  0.00  0.00    +0.000 HD
BRANCH  23  25
ATOM     25  C   UNL     1      44.305   2.990   9.400  0.00  0.00    +0.000 C 
BRANCH  25  26
ATOM     26  C   UNL     1      45.478   2.726   8.485  0.00  0.00    +0.000 A 
ATOM     27  C   UNL     1      46.097   3.771   7.792  0.00  0.00    +0.000 A 
ATOM     28  C   UNL     1      47.170   3.477   6.965  0.00  0.00    +0.000 A 
ATOM     29  N   UNL     1      47.663   2.235   6.781  0.00  0.00    +0.000 NA
ATOM     30  C   UNL     1      47.052   1.239   7.459  0.00  0.00    +0.000 A 
ATOM     31  C   UNL     1      45.976   1.431   8.312  0.00  0.00    +0.000 A 
ENDBRANCH  25  26
ENDBRANCH  23  25
ENDBRANCH  22  23
ENDBRANCH   4  22
TORSDOF 8
ENDMDL
MODEL 9
REMARK VINA RESULT:    -7.270      2.292      2.993
REMARK INTER + INTRA:         -11.670
REMARK INTER:                 -10.457
REMARK INTRA:                  -1.213
REMARK UNBOUND:                -1.000
REMARK  Name = 
REMARK  8 active torsions:
REMARK  status: ('A' for Active; 'I' for Inactive)
REMARK    1  A    between atoms: C_2  and  O_3
REMARK    2  A    between atoms: C_2  and  C_20
REMARK    3  A    between atoms: O_3  and  C_4
REMARK    4  A    between atoms: C_4  and  C_5
REMARK    5  A    between atoms: C_8  and  C_9
REMARK    6  A    between atoms: C_9  and  N_10
REMARK    7  A    between atoms: N_10  and  C_11
REMARK    8  A    between atoms: C_11  and  C_12
REMARK                            x       y       z     vdW  Elec       q    Type
REMARK                         _______ _______ _______ _____ _____    ______ ____
ROOT
ATOM      1  C   UNL     1      46.781   6.490  12.439  0.00  0.00    +0.000 A 
ATOM      2  C   UNL     1      46.084   6.540  11.227  0.00  0.00    +0.000 A 
ATOM      3  C   UNL     1      45.236   5.495  10.851  0.00  0.00    +0.000 A 
ATOM      4  C   UNL     1      45.068   4.373  11.677  0.00  0.00    +0.000 A 
ATOM      5  C   UNL     1      45.763   4.325  12.892  0.00  0.00    +0.000 A 
ATOM      6  C   UNL     1      46.613   5.370  13.265  0.00  0.00    +0.000 A 
ENDROOT
BRANCH   1   7
ATOM      7  C   UNL     1      47.699   7.615  12.847  0.00  0.00    +0.000 C 
BRANCH   7   8
ATOM      8  O   UNL     1      48.831   7.126  13.578  0.00  0.00    +0.000 OA
BRANCH   8  10
ATOM      9  O   UNL     1      48.272   8.496  15.325  0.00  0.00    +0.000 OA
ATOM     10  C   UNL     1      48.969   7.612  14.837  0.00  0.00    +0.000 C 
BRANCH  10  11
ATOM     11  C   UNL     1      50.116   7.048  15.546  0.00  0.00    +0.000 A 
ATOM     12  C   UNL     1      51.385   7.584  15.378  0.00  0.00    +0.000 A 
ATOM     13  S   UNL     1      52.586   6.767  16.275  0.00  0.00    +0.000 S 
ATOM     14  C   UNL     1      51.434   5.729  16.976  0.00  0.00    +0.000 A 
ATOM     15  N   UNL     1      51.800   4.815  17.914  0.00  0.00    +0.000 NA
ATOM     16  C   UNL     1      50.819   4.139  18.410  0.00  0.00    +0.000 A 
ATOM     17  N   UNL     1      49.509   4.280  18.034  0.00  0.00    +0.000 N 
ATOM     18  C   UNL     1      49.091   5.160  17.064  0.00  0.00    +0.000 A 
ATOM     19  O   UNL     1      47.908   5.228  16.764  0.00  0.00    +0.000 OA
ATOM     20  C   UNL     1      50.159   5.970  16.500  0.00  0.00    +0.000 A 
ATOM     21  H   UNL     1      48.785   3.721  18.464  0.00  0.00    +0.000 HD
ENDBRANCH  10  11
ENDBRANCH   8  10
ENDBRANCH   7   8
ENDBRANCH   1   7
BRANCH   4  22
ATOM     22  C   UNL     1      44.152   3.245  11.265  0.00  0.00    +0.000 C 
BRANCH  22  23
ATOM     23  N   UNL     1      43.961   3.230   9.815  0.00  0.00    +0.000 NA
ATOM     24  H   UNL     1      44.465   4.019   9.411  0.00  0.00    +0.000 HD
BRANCH  23  25
ATOM     25  C   UNL     1      44.449   1.990   9.221  0.00  0.00    +0.000 C 
BRANCH  25  26
ATOM     26  C   UNL     1      45.635   2.252   8.323  0.00  0.00    +0.000 A 
ATOM     27  C   UNL     1      45.899   3.537   7.839  0.00  0.00    +0.000 A 
ATOM     28  C   UNL     1      47.000   3.726   7.018  0.00  0.00    +0.000 A 
ATOM     29  N   UNL     1      47.845   2.740   6.651  0.00  0.00    +0.000 NA
ATOM     30  C   UNL     1      47.574   1.506   7.128  0.00  0.00    +0.000 A 
ATOM     31  C   UNL     1      46.501   1.217   7.957  0.00  0.00    +0.000 A 
ENDBRANCH  25  26
ENDBRANCH  23  25
ENDBRANCH  22  23
ENDBRANCH   4  22
TORSDOF 8
ENDMDL
