MODEL 1
REMARK VINA RESULT:    -9.838      0.000      0.000
REMARK INTER + INTRA:         -14.466
REMARK INTER:                 -13.576
REMARK INTRA:                  -0.890
REMARK UNBOUND:                -0.890
REMARK  Name = 
REMARK  8 active torsions:
REMARK  status: ('A' for Active; 'I' for Inactive)
REMARK    1  A    between atoms: C_1  and  C_2
REMARK    2  A    between atoms: C_2  and  O_3
REMARK    3  A    between atoms: C_5  and  O_6
REMARK    4  A    between atoms: O_6  and  C_7
REMARK    5  A    between atoms: C_9  and  C_10
REMARK    6  A    between atoms: C_10  and  C_13
REMARK    7  A    between atoms: C_13  and  N_14
REMARK    8  A    between atoms: C_18  and  C_19
REMARK                            x       y       z     vdW  Elec       q    Type
REMARK                         _______ _______ _______ _____ _____    ______ ____
ROOT
ATOM      1  C   UNL     1      43.343   5.354  12.225  0.00  0.00    +0.000 C 
ATOM      2  F   UNL     1      42.736   4.787  13.311  0.00  0.00    +0.000 F 
ATOM      3  F   UNL     1      42.487   6.341  11.811  0.00  0.00    +0.000 F 
ENDROOT
BRANCH   1   6
ATOM      4  C   UNL     1      46.872   5.661  13.620  0.00  0.00    +0.000 A 
ATOM      5  C   UNL     1      45.630   5.129  13.292  0.00  0.00    +0.000 A 
ATOM      6  C   UNL     1      44.700   5.937  12.616  0.00  0.00    +0.000 A 
ATOM      7  C   UNL     1      45.092   7.251  12.314  0.00  0.00    +0.000 A 
ATOM      8  C   UNL     1      46.353   7.687  12.685  0.00  0.00    +0.000 A 
ATOM      9  N   UNL     1      47.248   6.922  13.338  0.00  0.00    +0.000 NA
BRANCH   4  10
ATOM     10  O   UNL     1      47.764   4.840  14.288  0.00  0.00    +0.000 OA
BRANCH  10  14
ATOM     11  C   UNL     1      48.763   3.250  18.396  0.00  0.00    +0.000 C 
ATOM     12  C   UNL     1      47.650   3.327  17.362  0.00  0.00    +0.000 C 
ATOM     13  C   UNL     1      48.086   2.931  15.932  0.00  0.00    +0.000 C 
ATOM     14  C   UNL     1      47.205   4.089  15.394  0.00  0.00    +0.000 C 
ATOM     15  C   UNL     1      47.355   4.741  16.793  0.00  0.00    +0.000 C 
BRANCH  12  16
ATOM     16  O   UNL     1      46.490   2.629  17.867  0.00  0.00    +0.000 OA
ATOM     17  H   UNL     1      45.727   3.043  17.427  0.00  0.00    +0.000 HD
ENDBRANCH  12  16
ENDBRANCH  10  14
ENDBRANCH   4  10
ENDBRANCH   1   6
BRANCH   1  18
ATOM     18  C   UNL     1      43.417   4.293  11.095  0.00  0.00    +0.000 C 
BRANCH  18  19
ATOM     19  N   UNL     1      43.744   4.809   9.754  0.00  0.00    +0.000 N 
ATOM     20  C   UNL     1      44.621   3.971   9.065  0.00  0.00    +0.000 A 
ATOM     21  N   UNL     1      44.603   2.654   9.323  0.00  0.00    +0.000 NA
ATOM     22  C   UNL     1      45.501   1.880   8.678  0.00  0.00    +0.000 A 
ATOM     23  C   UNL     1      46.416   2.369   7.777  0.00  0.00    +0.000 A 
ATOM     24  C   UNL     1      46.354   3.728   7.575  0.00  0.00    +0.000 A 
ATOM     25  N   UNL     1      45.473   4.544   8.206  0.00  0.00    +0.000 NA
ATOM     26  H   UNL     1      44.122   5.752   9.723  0.00  0.00    +0.000 HD
BRANCH  23  27
ATOM     27  C   UNL     1      47.389   1.456   7.167  0.00  0.00    +0.000 C 
ATOM     28  N   UNL     1      48.434   1.986   6.467  0.00  0.00    +0.000 N 
ATOM     29  O   UNL     1      47.249   0.243   7.263  0.00  0.00    +0.000 OA
ATOM     30  H   UNL     1      48.529   2.959   6.216  0.00  0.00    +0.000 HD
ATOM     31  H   UNL     1      49.041   1.322   5.997  0.00  0.00    +0.000 HD
ENDBRANCH  23  27
ENDBRANCH  18  19
ENDBRANCH   1  18
TORSDOF 7
ENDMDL
MODEL 2
REMARK VINA RESULT:    -9.074      1.069      1.369
REMARK INTER + INTRA:         -13.413
REMARK INTER:                 -12.394
REMARK INTRA:                  -1.018
REMARK UNBOUND:                -0.890
REMARK  Name = 
REMARK  8 active torsions:
REMARK  status: ('A' for Active; 'I' for Inactive)
REMARK    1  A    between atoms: C_1  and  C_2
REMARK    2  A    between atoms: C_2  and  O_3
REMARK    3  A    between atoms: C_5  and  O_6
REMARK    4  A    between atoms: O_6  and  C_7
REMARK    5  A    between atoms: C_9  and  C_10
REMARK    6  A    between atoms: C_10  and  C_13
REMARK    7  A    between atoms: C_13  and  N_14
REMARK    8  A    between atoms: C_18  and  C_19
REMARK                            x       y       z     vdW  Elec       q    Type
REMARK                         _______ _______ _______ _____ _____    ______ ____
ROOT
ATOM      1  C   UNL     1      43.391   4.792  12.084  0.00  0.00    +0.000 C 
ATOM      2  F   UNL     1      43.114   3.996  13.161  0.00  0.00    +0.000 F 
ATOM      3  F   UNL     1      42.357   5.689  12.027  0.00  0.00    +0.000 F 
ENDROOT
BRANCH   1   6
ATOM      4  C   UNL     1      46.882   5.637  13.347  0.00  0.00    +0.000 A 
ATOM      5  C   UNL     1      45.659   4.993  13.195  0.00  0.00    +0.000 A 
ATOM      6  C   UNL     1      44.726   5.508  12.280  0.00  0.00    +0.000 A 
ATOM      7  C   UNL     1      45.096   6.660  11.567  0.00  0.00    +0.000 A 
ATOM      8  C   UNL     1      46.339   7.229  11.791  0.00  0.00    +0.000 A 
ATOM      9  N   UNL     1      47.236   6.746  12.671  0.00  0.00    +0.000 NA
BRANCH   4  10
ATOM     10  O   UNL     1      47.778   5.108  14.259  0.00  0.00    +0.000 OA
BRANCH  10  14
ATOM     11  C   UNL     1      48.782   3.053  18.154  0.00  0.00    +0.000 C 
ATOM     12  C   UNL     1      47.631   3.375  17.213  0.00  0.00    +0.000 C 
ATOM     13  C   UNL     1      47.912   3.041  15.730  0.00  0.00    +0.000 C 
ATOM     14  C   UNL     1      47.183   4.354  15.345  0.00  0.00    +0.000 C 
ATOM     15  C   UNL     1      47.515   4.860  16.773  0.00  0.00    +0.000 C 
BRANCH  12  16
ATOM     16  O   UNL     1      46.413   2.812  17.750  0.00  0.00    +0.000 OA
ATOM     17  H   UNL     1      46.403   1.886  17.453  0.00  0.00    +0.000 HD
ENDBRANCH  12  16
ENDBRANCH  10  14
ENDBRANCH   4  10
ENDBRANCH   1   6
BRANCH   1  18
ATOM     18  C   UNL     1      43.327   3.921  10.801  0.00  0.00    +0.000 C 
BRANCH  18  19
ATOM     19  N   UNL     1      44.224   2.752  10.776  0.00  0.00    +0.000 N 
ATOM     20  C   UNL     1      45.043   2.740   9.646  0.00  0.00    +0.000 A 
ATOM     21  N   UNL     1      45.397   3.906   9.083  0.00  0.00    +0.000 NA
ATOM     22  C   UNL     1      46.145   3.854   7.961  0.00  0.00    +0.000 A 
ATOM     23  C   UNL     1      46.562   2.682   7.380  0.00  0.00    +0.000 A 
ATOM     24  C   UNL     1      46.155   1.540   8.032  0.00  0.00    +0.000 A 
ATOM     25  N   UNL     1      45.397   1.545   9.157  0.00  0.00    +0.000 NA
ATOM     26  H   UNL     1      43.771   1.846  10.845  0.00  0.00    +0.000 HD
BRANCH  23  27
ATOM     27  C   UNL     1      47.327   2.727   6.129  0.00  0.00    +0.000 C 
ATOM     28  N   UNL     1      48.672   2.494   6.175  0.00  0.00    +0.000 N 
ATOM     29  O   UNL     1      46.772   2.994   5.070  0.00  0.00    +0.000 OA
ATOM     30  H   UNL     1      49.218   2.421   7.021  0.00  0.00    +0.000 HD
ATOM     31  H   UNL     1      49.176   2.609   5.302  0.00  0.00    +0.000 HD
ENDBRANCH  23  27
ENDBRANCH  18  19
ENDBRANCH   1  18
TORSDOF 7
ENDMDL
MODEL 3
REMARK VINA RESULT:    -8.784      2.113      4.001
REMARK INTER + INTRA:         -13.012
REMARK INTER:                 -11.999
REMARK INTRA:                  -1.014
REMARK UNBOUND:                -0.890
REMARK  Name = 
REMARK  8 active torsions:
REMARK  status: ('A' for Active; 'I' for Inactive)
REMARK    1  A    between atoms: C_1  and  C_2
REMARK    2  A    between atoms: C_2  and  O_3
REMARK    3  A    between atoms: C_5  and  O_6
REMARK    4  A    between atoms: O_6  and  C_7
REMARK    5  A    between atoms: C_9  and  C_10
REMARK    6  A    between atoms: C_10  and  C_13
REMARK    7  A    between atoms: C_13  and  N_14
REMARK    8  A    between atoms: C_18  and  C_19
REMARK                            x       y       z     vdW  Elec       q    Type
REMARK                         _______ _______ _______ _____ _____    ______ ____
ROOT
ATOM      1  C   UNL     1      43.737   5.295  12.187  0.00  0.00    +0.000 C 
ATOM      2  F   UNL     1      42.788   5.134  13.158  0.00  0.00    +0.000 F 
ATOM      3  F   UNL     1      43.599   6.591  11.764  0.00  0.00    +0.000 F 
ENDROOT
BRANCH   1   6
ATOM      4  C   UNL     1      47.214   5.921  13.604  0.00  0.00    +0.000 A 
ATOM      5  C   UNL     1      45.957   6.151  13.060  0.00  0.00    +0.000 A 
ATOM      6  C   UNL     1      45.133   5.053  12.759  0.00  0.00    +0.000 A 
ATOM      7  C   UNL     1      45.644   3.774  13.032  0.00  0.00    +0.000 A 
ATOM      8  C   UNL     1      46.912   3.650  13.575  0.00  0.00    +0.000 A 
ATOM      9  N   UNL     1      47.710   4.696  13.860  0.00  0.00    +0.000 NA
BRANCH   4  10
ATOM     10  O   UNL     1      48.003   7.023  13.886  0.00  0.00    +0.000 OA
BRANCH  10  14
ATOM     11  C   UNL     1      50.164  10.340  11.712  0.00  0.00    +0.000 C 
ATOM     12  C   UNL     1      48.782   9.766  11.984  0.00  0.00    +0.000 C 
ATOM     13  C   UNL     1      48.497   9.480  13.477  0.00  0.00    +0.000 C 
ATOM     14  C   UNL     1      47.776   8.178  13.041  0.00  0.00    +0.000 C 
ATOM     15  C   UNL     1      48.628   8.239  11.745  0.00  0.00    +0.000 C 
BRANCH  12  16
ATOM     16  O   UNL     1      47.795  10.581  11.314  0.00  0.00    +0.000 OA
ATOM     17  H   UNL     1      47.249   9.959  10.802  0.00  0.00    +0.000 HD
ENDBRANCH  12  16
ENDBRANCH  10  14
ENDBRANCH   4  10
ENDBRANCH   1   6
BRANCH   1  18
ATOM     18  C   UNL     1      43.378   4.372  10.992  0.00  0.00    +0.000 C 
BRANCH  18  19
ATOM     19  N   UNL     1      43.744   4.881   9.658  0.00  0.00    +0.000 N 
ATOM     20  C   UNL     1      44.624   4.029   8.991  0.00  0.00    +0.000 A 
ATOM     21  N   UNL     1      44.578   2.712   9.249  0.00  0.00    +0.000 NA
ATOM     22  C   UNL     1      45.479   1.924   8.625  0.00  0.00    +0.000 A 
ATOM     23  C   UNL     1      46.421   2.397   7.745  0.00  0.00    +0.000 A 
ATOM     24  C   UNL     1      46.385   3.757   7.540  0.00  0.00    +0.000 A 
ATOM     25  N   UNL     1      45.503   4.588   8.151  0.00  0.00    +0.000 NA
ATOM     26  H   UNL     1      44.137   5.818   9.635  0.00  0.00    +0.000 HD
BRANCH  23  27
ATOM     27  C   UNL     1      47.394   1.468   7.158  0.00  0.00    +0.000 C 
ATOM     28  N   UNL     1      48.470   1.982   6.493  0.00  0.00    +0.000 N 
ATOM     29  O   UNL     1      47.227   0.258   7.242  0.00  0.00    +0.000 OA
ATOM     30  H   UNL     1      48.592   2.954   6.252  0.00  0.00    +0.000 HD
ATOM     31  H   UNL     1      49.077   1.308   6.036  0.00  0.00    +0.000 HD
ENDBRANCH  23  27
ENDBRANCH  18  19
ENDBRANCH   1  18
TORSDOF 7
ENDMDL
MODEL 4
REMARK VINA RESULT:    -8.270      1.837      2.350
REMARK INTER + INTRA:         -12.303
REMARK INTER:                 -11.393
REMARK INTRA:                  -0.910
REMARK UNBOUND:                -0.890
REMARK  Name = 
REMARK  8 active torsions:
REMARK  status: ('A' for Active; 'I' for Inactive)
REMARK    1  A    between atoms: C_1  and  C_2
REMARK    2  A    between atoms: C_2  and  O_3
REMARK    3  A    between atoms: C_5  and  O_6
REMARK    4  A    between atoms: O_6  and  C_7
REMARK    5  A    between atoms: C_9  and  C_10
REMARK    6  A    between atoms: C_10  and  C_13
REMARK    7  A    between atoms: C_13  and  N_14
REMARK    8  A    between atoms: C_18  and  C_19
REMARK                            x       y       z     vdW  Elec       q    Type
REMARK                         _______ _______ _______ _____ _____    ______ ____
ROOT
ATOM      1  C   UNL     1      45.291   5.965  12.032  0.00  0.00    +0.000 C 
ATOM      2  F   UNL     1      44.567   6.873  12.754  0.00  0.00    +0.000 F 
ATOM      3  F   UNL     1      46.117   6.716  11.237  0.00  0.00    +0.000 F 
ENDROOT
BRANCH   1   6
ATOM      4  C   UNL     1      47.575   4.813  14.851  0.00  0.00    +0.000 A 
ATOM      5  C   UNL     1      46.863   5.643  13.992  0.00  0.00    +0.000 A 
ATOM      6  C   UNL     1      46.100   5.065  12.964  0.00  0.00    +0.000 A 
ATOM      7  C   UNL     1      46.107   3.663  12.871  0.00  0.00    +0.000 A 
ATOM      8  C   UNL     1      46.850   2.925  13.776  0.00  0.00    +0.000 A 
ATOM      9  N   UNL     1      47.589   3.471  14.759  0.00  0.00    +0.000 NA
BRANCH   4  10
ATOM     10  O   UNL     1      48.320   5.414  15.851  0.00  0.00    +0.000 OA
BRANCH  10  14
ATOM     11  C   UNL     1      48.115   5.876  20.339  0.00  0.00    +0.000 C 
ATOM     12  C   UNL     1      48.313   4.851  19.233  0.00  0.00    +0.000 C 
ATOM     13  C   UNL     1      49.354   5.263  18.166  0.00  0.00    +0.000 C 
ATOM     14  C   UNL     1      48.417   4.662  17.087  0.00  0.00    +0.000 C 
ATOM     15  C   UNL     1      47.257   4.877  18.095  0.00  0.00    +0.000 C 
BRANCH  12  16
ATOM     16  O   UNL     1      48.523   3.551  19.827  0.00  0.00    +0.000 OA
ATOM     17  H   UNL     1      49.326   3.640  20.368  0.00  0.00    +0.000 HD
ENDBRANCH  12  16
ENDBRANCH  10  14
ENDBRANCH   4  10
ENDBRANCH   1   6
BRANCH   1  18
ATOM     18  C   UNL     1      44.319   5.193  11.100  0.00  0.00    +0.000 C 
BRANCH  18  19
ATOM     19  N   UNL     1      44.506   5.417   9.655  0.00  0.00    +0.000 N 
ATOM     20  C   UNL     1      45.109   4.327   9.026  0.00  0.00    +0.000 A 
ATOM     21  N   UNL     1      44.914   3.096   9.524  0.00  0.00    +0.000 NA
ATOM     22  C   UNL     1      45.556   2.072   8.923  0.00  0.00    +0.000 A 
ATOM     23  C   UNL     1      46.380   2.227   7.836  0.00  0.00    +0.000 A 
ATOM     24  C   UNL     1      46.513   3.523   7.394  0.00  0.00    +0.000 A 
ATOM     25  N   UNL     1      45.894   4.583   7.972  0.00  0.00    +0.000 NA
ATOM     26  H   UNL     1      45.025   6.252   9.401  0.00  0.00    +0.000 HD
BRANCH  23  27
ATOM     27  C   UNL     1      47.077   1.059   7.284  0.00  0.00    +0.000 C 
ATOM     28  N   UNL     1      46.717  -0.184   7.719  0.00  0.00    +0.000 N 
ATOM     29  O   UNL     1      47.981   1.202   6.469  0.00  0.00    +0.000 OA
ATOM     30  H   UNL     1      46.096  -0.369   8.493  0.00  0.00    +0.000 HD
ATOM     31  H   UNL     1      47.274  -0.958   7.371  0.00  0.00    +0.000 HD
ENDBRANCH  23  27
ENDBRANCH  18  19
ENDBRANCH   1  18
TORSDOF 7
ENDMDL
MODEL 5
REMARK VINA RESULT:    -8.149      2.792      4.056
REMARK INTER + INTRA:         -12.135
REMARK INTER:                 -11.338
REMARK INTRA:                  -0.797
REMARK UNBOUND:                -0.890
REMARK  Name = 
REMARK  8 active torsions:
REMARK  status: ('A' for Active; 'I' for Inactive)
REMARK    1  A    between atoms: C_1  and  C_2
REMARK    2  A    between atoms: C_2  and  O_3
REMARK    3  A    between atoms: C_5  and  O_6
REMARK    4  A    between atoms: O_6  and  C_7
REMARK    5  A    between atoms: C_9  and  C_10
REMARK    6  A    between atoms: C_10  and  C_13
REMARK    7  A    between atoms: C_13  and  N_14
REMARK    8  A    between atoms: C_18  and  C_19
REMARK                            x       y       z     vdW  Elec       q    Type
REMARK                         _______ _______ _______ _____ _____    ______ ____
ROOT
ATOM      1  C   UNL     1      44.394   4.175  12.305  0.00  0.00    +0.000 C 
ATOM      2  F   UNL     1      45.271   3.126  12.277  0.00  0.00    +0.000 F 
ATOM      3  F   UNL     1      43.645   3.986  13.436  0.00  0.00    +0.000 F 
ENDROOT
BRANCH   1   6
ATOM      4  C   UNL     1      47.236   6.706  12.413  0.00  0.00    +0.000 A 
ATOM      5  C   UNL     1      46.556   5.494  12.384  0.00  0.00    +0.000 A 
ATOM      6  C   UNL     1      45.151   5.501  12.366  0.00  0.00    +0.000 A 
ATOM      7  C   UNL     1      44.516   6.753  12.378  0.00  0.00    +0.000 A 
ATOM      8  C   UNL     1      45.283   7.905  12.408  0.00  0.00    +0.000 A 
ATOM      9  N   UNL     1      46.629   7.907  12.433  0.00  0.00    +0.000 NA
BRANCH   4  10
ATOM     10  O   UNL     1      48.619   6.666  12.435  0.00  0.00    +0.000 OA
BRANCH  10  14
ATOM     11  C   UNL     1      52.602   8.794  12.385  0.00  0.00    +0.000 C 
ATOM     12  C   UNL     1      51.174   8.881  11.871  0.00  0.00    +0.000 C 
ATOM     13  C   UNL     1      50.095   8.666  12.958  0.00  0.00    +0.000 C 
ATOM     14  C   UNL     1      49.281   7.848  11.921  0.00  0.00    +0.000 C 
ATOM     15  C   UNL     1      50.625   7.599  11.187  0.00  0.00    +0.000 C 
BRANCH  12  16
ATOM     16  O   UNL     1      51.027  10.088  11.089  0.00  0.00    +0.000 OA
ATOM     17  H   UNL     1      50.369   9.875  10.405  0.00  0.00    +0.000 HD
ENDBRANCH  12  16
ENDBRANCH  10  14
ENDBRANCH   4  10
ENDBRANCH   1   6
BRANCH   1  18
ATOM     18  C   UNL     1      43.442   4.050  11.086  0.00  0.00    +0.000 C 
BRANCH  18  19
ATOM     19  N   UNL     1      43.849   4.789   9.878  0.00  0.00    +0.000 N 
ATOM     20  C   UNL     1      44.729   4.055   9.082  0.00  0.00    +0.000 A 
ATOM     21  N   UNL     1      44.653   2.715   9.090  0.00  0.00    +0.000 NA
ATOM     22  C   UNL     1      45.554   2.036   8.350  0.00  0.00    +0.000 A 
ATOM     23  C   UNL     1      46.526   2.642   7.593  0.00  0.00    +0.000 A 
ATOM     24  C   UNL     1      46.521   4.017   7.643  0.00  0.00    +0.000 A 
ATOM     25  N   UNL     1      45.640   4.740   8.379  0.00  0.00    +0.000 NA
ATOM     26  H   UNL     1      44.260   5.704  10.037  0.00  0.00    +0.000 HD
BRANCH  23  27
ATOM     27  C   UNL     1      47.496   1.816   6.863  0.00  0.00    +0.000 C 
ATOM     28  N   UNL     1      48.652   2.395   6.427  0.00  0.00    +0.000 N 
ATOM     29  O   UNL     1      47.257   0.637   6.630  0.00  0.00    +0.000 OA
ATOM     30  H   UNL     1      48.846   3.385   6.446  0.00  0.00    +0.000 HD
ATOM     31  H   UNL     1      49.259   1.811   5.862  0.00  0.00    +0.000 HD
ENDBRANCH  23  27
ENDBRANCH  18  19
ENDBRANCH   1  18
TORSDOF 7
ENDMDL
MODEL 6
REMARK VINA RESULT:    -8.102      2.207      2.677
REMARK INTER + INTRA:         -12.071
REMARK INTER:                 -11.331
REMARK INTRA:                  -0.740
REMARK UNBOUND:                -0.890
REMARK  Name = 
REMARK  8 active torsions:
REMARK  status: ('A' for Active; 'I' for Inactive)
REMARK    1  A    between atoms: C_1  and  C_2
REMARK    2  A    between atoms: C_2  and  O_3
REMARK    3  A    between atoms: C_5  and  O_6
REMARK    4  A    between atoms: O_6  and  C_7
REMARK    5  A    between atoms: C_9  and  C_10
REMARK    6  A    between atoms: C_10  and  C_13
REMARK    7  A    between atoms: C_13  and  N_14
REMARK    8  A    between atoms: C_18  and  C_19
REMARK                            x       y       z     vdW  Elec       q    Type
REMARK                         _______ _______ _______ _____ _____    ______ ____
ROOT
ATOM      1  C   UNL     1      43.088   5.443  12.094  0.00  0.00    +0.000 C 
ATOM      2  F   UNL     1      42.788   4.840  13.284  0.00  0.00    +0.000 F 
ATOM      3  F   UNL     1      41.958   6.137  11.749  0.00  0.00    +0.000 F 
ENDROOT
BRANCH   1   6
ATOM      4  C   UNL     1      46.499   6.808  13.092  0.00  0.00    +0.000 A 
ATOM      5  C   UNL     1      45.410   5.952  12.970  0.00  0.00    +0.000 A 
ATOM      6  C   UNL     1      44.279   6.386  12.259  0.00  0.00    +0.000 A 
ATOM      7  C   UNL     1      44.323   7.678  11.710  0.00  0.00    +0.000 A 
ATOM      8  C   UNL     1      45.456   8.454  11.888  0.00  0.00    +0.000 A 
ATOM      9  N   UNL     1      46.541   8.049  12.574  0.00  0.00    +0.000 NA
BRANCH   4  10
ATOM     10  O   UNL     1      47.597   6.352  13.802  0.00  0.00    +0.000 OA
BRANCH  10  14
ATOM     11  C   UNL     1      51.447   6.993  16.074  0.00  0.00    +0.000 C 
ATOM     12  C   UNL     1      50.242   7.721  15.498  0.00  0.00    +0.000 C 
ATOM     13  C   UNL     1      48.881   7.085  15.867  0.00  0.00    +0.000 C 
ATOM     14  C   UNL     1      48.404   7.384  14.421  0.00  0.00    +0.000 C 
ATOM     15  C   UNL     1      49.903   7.395  14.018  0.00  0.00    +0.000 C 
BRANCH  12  16
ATOM     16  O   UNL     1      50.362   9.131  15.790  0.00  0.00    +0.000 OA
ATOM     17  H   UNL     1      49.810   9.281  16.577  0.00  0.00    +0.000 HD
ENDBRANCH  12  16
ENDBRANCH  10  14
ENDBRANCH   4  10
ENDBRANCH   1   6
BRANCH   1  18
ATOM     18  C   UNL     1      43.304   4.338  11.025  0.00  0.00    +0.000 C 
BRANCH  18  19
ATOM     19  N   UNL     1      43.766   4.807   9.706  0.00  0.00    +0.000 N 
ATOM     20  C   UNL     1      44.581   3.870   9.070  0.00  0.00    +0.000 A 
ATOM     21  N   UNL     1      44.398   2.565   9.324  0.00  0.00    +0.000 NA
ATOM     22  C   UNL     1      45.239   1.691   8.732  0.00  0.00    +0.000 A 
ATOM     23  C   UNL     1      46.254   2.068   7.888  0.00  0.00    +0.000 A 
ATOM     24  C   UNL     1      46.359   3.424   7.683  0.00  0.00    +0.000 A 
ATOM     25  N   UNL     1      45.541   4.339   8.263  0.00  0.00    +0.000 NA
ATOM     26  H   UNL     1      44.249   5.700   9.699  0.00  0.00    +0.000 HD
BRANCH  23  27
ATOM     27  C   UNL     1      47.152   1.047   7.334  0.00  0.00    +0.000 C 
ATOM     28  N   UNL     1      46.894  -0.266   7.603  0.00  0.00    +0.000 N 
ATOM     29  O   UNL     1      48.127   1.372   6.667  0.00  0.00    +0.000 OA
ATOM     30  H   UNL     1      46.208  -0.598   8.265  0.00  0.00    +0.000 HD
ATOM     31  H   UNL     1      47.580  -0.935   7.267  0.00  0.00    +0.000 HD
ENDBRANCH  23  27
ENDBRANCH  18  19
ENDBRANCH   1  18
TORSDOF 7
ENDMDL
MODEL 7
REMARK VINA RESULT:    -7.868      2.502      4.110
REMARK INTER + INTRA:         -11.747
REMARK INTER:                 -10.882
REMARK INTRA:                  -0.866
REMARK UNBOUND:                -0.890
REMARK  Name = 
REMARK  8 active torsions:
REMARK  status: ('A' for Active; 'I' for Inactive)
REMARK    1  A    between atoms: C_1  and  C_2
REMARK    2  A    between atoms: C_2  and  O_3
REMARK    3  A    between atoms: C_5  and  O_6
REMARK    4  A    between atoms: O_6  and  C_7
REMARK    5  A    between atoms: C_9  and  C_10
REMARK    6  A    between atoms: C_10  and  C_13
REMARK    7  A    between atoms: C_13  and  N_14
REMARK    8  A    between atoms: C_18  and  C_19
REMARK                            x       y       z     vdW  Elec       q    Type
REMARK                         _______ _______ _______ _____ _____    ______ ____
ROOT
ATOM      1  C   UNL     1      43.578   5.465  11.818  0.00  0.00    +0.000 C 
ATOM      2  F   UNL     1      42.691   5.141  12.807  0.00  0.00    +0.000 F 
ATOM      3  F   UNL     1      43.205   6.714  11.397  0.00  0.00    +0.000 F 
ENDROOT
BRANCH   1   6
ATOM      4  C   UNL     1      47.233   6.390  12.344  0.00  0.00    +0.000 A 
ATOM      5  C   UNL     1      45.945   6.370  11.823  0.00  0.00    +0.000 A 
ATOM      6  C   UNL     1      45.005   5.476  12.363  0.00  0.00    +0.000 A 
ATOM      7  C   UNL     1      45.438   4.647  13.411  0.00  0.00    +0.000 A 
ATOM      8  C   UNL     1      46.744   4.743  13.860  0.00  0.00    +0.000 A 
ATOM      9  N   UNL     1      47.652   5.592  13.343  0.00  0.00    +0.000 NA
BRANCH   4  10
ATOM     10  O   UNL     1      48.136   7.280  11.788  0.00  0.00    +0.000 OA
BRANCH  10  14
ATOM     11  C   UNL     1      49.533  10.791  14.262  0.00  0.00    +0.000 C 
ATOM     12  C   UNL     1      48.518  10.376  13.207  0.00  0.00    +0.000 C 
ATOM     13  C   UNL     1      47.751   9.076  13.542  0.00  0.00    +0.000 C 
ATOM     14  C   UNL     1      47.865   8.679  12.047  0.00  0.00    +0.000 C 
ATOM     15  C   UNL     1      49.094   9.625  11.977  0.00  0.00    +0.000 C 
BRANCH  12  16
ATOM     16  O   UNL     1      47.688  11.513  12.881  0.00  0.00    +0.000 OA
ATOM     17  H   UNL     1      47.825  11.671  11.931  0.00  0.00    +0.000 HD
ENDBRANCH  12  16
ENDBRANCH  10  14
ENDBRANCH   4  10
ENDBRANCH   1   6
BRANCH   1  18
ATOM     18  C   UNL     1      43.366   4.488  10.630  0.00  0.00    +0.000 C 
BRANCH  18  19
ATOM     19  N   UNL     1      44.145   3.238  10.684  0.00  0.00    +0.000 N 
ATOM     20  C   UNL     1      44.984   3.091   9.578  0.00  0.00    +0.000 A 
ATOM     21  N   UNL     1      45.463   4.189   8.972  0.00  0.00    +0.000 NA
ATOM     22  C   UNL     1      46.226   4.011   7.874  0.00  0.00    +0.000 A 
ATOM     23  C   UNL     1      46.540   2.777   7.359  0.00  0.00    +0.000 A 
ATOM     24  C   UNL     1      46.009   1.713   8.052  0.00  0.00    +0.000 A 
ATOM     25  N   UNL     1      45.230   1.846   9.155  0.00  0.00    +0.000 NA
ATOM     26  H   UNL     1      43.605   2.384  10.783  0.00  0.00    +0.000 HD
BRANCH  23  27
ATOM     27  C   UNL     1      47.334   2.686   6.128  0.00  0.00    +0.000 C 
ATOM     28  N   UNL     1      48.669   2.419   6.229  0.00  0.00    +0.000 N 
ATOM     29  O   UNL     1      46.811   2.873   5.036  0.00  0.00    +0.000 OA
ATOM     30  H   UNL     1      49.194   2.408   7.091  0.00  0.00    +0.000 HD
ATOM     31  H   UNL     1      49.196   2.441   5.361  0.00  0.00    +0.000 HD
ENDBRANCH  23  27
ENDBRANCH  18  19
ENDBRANCH   1  18
TORSDOF 7
ENDMDL
MODEL 8
REMARK VINA RESULT:    -7.820      2.747      8.244
REMARK INTER + INTRA:         -11.682
REMARK INTER:                 -11.002
REMARK INTRA:                  -0.680
REMARK UNBOUND:                -0.890
REMARK  Name = 
REMARK  8 active torsions:
REMARK  status: ('A' for Active; 'I' for Inactive)
REMARK    1  A    between atoms: C_1  and  C_2
REMARK    2  A    between atoms: C_2  and  O_3
REMARK    3  A    between atoms: C_5  and  O_6
REMARK    4  A    between atoms: O_6  and  C_7
REMARK    5  A    between atoms: C_9  and  C_10
REMARK    6  A    between atoms: C_10  and  C_13
REMARK    7  A    between atoms: C_13  and  N_14
REMARK    8  A    between atoms: C_18  and  C_19
REMARK                            x       y       z     vdW  Elec       q    Type
REMARK                         _______ _______ _______ _____ _____    ______ ____
ROOT
ATOM      1  C   UNL     1      46.077   5.891  12.389  0.00  0.00    +0.000 C 
ATOM      2  F   UNL     1      46.598   6.563  11.318  0.00  0.00    +0.000 F 
ATOM      3  F   UNL     1      45.469   6.851  13.153  0.00  0.00    +0.000 F 
ENDROOT
BRANCH   1   6
ATOM      4  C   UNL     1      44.412   3.142  10.349  0.00  0.00    +0.000 A 
ATOM      5  C   UNL     1      45.323   4.111  10.750  0.00  0.00    +0.000 A 
ATOM      6  C   UNL     1      45.068   4.843  11.923  0.00  0.00    +0.000 A 
ATOM      7  C   UNL     1      43.888   4.542  12.622  0.00  0.00    +0.000 A 
ATOM      8  C   UNL     1      43.043   3.558  12.138  0.00  0.00    +0.000 A 
ATOM      9  N   UNL     1      43.276   2.857  11.013  0.00  0.00    +0.000 NA
BRANCH   4  10
ATOM     10  O   UNL     1      44.690   2.442   9.187  0.00  0.00    +0.000 OA
BRANCH  10  14
ATOM     11  C   UNL     1      46.772   2.498   5.180  0.00  0.00    +0.000 C 
ATOM     12  C   UNL     1      46.969   2.816   6.654  0.00  0.00    +0.000 C 
ATOM     13  C   UNL     1      46.530   1.682   7.611  0.00  0.00    +0.000 C 
ATOM     14  C   UNL     1      45.953   2.768   8.556  0.00  0.00    +0.000 C 
ATOM     15  C   UNL     1      45.863   3.687   7.309  0.00  0.00    +0.000 C 
BRANCH  12  16
ATOM     16  O   UNL     1      48.314   3.304   6.855  0.00  0.00    +0.000 OA
ATOM     17  H   UNL     1      48.897   2.559   6.626  0.00  0.00    +0.000 HD
ENDBRANCH  12  16
ENDBRANCH  10  14
ENDBRANCH   4  10
ENDBRANCH   1   6
BRANCH   1  18
ATOM     18  C   UNL     1      47.251   5.306  13.220  0.00  0.00    +0.000 C 
BRANCH  18  19
ATOM     19  N   UNL     1      46.982   4.023  13.892  0.00  0.00    +0.000 N 
ATOM     20  C   UNL     1      47.488   3.992  15.192  0.00  0.00    +0.000 A 
ATOM     21  N   UNL     1      47.580   5.138  15.884  0.00  0.00    +0.000 NA
ATOM     22  C   UNL     1      48.123   5.079  17.118  0.00  0.00    +0.000 A 
ATOM     23  C   UNL     1      48.572   3.916  17.695  0.00  0.00    +0.000 A 
ATOM     24  C   UNL     1      48.430   2.794  16.912  0.00  0.00    +0.000 A 
ATOM     25  N   UNL     1      47.898   2.808  15.664  0.00  0.00    +0.000 NA
ATOM     26  H   UNL     1      47.311   3.193  13.408  0.00  0.00    +0.000 HD
BRANCH  23  27
ATOM     27  C   UNL     1      49.197   3.961  19.022  0.00  0.00    +0.000 C 
ATOM     28  N   UNL     1      48.478   3.531  20.099  0.00  0.00    +0.000 N 
ATOM     29  O   UNL     1      50.332   4.401  19.159  0.00  0.00    +0.000 OA
ATOM     30  H   UNL     1      47.495   3.303  20.085  0.00  0.00    +0.000 HD
ATOM     31  H   UNL     1      48.917   3.650  21.006  0.00  0.00    +0.000 HD
ENDBRANCH  23  27
ENDBRANCH  18  19
ENDBRANCH   1  18
TORSDOF 7
ENDMDL
MODEL 9
REMARK VINA RESULT:    -7.680      2.507      3.920
REMARK INTER + INTRA:         -11.488
REMARK INTER:                 -10.867
REMARK INTRA:                  -0.621
REMARK UNBOUND:                -0.890
REMARK  Name = 
REMARK  8 active torsions:
REMARK  status: ('A' for Active; 'I' for Inactive)
REMARK    1  A    between atoms: C_1  and  C_2
REMARK    2  A    between atoms: C_2  and  O_3
REMARK    3  A    between atoms: C_5  and  O_6
REMARK    4  A    between atoms: O_6  and  C_7
REMARK    5  A    between atoms: C_9  and  C_10
REMARK    6  A    between atoms: C_10  and  C_13
REMARK    7  A    between atoms: C_13  and  N_14
REMARK    8  A    between atoms: C_18  and  C_19
REMARK                            x       y       z     vdW  Elec       q    Type
REMARK                         _______ _______ _______ _____ _____    ______ ____
ROOT
ATOM      1  C   UNL     1      43.540   5.131  11.769  0.00  0.00    +0.000 C 
ATOM      2  F   UNL     1      42.634   4.933  12.774  0.00  0.00    +0.000 F 
ATOM      3  F   UNL     1      43.178   6.319  11.189  0.00  0.00    +0.000 F 
ENDROOT
BRANCH   1   6
ATOM      4  C   UNL     1      47.091   6.317  12.455  0.00  0.00    +0.000 A 
ATOM      5  C   UNL     1      45.814   6.239  11.914  0.00  0.00    +0.000 A 
ATOM      6  C   UNL     1      44.956   5.210  12.337  0.00  0.00    +0.000 A 
ATOM      7  C   UNL     1      45.456   4.312  13.294  0.00  0.00    +0.000 A 
ATOM      8  C   UNL     1      46.745   4.475  13.772  0.00  0.00    +0.000 A 
ATOM      9  N   UNL     1      47.575   5.454  13.367  0.00  0.00    +0.000 NA
BRANCH   4  10
ATOM     10  O   UNL     1      47.914   7.340  12.015  0.00  0.00    +0.000 OA
BRANCH  10  14
ATOM     11  C   UNL     1      51.679   9.823  12.249  0.00  0.00    +0.000 C 
ATOM     12  C   UNL     1      51.054   8.520  12.721  0.00  0.00    +0.000 C 
ATOM     13  C   UNL     1      50.394   7.689  11.595  0.00  0.00    +0.000 C 
ATOM     14  C   UNL     1      49.247   7.350  12.582  0.00  0.00    +0.000 C 
ATOM     15  C   UNL     1      49.640   8.640  13.351  0.00  0.00    +0.000 C 
BRANCH  12  16
ATOM     16  O   UNL     1      52.013   7.804  13.531  0.00  0.00    +0.000 OA
ATOM     17  H   UNL     1      52.884   8.024  13.157  0.00  0.00    +0.000 HD
ENDBRANCH  12  16
ENDBRANCH  10  14
ENDBRANCH   4  10
ENDBRANCH   1   6
BRANCH   1  18
ATOM     18  C   UNL     1      43.348   4.014  10.709  0.00  0.00    +0.000 C 
BRANCH  18  19
ATOM     19  N   UNL     1      44.322   2.909  10.761  0.00  0.00    +0.000 N 
ATOM     20  C   UNL     1      45.120   2.855   9.618  0.00  0.00    +0.000 A 
ATOM     21  N   UNL     1      45.385   3.990   8.952  0.00  0.00    +0.000 NA
ATOM     22  C   UNL     1      46.115   3.893   7.822  0.00  0.00    +0.000 A 
ATOM     23  C   UNL     1      46.601   2.705   7.331  0.00  0.00    +0.000 A 
ATOM     24  C   UNL     1      46.284   1.599   8.085  0.00  0.00    +0.000 A 
ATOM     25  N   UNL     1      45.546   1.649   9.223  0.00  0.00    +0.000 NA
ATOM     26  H   UNL     1      43.933   1.984  10.916  0.00  0.00    +0.000 HD
BRANCH  23  27
ATOM     27  C   UNL     1      47.340   2.694   6.063  0.00  0.00    +0.000 C 
ATOM     28  N   UNL     1      48.661   2.348   6.079  0.00  0.00    +0.000 N 
ATOM     29  O   UNL     1      46.787   3.015   5.019  0.00  0.00    +0.000 OA
ATOM     30  H   UNL     1      49.217   2.223   6.912  0.00  0.00    +0.000 HD
ATOM     31  H   UNL     1      49.154   2.427   5.195  0.00  0.00    +0.000 HD
ENDBRANCH  23  27
ENDBRANCH  18  19
ENDBRANCH   1  18
TORSDOF 7
ENDMDL
