MODEL 1
REMARK VINA RESULT:    -9.122      0.000      0.000
REMARK INTER + INTRA:         -11.874
REMARK INTER:                 -11.255
REMARK INTRA:                  -0.619
REMARK UNBOUND:                -0.619
REMARK  Name = 
REMARK  5 active torsions:
REMARK  status: ('A' for Active; 'I' for Inactive)
REMARK    1  A    between atoms: C_1  and  C_2
REMARK    2  A    between atoms: C_8  and  C_9
REMARK    3  A    between atoms: C_9  and  N_10
REMARK    4  A    between atoms: N_10  and  C_11
REMARK    5  A    between atoms: C_14  and  C_15
REMARK                            x       y       z     vdW  Elec       q    Type
REMARK                         _______ _______ _______ _____ _____    ______ ____
ROOT
ATOM      1  C   UNL     1      43.995   5.021  11.268  0.00  0.00    +0.000 C 
ATOM      2  C   UNL     1      42.852   5.849  11.843  0.00  0.00    +0.000 C 
ATOM      3  C   UNL     1      42.734   4.363  11.792  0.00  0.00    +0.000 C 
ENDROOT
BRANCH   1  11
ATOM      4  C   UNL     1      49.080  11.216  13.213  0.00  0.00    +0.000 C 
ATOM      5  C   UNL     1      49.321   9.728  12.971  0.00  0.00    +0.000 C 
ATOM      6  C   UNL     1      48.992   8.909  14.238  0.00  0.00    +0.000 C 
ATOM      7  C   UNL     1      49.037   7.396  13.981  0.00  0.00    +0.000 C 
ATOM      8  N   UNL     1      48.171   7.136  12.840  0.00  0.00    +0.000 N 
ATOM      9  C   UNL     1      47.354   6.026  12.833  0.00  0.00    +0.000 A 
ATOM     10  C   UNL     1      46.182   6.042  12.072  0.00  0.00    +0.000 A 
ATOM     11  C   UNL     1      45.279   4.969  12.085  0.00  0.00    +0.000 A 
ATOM     12  C   UNL     1      45.629   3.876  12.875  0.00  0.00    +0.000 A 
ATOM     13  C   UNL     1      46.801   3.922  13.610  0.00  0.00    +0.000 A 
ATOM     14  N   UNL     1      47.650   4.971  13.614  0.00  0.00    +0.000 NA
ATOM     15  C   UNL     1      48.600   7.740  11.586  0.00  0.00    +0.000 C 
ATOM     16  C   UNL     1      48.498   9.253  11.759  0.00  0.00    +0.000 C 
ENDBRANCH   1  11
BRANCH   1  17
ATOM     17  N   UNL     1      44.222   5.119   9.810  0.00  0.00    +0.000 N 
ATOM     18  H   UNL     1      44.415   6.060   9.469  0.00  0.00    +0.000 HD
BRANCH  17  19
ATOM     19  C   UNL     1      44.917   4.138   9.074  0.00  0.00    +0.000 A 
ATOM     20  C   UNL     1      45.888   4.433   8.116  0.00  0.00    +0.000 A 
ATOM     21  C   UNL     1      46.607   3.415   7.493  0.00  0.00    +0.000 A 
ATOM     22  C   UNL     1      46.350   2.108   7.873  0.00  0.00    +0.000 A 
ATOM     23  N   UNL     1      45.432   1.757   8.816  0.00  0.00    +0.000 NA
ATOM     24  C   UNL     1      44.758   2.783   9.391  0.00  0.00    +0.000 A 
BRANCH  22  25
ATOM     25  C   UNL     1      47.123   0.993   7.241  0.00  0.00    +0.000 C 
ATOM     26  N   UNL     1      46.774  -0.264   7.658  0.00  0.00    +0.000 N 
ATOM     27  O   UNL     1      48.007   1.180   6.414  0.00  0.00    +0.000 OA
ATOM     28  H   UNL     1      46.045  -0.368   8.355  0.00  0.00    +0.000 HD
ATOM     29  H   UNL     1      47.257  -1.067   7.286  0.00  0.00    +0.000 HD
ENDBRANCH  22  25
ENDBRANCH  17  19
ENDBRANCH   1  17
TORSDOF 4
ENDMDL
MODEL 2
REMARK VINA RESULT:    -8.283      1.620      2.496
REMARK INTER + INTRA:         -10.839
REMARK INTER:                 -10.098
REMARK INTRA:                  -0.741
REMARK UNBOUND:                -0.619
REMARK  Name = 
REMARK  5 active torsions:
REMARK  status: ('A' for Active; 'I' for Inactive)
REMARK    1  A    between atoms: C_1  and  C_2
REMARK    2  A    between atoms: C_8  and  C_9
REMARK    3  A    between atoms: C_9  and  N_10
REMARK    4  A    between atoms: N_10  and  C_11
REMARK    5  A    between atoms: C_14  and  C_15
REMARK                            x       y       z     vdW  Elec       q    Type
REMARK                         _______ _______ _______ _____ _____    ______ ____
ROOT
ATOM      1  C   UNL     1      44.379   4.298  11.587  0.00  0.00    +0.000 C 
ATOM      2  C   UNL     1      43.738   3.652  12.810  0.00  0.00    +0.000 C 
ATOM      3  C   UNL     1      45.166   3.367  12.489  0.00  0.00    +0.000 C 
ENDROOT
BRANCH   1  11
ATOM      4  C   UNL     1      51.534   8.349  12.236  0.00  0.00    +0.000 C 
ATOM      5  C   UNL     1      50.124   8.672  12.725  0.00  0.00    +0.000 C 
ATOM      6  C   UNL     1      49.279   9.288  11.589  0.00  0.00    +0.000 C 
ATOM      7  C   UNL     1      47.804   9.450  11.982  0.00  0.00    +0.000 C 
ATOM      8  N   UNL     1      47.348   8.148  12.450  0.00  0.00    +0.000 N 
ATOM      9  C   UNL     1      46.092   7.695  12.108  0.00  0.00    +0.000 A 
ATOM     10  C   UNL     1      45.848   6.319  12.063  0.00  0.00    +0.000 A 
ATOM     11  C   UNL     1      44.612   5.801  11.652  0.00  0.00    +0.000 A 
ATOM     12  C   UNL     1      43.631   6.733  11.319  0.00  0.00    +0.000 A 
ATOM     13  C   UNL     1      43.934   8.082  11.379  0.00  0.00    +0.000 A 
ATOM     14  N   UNL     1      45.136   8.572  11.748  0.00  0.00    +0.000 NA
ATOM     15  C   UNL     1      48.003   7.659  13.655  0.00  0.00    +0.000 C 
ATOM     16  C   UNL     1      49.464   7.403  13.298  0.00  0.00    +0.000 C 
ENDBRANCH   1  11
BRANCH   1  17
ATOM     17  N   UNL     1      43.919   3.824  10.265  0.00  0.00    +0.000 N 
ATOM     18  H   UNL     1      43.076   4.278   9.916  0.00  0.00    +0.000 HD
BRANCH  17  19
ATOM     19  C   UNL     1      44.804   3.481   9.221  0.00  0.00    +0.000 A 
ATOM     20  C   UNL     1      45.458   4.420   8.422  0.00  0.00    +0.000 A 
ATOM     21  C   UNL     1      46.395   4.019   7.473  0.00  0.00    +0.000 A 
ATOM     22  C   UNL     1      46.677   2.667   7.367  0.00  0.00    +0.000 A 
ATOM     23  N   UNL     1      46.091   1.704   8.131  0.00  0.00    +0.000 NA
ATOM     24  C   UNL     1      45.185   2.147   9.039  0.00  0.00    +0.000 A 
BRANCH  22  25
ATOM     25  C   UNL     1      47.698   2.204   6.374  0.00  0.00    +0.000 C 
ATOM     26  N   UNL     1      47.880   3.035   5.300  0.00  0.00    +0.000 N 
ATOM     27  O   UNL     1      48.326   1.161   6.501  0.00  0.00    +0.000 OA
ATOM     28  H   UNL     1      47.327   3.882   5.231  0.00  0.00    +0.000 HD
ATOM     29  H   UNL     1      48.543   2.787   4.582  0.00  0.00    +0.000 HD
ENDBRANCH  22  25
ENDBRANCH  17  19
ENDBRANCH   1  17
TORSDOF 4
ENDMDL
MODEL 3
REMARK VINA RESULT:    -8.061      2.966      7.267
REMARK INTER + INTRA:         -10.566
REMARK INTER:                 -10.703
REMARK INTRA:                   0.138
REMARK UNBOUND:                -0.619
REMARK  Name = 
REMARK  5 active torsions:
REMARK  status: ('A' for Active; 'I' for Inactive)
REMARK    1  A    between atoms: C_1  and  C_2
REMARK    2  A    between atoms: C_8  and  C_9
REMARK    3  A    between atoms: C_9  and  N_10
REMARK    4  A    between atoms: N_10  and  C_11
REMARK    5  A    between atoms: C_14  and  C_15
REMARK                            x       y       z     vdW  Elec       q    Type
REMARK                         _______ _______ _______ _____ _____    ______ ____
ROOT
ATOM      1  C   UNL     1      46.301   7.320  12.447  0.00  0.00    +0.000 C 
ATOM      2  C   UNL     1      45.704   8.481  13.234  0.00  0.00    +0.000 C 
ATOM      3  C   UNL     1      46.229   8.715  11.858  0.00  0.00    +0.000 C 
ENDROOT
BRANCH   1  11
ATOM      4  C   UNL     1      47.567   1.350   6.898  0.00  0.00    +0.000 C 
ATOM      5  C   UNL     1      46.316   2.126   7.304  0.00  0.00    +0.000 C 
ATOM      6  C   UNL     1      45.691   1.524   8.581  0.00  0.00    +0.000 C 
ATOM      7  C   UNL     1      44.545   2.385   9.130  0.00  0.00    +0.000 C 
ATOM      8  N   UNL     1      45.069   3.736   9.281  0.00  0.00    +0.000 N 
ATOM      9  C   UNL     1      44.728   4.488  10.385  0.00  0.00    +0.000 A 
ATOM     10  C   UNL     1      45.592   5.497  10.820  0.00  0.00    +0.000 A 
ATOM     11  C   UNL     1      45.331   6.243  11.978  0.00  0.00    +0.000 A 
ATOM     12  C   UNL     1      44.149   5.944  12.653  0.00  0.00    +0.000 A 
ATOM     13  C   UNL     1      43.337   4.931  12.175  0.00  0.00    +0.000 A 
ATOM     14  N   UNL     1      43.611   4.197  11.076  0.00  0.00    +0.000 NA
ATOM     15  C   UNL     1      45.465   4.389   8.041  0.00  0.00    +0.000 C 
ATOM     16  C   UNL     1      46.659   3.616   7.489  0.00  0.00    +0.000 C 
ENDBRANCH   1  11
BRANCH   1  17
ATOM     17  N   UNL     1      47.596   6.788  12.922  0.00  0.00    +0.000 N 
ATOM     18  H   UNL     1      48.378   7.437  12.851  0.00  0.00    +0.000 HD
BRANCH  17  19
ATOM     19  C   UNL     1      47.712   5.941  14.043  0.00  0.00    +0.000 A 
ATOM     20  C   UNL     1      48.253   6.344  15.265  0.00  0.00    +0.000 A 
ATOM     21  C   UNL     1      48.250   5.489  16.364  0.00  0.00    +0.000 A 
ATOM     22  C   UNL     1      47.669   4.240  16.216  0.00  0.00    +0.000 A 
ATOM     23  N   UNL     1      47.105   3.795  15.059  0.00  0.00    +0.000 NA
ATOM     24  C   UNL     1      47.135   4.665  14.019  0.00  0.00    +0.000 A 
BRANCH  22  25
ATOM     25  C   UNL     1      47.626   3.306  17.385  0.00  0.00    +0.000 C 
ATOM     26  N   UNL     1      48.750   3.304  18.167  0.00  0.00    +0.000 N 
ATOM     27  O   UNL     1      46.664   2.589  17.630  0.00  0.00    +0.000 OA
ATOM     28  H   UNL     1      49.527   3.906  17.917  0.00  0.00    +0.000 HD
ATOM     29  H   UNL     1      48.802   2.694  18.968  0.00  0.00    +0.000 HD
ENDBRANCH  22  25
ENDBRANCH  17  19
ENDBRANCH   1  17
TORSDOF 4
ENDMDL
MODEL 4
REMARK VINA RESULT:    -7.821      3.141      7.420
REMARK INTER + INTRA:         -10.269
REMARK INTER:                 -10.260
REMARK INTRA:                  -0.009
REMARK UNBOUND:                -0.619
REMARK  Name = 
REMARK  5 active torsions:
REMARK  status: ('A' for Active; 'I' for Inactive)
REMARK    1  A    between atoms: C_1  and  C_2
REMARK    2  A    between atoms: C_8  and  C_9
REMARK    3  A    between atoms: C_9  and  N_10
REMARK    4  A    between atoms: N_10  and  C_11
REMARK    5  A    between atoms: C_14  and  C_15
REMARK                            x       y       z     vdW  Elec       q    Type
REMARK                         _______ _______ _______ _____ _____    ______ ____
ROOT
ATOM      1  C   UNL     1      46.341   7.307  12.489  0.00  0.00    +0.000 C 
ATOM      2  C   UNL     1      45.740   8.497  13.229  0.00  0.00    +0.000 C 
ATOM      3  C   UNL     1      46.322   8.692  11.870  0.00  0.00    +0.000 C 
ENDROOT
BRANCH   1  11
ATOM      4  C   UNL     1      47.588   1.393   6.878  0.00  0.00    +0.000 C 
ATOM      5  C   UNL     1      46.341   2.171   7.289  0.00  0.00    +0.000 C 
ATOM      6  C   UNL     1      45.709   1.559   8.557  0.00  0.00    +0.000 C 
ATOM      7  C   UNL     1      44.566   2.421   9.113  0.00  0.00    +0.000 C 
ATOM      8  N   UNL     1      45.097   3.767   9.280  0.00  0.00    +0.000 N 
ATOM      9  C   UNL     1      44.758   4.508  10.391  0.00  0.00    +0.000 A 
ATOM     10  C   UNL     1      45.626   5.507  10.840  0.00  0.00    +0.000 A 
ATOM     11  C   UNL     1      45.366   6.242  12.006  0.00  0.00    +0.000 A 
ATOM     12  C   UNL     1      44.181   5.942  12.675  0.00  0.00    +0.000 A 
ATOM     13  C   UNL     1      43.364   4.939  12.183  0.00  0.00    +0.000 A 
ATOM     14  N   UNL     1      43.637   4.216  11.077  0.00  0.00    +0.000 NA
ATOM     15  C   UNL     1      45.500   4.431   8.049  0.00  0.00    +0.000 C 
ATOM     16  C   UNL     1      46.691   3.657   7.491  0.00  0.00    +0.000 C 
ENDBRANCH   1  11
BRANCH   1  17
ATOM     17  N   UNL     1      47.605   6.759  13.024  0.00  0.00    +0.000 N 
ATOM     18  H   UNL     1      48.415   7.368  12.922  0.00  0.00    +0.000 HD
BRANCH  17  19
ATOM     19  C   UNL     1      47.668   5.991  14.206  0.00  0.00    +0.000 A 
ATOM     20  C   UNL     1      47.033   4.758  14.362  0.00  0.00    +0.000 A 
ATOM     21  C   UNL     1      47.215   4.003  15.519  0.00  0.00    +0.000 A 
ATOM     22  C   UNL     1      48.066   4.499  16.492  0.00  0.00    +0.000 A 
ATOM     23  N   UNL     1      48.732   5.683  16.391  0.00  0.00    +0.000 NA
ATOM     24  C   UNL     1      48.520   6.379  15.247  0.00  0.00    +0.000 A 
BRANCH  22  25
ATOM     25  C   UNL     1      48.304   3.701  17.737  0.00  0.00    +0.000 C 
ATOM     26  N   UNL     1      47.287   2.853  18.084  0.00  0.00    +0.000 N 
ATOM     27  O   UNL     1      49.327   3.794  18.402  0.00  0.00    +0.000 OA
ATOM     28  H   UNL     1      46.452   2.819  17.509  0.00  0.00    +0.000 HD
ATOM     29  H   UNL     1      47.367   2.289  18.916  0.00  0.00    +0.000 HD
ENDBRANCH  22  25
ENDBRANCH  17  19
ENDBRANCH   1  17
TORSDOF 4
ENDMDL
MODEL 5
REMARK VINA RESULT:    -7.643      2.925      7.410
REMARK INTER + INTRA:         -10.049
REMARK INTER:                  -9.705
REMARK INTRA:                  -0.345
REMARK UNBOUND:                -0.619
REMARK  Name = 
REMARK  5 active torsions:
REMARK  status: ('A' for Active; 'I' for Inactive)
REMARK    1  A    between atoms: C_1  and  C_2
REMARK    2  A    between atoms: C_8  and  C_9
REMARK    3  A    between atoms: C_9  and  N_10
REMARK    4  A    between atoms: N_10  and  C_11
REMARK    5  A    between atoms: C_14  and  C_15
REMARK                            x       y       z     vdW  Elec       q    Type
REMARK                         _______ _______ _______ _____ _____    ______ ____
ROOT
ATOM      1  C   UNL     1      47.079   7.198  12.743  0.00  0.00    +0.000 C 
ATOM      2  C   UNL     1      47.332   8.515  12.018  0.00  0.00    +0.000 C 
ATOM      3  C   UNL     1      48.317   7.402  11.892  0.00  0.00    +0.000 C 
ENDROOT
BRANCH   1  11
ATOM      4  C   UNL     1      47.274   1.288   6.994  0.00  0.00    +0.000 C 
ATOM      5  C   UNL     1      46.188   2.275   7.415  0.00  0.00    +0.000 C 
ATOM      6  C   UNL     1      45.437   1.761   8.662  0.00  0.00    +0.000 C 
ATOM      7  C   UNL     1      44.468   2.807   9.231  0.00  0.00    +0.000 C 
ATOM      8  N   UNL     1      45.238   4.027   9.437  0.00  0.00    +0.000 N 
ATOM      9  C   UNL     1      45.029   4.792  10.563  0.00  0.00    +0.000 A 
ATOM     10  C   UNL     1      46.062   5.601  11.044  0.00  0.00    +0.000 A 
ATOM     11  C   UNL     1      45.929   6.344  12.226  0.00  0.00    +0.000 A 
ATOM     12  C   UNL     1      44.700   6.254  12.878  0.00  0.00    +0.000 A 
ATOM     13  C   UNL     1      43.718   5.432  12.355  0.00  0.00    +0.000 A 
ATOM     14  N   UNL     1      43.865   4.698  11.232  0.00  0.00    +0.000 NA
ATOM     15  C   UNL     1      45.772   4.633   8.225  0.00  0.00    +0.000 C 
ATOM     16  C   UNL     1      46.806   3.665   7.658  0.00  0.00    +0.000 C 
ENDBRANCH   1  11
BRANCH   1  17
ATOM     17  N   UNL     1      47.188   7.218  14.217  0.00  0.00    +0.000 N 
ATOM     18  H   UNL     1      46.390   7.624  14.702  0.00  0.00    +0.000 HD
BRANCH  17  19
ATOM     19  C   UNL     1      47.778   6.171  14.957  0.00  0.00    +0.000 A 
ATOM     20  C   UNL     1      48.728   6.373  15.959  0.00  0.00    +0.000 A 
ATOM     21  C   UNL     1      49.199   5.305  16.720  0.00  0.00    +0.000 A 
ATOM     22  C   UNL     1      48.676   4.047  16.471  0.00  0.00    +0.000 A 
ATOM     23  N   UNL     1      47.732   3.789  15.524  0.00  0.00    +0.000 NA
ATOM     24  C   UNL     1      47.308   4.861  14.811  0.00  0.00    +0.000 A 
BRANCH  22  25
ATOM     25  C   UNL     1      49.143   2.882  17.288  0.00  0.00    +0.000 C 
ATOM     26  N   UNL     1      49.045   3.048  18.643  0.00  0.00    +0.000 N 
ATOM     27  O   UNL     1      49.583   1.854  16.790  0.00  0.00    +0.000 OA
ATOM     28  H   UNL     1      48.685   3.923  19.010  0.00  0.00    +0.000 HD
ATOM     29  H   UNL     1      49.349   2.312  19.262  0.00  0.00    +0.000 HD
ENDBRANCH  22  25
ENDBRANCH  17  19
ENDBRANCH   1  17
TORSDOF 4
ENDMDL
MODEL 6
REMARK VINA RESULT:    -7.039      1.899      3.098
REMARK INTER + INTRA:          -9.305
REMARK INTER:                  -8.861
REMARK INTRA:                  -0.443
REMARK UNBOUND:                -0.619
REMARK  Name = 
REMARK  5 active torsions:
REMARK  status: ('A' for Active; 'I' for Inactive)
REMARK    1  A    between atoms: C_1  and  C_2
REMARK    2  A    between atoms: C_8  and  C_9
REMARK    3  A    between atoms: C_9  and  N_10
REMARK    4  A    between atoms: N_10  and  C_11
REMARK    5  A    between atoms: C_14  and  C_15
REMARK                            x       y       z     vdW  Elec       q    Type
REMARK                         _______ _______ _______ _____ _____    ______ ____
ROOT
ATOM      1  C   UNL     1      45.111   5.082  12.096  0.00  0.00    +0.000 C 
ATOM      2  C   UNL     1      44.223   4.539  13.209  0.00  0.00    +0.000 C 
ATOM      3  C   UNL     1      45.481   3.821  12.853  0.00  0.00    +0.000 C 
ENDROOT
BRANCH   1  11
ATOM      4  C   UNL     1      52.079   6.217  16.360  0.00  0.00    +0.000 C 
ATOM      5  C   UNL     1      50.849   7.097  16.151  0.00  0.00    +0.000 C 
ATOM      6  C   UNL     1      50.937   7.846  14.804  0.00  0.00    +0.000 C 
ATOM      7  C   UNL     1      49.638   8.592  14.467  0.00  0.00    +0.000 C 
ATOM      8  N   UNL     1      48.557   7.619  14.559  0.00  0.00    +0.000 N 
ATOM      9  C   UNL     1      47.539   7.630  13.631  0.00  0.00    +0.000 A 
ATOM     10  C   UNL     1      46.838   6.450  13.368  0.00  0.00    +0.000 A 
ATOM     11  C   UNL     1      45.843   6.387  12.383  0.00  0.00    +0.000 A 
ATOM     12  C   UNL     1      45.570   7.572  11.702  0.00  0.00    +0.000 A 
ATOM     13  C   UNL     1      46.301   8.707  12.004  0.00  0.00    +0.000 A 
ATOM     14  N   UNL     1      47.278   8.752  12.934  0.00  0.00    +0.000 NA
ATOM     15  C   UNL     1      48.335   7.065  15.887  0.00  0.00    +0.000 C 
ATOM     16  C   UNL     1      49.570   6.243  16.242  0.00  0.00    +0.000 C 
ENDBRANCH   1  11
BRANCH   1  17
ATOM     17  N   UNL     1      44.587   4.985  10.717  0.00  0.00    +0.000 N 
ATOM     18  H   UNL     1      44.166   5.840  10.357  0.00  0.00    +0.000 HD
BRANCH  17  19
ATOM     19  C   UNL     1      45.228   4.244   9.703  0.00  0.00    +0.000 A 
ATOM     20  C   UNL     1      45.074   2.867   9.536  0.00  0.00    +0.000 A 
ATOM     21  C   UNL     1      45.657   2.210   8.455  0.00  0.00    +0.000 A 
ATOM     22  C   UNL     1      46.368   2.967   7.539  0.00  0.00    +0.000 A 
ATOM     23  N   UNL     1      46.537   4.315   7.633  0.00  0.00    +0.000 NA
ATOM     24  C   UNL     1      45.951   4.907   8.704  0.00  0.00    +0.000 A 
BRANCH  22  25
ATOM     25  C   UNL     1      46.987   2.296   6.352  0.00  0.00    +0.000 C 
ATOM     26  N   UNL     1      47.071   3.071   5.226  0.00  0.00    +0.000 N 
ATOM     27  O   UNL     1      47.388   1.139   6.376  0.00  0.00    +0.000 OA
ATOM     28  H   UNL     1      46.714   4.019   5.251  0.00  0.00    +0.000 HD
ATOM     29  H   UNL     1      47.466   2.686   4.382  0.00  0.00    +0.000 HD
ENDBRANCH  22  25
ENDBRANCH  17  19
ENDBRANCH   1  17
TORSDOF 4
ENDMDL
MODEL 7
REMARK VINA RESULT:    -6.751      3.248      5.897
REMARK INTER + INTRA:          -8.948
REMARK INTER:                  -8.787
REMARK INTRA:                  -0.161
REMARK UNBOUND:                -0.619
REMARK  Name = 
REMARK  5 active torsions:
REMARK  status: ('A' for Active; 'I' for Inactive)
REMARK    1  A    between atoms: C_1  and  C_2
REMARK    2  A    between atoms: C_8  and  C_9
REMARK    3  A    between atoms: C_9  and  N_10
REMARK    4  A    between atoms: N_10  and  C_11
REMARK    5  A    between atoms: C_14  and  C_15
REMARK                            x       y       z     vdW  Elec       q    Type
REMARK                         _______ _______ _______ _____ _____    ______ ____
ROOT
ATOM      1  C   UNL     1      47.639   8.027  13.187  0.00  0.00    +0.000 C 
ATOM      2  C   UNL     1      48.434   7.543  11.980  0.00  0.00    +0.000 C 
ATOM      3  C   UNL     1      48.077   8.986  12.098  0.00  0.00    +0.000 C 
ENDROOT
BRANCH   1  11
ATOM      4  C   UNL     1      50.863   1.589  17.210  0.00  0.00    +0.000 C 
ATOM      5  C   UNL     1      50.242   2.896  17.696  0.00  0.00    +0.000 C 
ATOM      6  C   UNL     1      51.273   4.043  17.641  0.00  0.00    +0.000 C 
ATOM      7  C   UNL     1      50.640   5.410  17.938  0.00  0.00    +0.000 C 
ATOM      8  N   UNL     1      49.510   5.557  17.032  0.00  0.00    +0.000 N 
ATOM      9  C   UNL     1      49.258   6.774  16.435  0.00  0.00    +0.000 A 
ATOM     10  C   UNL     1      48.578   6.811  15.215  0.00  0.00    +0.000 A 
ATOM     11  C   UNL     1      48.359   8.014  14.529  0.00  0.00    +0.000 A 
ATOM     12  C   UNL     1      48.831   9.172  15.145  0.00  0.00    +0.000 A 
ATOM     13  C   UNL     1      49.501   9.070  16.351  0.00  0.00    +0.000 A 
ATOM     14  N   UNL     1      49.733   7.904  16.991  0.00  0.00    +0.000 NA
ATOM     15  C   UNL     1      48.432   4.597  17.225  0.00  0.00    +0.000 C 
ATOM     16  C   UNL     1      48.986   3.222  16.865  0.00  0.00    +0.000 C 
ENDBRANCH   1  11
BRANCH   1  17
ATOM     17  N   UNL     1      46.225   7.602  13.268  0.00  0.00    +0.000 N 
ATOM     18  H   UNL     1      45.545   8.353  13.164  0.00  0.00    +0.000 HD
BRANCH  17  19
ATOM     19  C   UNL     1      45.757   6.387  12.726  0.00  0.00    +0.000 A 
ATOM     20  C   UNL     1      45.946   5.145  13.334  0.00  0.00    +0.000 A 
ATOM     21  C   UNL     1      45.373   3.994  12.797  0.00  0.00    +0.000 A 
ATOM     22  C   UNL     1      44.591   4.124  11.662  0.00  0.00    +0.000 A 
ATOM     23  N   UNL     1      44.350   5.309  11.034  0.00  0.00    +0.000 NA
ATOM     24  C   UNL     1      44.931   6.398  11.595  0.00  0.00    +0.000 A 
BRANCH  22  25
ATOM     25  C   UNL     1      43.941   2.910  11.074  0.00  0.00    +0.000 C 
ATOM     26  N   UNL     1      44.598   2.361  10.005  0.00  0.00    +0.000 N 
ATOM     27  O   UNL     1      42.898   2.437  11.507  0.00  0.00    +0.000 OA
ATOM     28  H   UNL     1      45.452   2.796   9.673  0.00  0.00    +0.000 HD
ATOM     29  H   UNL     1      44.217   1.547   9.548  0.00  0.00    +0.000 HD
ENDBRANCH  22  25
ENDBRANCH  17  19
ENDBRANCH   1  17
TORSDOF 4
ENDMDL
MODEL 8
REMARK VINA RESULT:    -6.701      3.548      7.657
REMARK INTER + INTRA:          -8.888
REMARK INTER:                  -8.732
REMARK INTRA:                  -0.156
REMARK UNBOUND:                -0.619
REMARK  Name = 
REMARK  5 active torsions:
REMARK  status: ('A' for Active; 'I' for Inactive)
REMARK    1  A    between atoms: C_1  and  C_2
REMARK    2  A    between atoms: C_8  and  C_9
REMARK    3  A    between atoms: C_9  and  N_10
REMARK    4  A    between atoms: N_10  and  C_11
REMARK    5  A    between atoms: C_14  and  C_15
REMARK                            x       y       z     vdW  Elec       q    Type
REMARK                         _______ _______ _______ _____ _____    ______ ____
ROOT
ATOM      1  C   UNL     1      48.825   8.337  12.966  0.00  0.00    +0.000 C 
ATOM      2  C   UNL     1      49.887   9.100  12.183  0.00  0.00    +0.000 C 
ATOM      3  C   UNL     1      49.853   7.609  12.121  0.00  0.00    +0.000 C 
ENDROOT
BRANCH   1  11
ATOM      4  C   UNL     1      43.254   2.374  11.768  0.00  0.00    +0.000 C 
ATOM      5  C   UNL     1      43.480   3.720  11.083  0.00  0.00    +0.000 C 
ATOM      6  C   UNL     1      42.848   4.864  11.904  0.00  0.00    +0.000 C 
ATOM      7  C   UNL     1      43.216   6.249  11.353  0.00  0.00    +0.000 C 
ATOM      8  N   UNL     1      44.668   6.292  11.257  0.00  0.00    +0.000 N 
ATOM      9  C   UNL     1      45.348   7.439  11.607  0.00  0.00    +0.000 A 
ATOM     10  C   UNL     1      46.674   7.345  12.039  0.00  0.00    +0.000 A 
ATOM     11  C   UNL     1      47.389   8.469  12.476  0.00  0.00    +0.000 A 
ATOM     12  C   UNL     1      46.716   9.688  12.427  0.00  0.00    +0.000 A 
ATOM     13  C   UNL     1      45.402   9.716  11.995  0.00  0.00    +0.000 A 
ATOM     14  N   UNL     1      44.711   8.625  11.604  0.00  0.00    +0.000 NA
ATOM     15  C   UNL     1      45.255   5.349  10.316  0.00  0.00    +0.000 C 
ATOM     16  C   UNL     1      44.987   3.948  10.859  0.00  0.00    +0.000 C 
ENDBRANCH   1  11
BRANCH   1  17
ATOM     17  N   UNL     1      48.953   8.339  14.439  0.00  0.00    +0.000 N 
ATOM     18  H   UNL     1      48.626   9.189  14.897  0.00  0.00    +0.000 HD
BRANCH  17  19
ATOM     19  C   UNL     1      48.730   7.194  15.231  0.00  0.00    +0.000 A 
ATOM     20  C   UNL     1      48.919   7.160  16.613  0.00  0.00    +0.000 A 
ATOM     21  C   UNL     1      48.587   6.026  17.351  0.00  0.00    +0.000 A 
ATOM     22  C   UNL     1      48.039   4.948  16.677  0.00  0.00    +0.000 A 
ATOM     23  N   UNL     1      47.809   4.926  15.335  0.00  0.00    +0.000 NA
ATOM     24  C   UNL     1      48.150   6.053  14.662  0.00  0.00    +0.000 A 
BRANCH  22  25
ATOM     25  C   UNL     1      47.648   3.723  17.444  0.00  0.00    +0.000 C 
ATOM     26  N   UNL     1      48.594   3.260  18.318  0.00  0.00    +0.000 N 
ATOM     27  O   UNL     1      46.565   3.167  17.304  0.00  0.00    +0.000 OA
ATOM     28  H   UNL     1      49.481   3.746  18.390  0.00  0.00    +0.000 HD
ATOM     29  H   UNL     1      48.410   2.432  18.864  0.00  0.00    +0.000 HD
ENDBRANCH  22  25
ENDBRANCH  17  19
ENDBRANCH   1  17
TORSDOF 4
ENDMDL
MODEL 9
REMARK VINA RESULT:    -6.617      4.348      8.114
REMARK INTER + INTRA:          -8.783
REMARK INTER:                  -8.053
REMARK INTRA:                  -0.730
REMARK UNBOUND:                -0.619
REMARK  Name = 
REMARK  5 active torsions:
REMARK  status: ('A' for Active; 'I' for Inactive)
REMARK    1  A    between atoms: C_1  and  C_2
REMARK    2  A    between atoms: C_8  and  C_9
REMARK    3  A    between atoms: C_9  and  N_10
REMARK    4  A    between atoms: N_10  and  C_11
REMARK    5  A    between atoms: C_14  and  C_15
REMARK                            x       y       z     vdW  Elec       q    Type
REMARK                         _______ _______ _______ _____ _____    ______ ____
ROOT
ATOM      1  C   UNL     1      48.980   7.151  16.950  0.00  0.00    +0.000 C 
ATOM      2  C   UNL     1      48.307   8.363  17.586  0.00  0.00    +0.000 C 
ATOM      3  C   UNL     1      49.791   8.222  17.654  0.00  0.00    +0.000 C 
ENDROOT
BRANCH   1  11
ATOM      4  C   UNL     1      42.662   5.327  11.972  0.00  0.00    +0.000 C 
ATOM      5  C   UNL     1      44.167   5.108  11.842  0.00  0.00    +0.000 C 
ATOM      6  C   UNL     1      44.866   6.392  11.346  0.00  0.00    +0.000 C 
ATOM      7  C   UNL     1      46.396   6.275  11.384  0.00  0.00    +0.000 C 
ATOM      8  N   UNL     1      46.754   5.864  12.735  0.00  0.00    +0.000 N 
ATOM      9  C   UNL     1      47.855   6.415  13.353  0.00  0.00    +0.000 A 
ATOM     10  C   UNL     1      47.902   6.469  14.749  0.00  0.00    +0.000 A 
ATOM     11  C   UNL     1      48.964   7.083  15.429  0.00  0.00    +0.000 A 
ATOM     12  C   UNL     1      49.983   7.610  14.638  0.00  0.00    +0.000 A 
ATOM     13  C   UNL     1      49.877   7.530  13.260  0.00  0.00    +0.000 A 
ATOM     14  N   UNL     1      48.837   6.963  12.613  0.00  0.00    +0.000 NA
ATOM     15  C   UNL     1      46.269   4.550  13.131  0.00  0.00    +0.000 C 
ATOM     16  C   UNL     1      44.747   4.631  13.187  0.00  0.00    +0.000 C 
ENDBRANCH   1  11
BRANCH   1  17
ATOM     17  N   UNL     1      48.759   5.846  17.607  0.00  0.00    +0.000 N 
ATOM     18  H   UNL     1      47.797   5.511  17.584  0.00  0.00    +0.000 HD
BRANCH  17  19
ATOM     19  C   UNL     1      49.688   4.787  17.540  0.00  0.00    +0.000 A 
ATOM     20  C   UNL     1      51.054   4.940  17.782  0.00  0.00    +0.000 A 
ATOM     21  C   UNL     1      51.905   3.837  17.798  0.00  0.00    +0.000 A 
ATOM     22  C   UNL     1      51.349   2.584  17.594  0.00  0.00    +0.000 A 
ATOM     23  N   UNL     1      50.023   2.365  17.375  0.00  0.00    +0.000 NA
ATOM     24  C   UNL     1      49.239   3.472  17.369  0.00  0.00    +0.000 A 
BRANCH  22  25
ATOM     25  C   UNL     1      52.231   1.375  17.629  0.00  0.00    +0.000 C 
ATOM     26  N   UNL     1      51.632   0.233  18.088  0.00  0.00    +0.000 N 
ATOM     27  O   UNL     1      53.404   1.396  17.278  0.00  0.00    +0.000 OA
ATOM     28  H   UNL     1      50.661   0.267  18.380  0.00  0.00    +0.000 HD
ATOM     29  H   UNL     1      52.164  -0.621  18.152  0.00  0.00    +0.000 HD
ENDBRANCH  22  25
ENDBRANCH  17  19
ENDBRANCH   1  17
TORSDOF 4
ENDMDL
