MODEL 1
REMARK VINA RESULT:    -9.127      0.000      0.000
REMARK INTER + INTRA:         -14.166
REMARK INTER:                 -12.862
REMARK INTRA:                  -1.304
REMARK UNBOUND:                -1.304
REMARK  Name = 
REMARK  7 active torsions:
REMARK  status: ('A' for Active; 'I' for Inactive)
REMARK    1  A    between atoms: C_2  and  C_4
REMARK    2  A    between atoms: C_7  and  O_8
REMARK    3  A    between atoms: O_8  and  C_9
REMARK    4  A    between atoms: C_9  and  C_10
REMARK    5  A    between atoms: C_10  and  C_13
REMARK    6  A    between atoms: C_17  and  C_18
REMARK    7  A    between atoms: C_18  and  C_19
REMARK                            x       y       z     vdW  Elec       q    Type
REMARK                         _______ _______ _______ _____ _____    ______ ____
ROOT
ATOM      1  C   UNL     1      43.733   4.730  12.234  0.00  0.00    +0.000 C 
ATOM      2  F   UNL     1      42.782   5.553  12.770  0.00  0.00    +0.000 F 
ATOM      3  F   UNL     1      43.569   3.529  12.868  0.00  0.00    +0.000 F 
ENDROOT
BRANCH   1   4
ATOM      4  C   UNL     1      45.129   5.304  12.440  0.00  0.00    +0.000 A 
ATOM      5  C   UNL     1      45.654   6.243  11.538  0.00  0.00    +0.000 A 
ATOM      6  C   UNL     1      46.918   6.796  11.742  0.00  0.00    +0.000 A 
ATOM      7  C   UNL     1      47.661   6.449  12.872  0.00  0.00    +0.000 A 
ATOM      8  C   UNL     1      47.151   5.538  13.808  0.00  0.00    +0.000 A 
ATOM      9  C   UNL     1      45.897   4.950  13.564  0.00  0.00    +0.000 A 
BRANCH   8  10
ATOM     10  C   UNL     1      47.878   5.275  15.106  0.00  0.00    +0.000 C 
BRANCH  10  11
ATOM     11  C   UNL     1      47.265   4.133  15.911  0.00  0.00    +0.000 C 
ATOM     12  C   UNL     1      47.166   4.443  17.424  0.00  0.00    +0.000 C 
ATOM     13  C   UNL     1      47.749   3.055  17.743  0.00  0.00    +0.000 C 
ATOM     14  F   UNL     1      48.771   3.051  18.629  0.00  0.00    +0.000 F 
ATOM     15  F   UNL     1      46.854   2.141  18.182  0.00  0.00    +0.000 F 
ATOM     16  C   UNL     1      48.161   2.923  16.263  0.00  0.00    +0.000 C 
ENDBRANCH  10  11
ENDBRANCH   8  10
ENDBRANCH   1   4
BRANCH   1  17
ATOM     17  C   UNL     1      43.428   4.536  10.743  0.00  0.00    +0.000 C 
BRANCH  17  18
ATOM     18  O   UNL     1      43.518   3.154  10.349  0.00  0.00    +0.000 OA
BRANCH  18  22
ATOM     19  C   UNL     1      46.439   2.651   7.489  0.00  0.00    +0.000 A 
ATOM     20  C   UNL     1      45.846   3.907   7.653  0.00  0.00    +0.000 A 
ATOM     21  C   UNL     1      44.855   4.072   8.623  0.00  0.00    +0.000 A 
ATOM     22  C   UNL     1      44.496   2.973   9.391  0.00  0.00    +0.000 A 
ATOM     23  N   UNL     1      45.051   1.751   9.247  0.00  0.00    +0.000 NA
ATOM     24  C   UNL     1      46.001   1.613   8.293  0.00  0.00    +0.000 A 
BRANCH  19  26
ATOM     25  N   UNL     1      47.459   3.067   5.327  0.00  0.00    +0.000 N 
ATOM     26  C   UNL     1      47.495   2.366   6.498  0.00  0.00    +0.000 C 
ATOM     27  O   UNL     1      48.395   1.570   6.736  0.00  0.00    +0.000 OA
ATOM     28  H   UNL     1      48.260   2.951   4.717  0.00  0.00    +0.000 HD
ATOM     29  H   UNL     1      46.907   3.904   5.213  0.00  0.00    +0.000 HD
ENDBRANCH  19  26
ENDBRANCH  18  22
ENDBRANCH  17  18
ENDBRANCH   1  17
TORSDOF 7
ENDMDL
MODEL 2
REMARK VINA RESULT:    -8.323      3.129      4.488
REMARK INTER + INTRA:         -13.033
REMARK INTER:                 -11.773
REMARK INTRA:                  -1.260
REMARK UNBOUND:                -1.304
REMARK  Name = 
REMARK  7 active torsions:
REMARK  status: ('A' for Active; 'I' for Inactive)
REMARK    1  A    between atoms: C_2  and  C_4
REMARK    2  A    between atoms: C_7  and  O_8
REMARK    3  A    between atoms: O_8  and  C_9
REMARK    4  A    between atoms: C_9  and  C_10
REMARK    5  A    between atoms: C_10  and  C_13
REMARK    6  A    between atoms: C_17  and  C_18
REMARK    7  A    between atoms: C_18  and  C_19
REMARK                            x       y       z     vdW  Elec       q    Type
REMARK                         _______ _______ _______ _____ _____    ______ ____
ROOT
ATOM      1  C   UNL     1      44.007   4.744  12.436  0.00  0.00    +0.000 C 
ATOM      2  F   UNL     1      43.022   5.374  13.145  0.00  0.00    +0.000 F 
ATOM      3  F   UNL     1      43.860   3.414  12.717  0.00  0.00    +0.000 F 
ENDROOT
BRANCH   1   4
ATOM      4  C   UNL     1      45.382   5.268  12.830  0.00  0.00    +0.000 A 
ATOM      5  C   UNL     1      46.051   4.746  13.949  0.00  0.00    +0.000 A 
ATOM      6  C   UNL     1      47.324   5.200  14.292  0.00  0.00    +0.000 A 
ATOM      7  C   UNL     1      47.966   6.154  13.500  0.00  0.00    +0.000 A 
ATOM      8  C   UNL     1      47.338   6.670  12.358  0.00  0.00    +0.000 A 
ATOM      9  C   UNL     1      46.034   6.242  12.051  0.00  0.00    +0.000 A 
BRANCH   8  10
ATOM     10  C   UNL     1      48.083   7.584  11.414  0.00  0.00    +0.000 C 
BRANCH  10  11
ATOM     11  C   UNL     1      49.388   8.112  12.002  0.00  0.00    +0.000 C 
ATOM     12  C   UNL     1      49.611   9.619  11.729  0.00  0.00    +0.000 C 
ATOM     13  C   UNL     1      51.060   9.324  11.303  0.00  0.00    +0.000 C 
ATOM     14  F   UNL     1      51.437   9.877  10.127  0.00  0.00    +0.000 F 
ATOM     15  F   UNL     1      52.007   9.660  12.208  0.00  0.00    +0.000 F 
ATOM     16  C   UNL     1      50.703   7.826  11.241  0.00  0.00    +0.000 C 
ENDBRANCH  10  11
ENDBRANCH   8  10
ENDBRANCH   1   4
BRANCH   1  17
ATOM     17  C   UNL     1      43.742   4.955  10.939  0.00  0.00    +0.000 C 
BRANCH  17  18
ATOM     18  O   UNL     1      43.385   3.727  10.277  0.00  0.00    +0.000 OA
BRANCH  18  22
ATOM     19  C   UNL     1      46.412   2.496   7.768  0.00  0.00    +0.000 A 
ATOM     20  C   UNL     1      46.090   3.856   7.843  0.00  0.00    +0.000 A 
ATOM     21  C   UNL     1      45.062   4.268   8.694  0.00  0.00    +0.000 A 
ATOM     22  C   UNL     1      44.395   3.303   9.436  0.00  0.00    +0.000 A 
ATOM     23  N   UNL     1      44.686   1.986   9.376  0.00  0.00    +0.000 NA
ATOM     24  C   UNL     1      45.678   1.610   8.536  0.00  0.00    +0.000 A 
BRANCH  19  26
ATOM     25  N   UNL     1      48.470   2.811   6.522  0.00  0.00    +0.000 N 
ATOM     26  C   UNL     1      47.479   1.953   6.907  0.00  0.00    +0.000 C 
ATOM     27  O   UNL     1      47.504   0.771   6.589  0.00  0.00    +0.000 OA
ATOM     28  H   UNL     1      49.256   2.391   6.039  0.00  0.00    +0.000 HD
ATOM     29  H   UNL     1      48.625   3.698   6.977  0.00  0.00    +0.000 HD
ENDBRANCH  19  26
ENDBRANCH  18  22
ENDBRANCH  17  18
ENDBRANCH   1  17
TORSDOF 7
ENDMDL
MODEL 3
REMARK VINA RESULT:    -8.004      2.736      4.054
REMARK INTER + INTRA:         -12.583
REMARK INTER:                 -11.562
REMARK INTRA:                  -1.021
REMARK UNBOUND:                -1.304
REMARK  Name = 
REMARK  7 active torsions:
REMARK  status: ('A' for Active; 'I' for Inactive)
REMARK    1  A    between atoms: C_2  and  C_4
REMARK    2  A    between atoms: C_7  and  O_8
REMARK    3  A    between atoms: O_8  and  C_9
REMARK    4  A    between atoms: C_9  and  C_10
REMARK    5  A    between atoms: C_10  and  C_13
REMARK    6  A    between atoms: C_17  and  C_18
REMARK    7  A    between atoms: C_18  and  C_19
REMARK                            x       y       z     vdW  Elec       q    Type
REMARK                         _______ _______ _______ _____ _____    ______ ____
ROOT
ATOM      1  C   UNL     1      44.220   4.117  12.356  0.00  0.00    +0.000 C 
ATOM      2  F   UNL     1      43.295   4.063  13.362  0.00  0.00    +0.000 F 
ATOM      3  F   UNL     1      45.063   3.064  12.584  0.00  0.00    +0.000 F 
ENDROOT
BRANCH   1   4
ATOM      4  C   UNL     1      44.953   5.453  12.361  0.00  0.00    +0.000 A 
ATOM      5  C   UNL     1      44.365   6.590  11.786  0.00  0.00    +0.000 A 
ATOM      6  C   UNL     1      45.019   7.822  11.818  0.00  0.00    +0.000 A 
ATOM      7  C   UNL     1      46.251   7.945  12.462  0.00  0.00    +0.000 A 
ATOM      8  C   UNL     1      46.849   6.835  13.074  0.00  0.00    +0.000 A 
ATOM      9  C   UNL     1      46.204   5.587  12.990  0.00  0.00    +0.000 A 
BRANCH   8  10
ATOM     10  C   UNL     1      48.103   6.991  13.902  0.00  0.00    +0.000 C 
BRANCH  10  11
ATOM     11  C   UNL     1      49.322   7.377  13.069  0.00  0.00    +0.000 C 
ATOM     12  C   UNL     1      49.633   8.893  13.117  0.00  0.00    +0.000 C 
ATOM     13  C   UNL     1      49.802   8.904  11.588  0.00  0.00    +0.000 C 
ATOM     14  F   UNL     1      49.126   9.881  10.942  0.00  0.00    +0.000 F 
ATOM     15  F   UNL     1      51.080   8.965  11.149  0.00  0.00    +0.000 F 
ATOM     16  C   UNL     1      49.150   7.508  11.538  0.00  0.00    +0.000 C 
ENDBRANCH  10  11
ENDBRANCH   8  10
ENDBRANCH   1   4
BRANCH   1  17
ATOM     17  C   UNL     1      43.503   3.883  11.020  0.00  0.00    +0.000 C 
BRANCH  17  18
ATOM     18  O   UNL     1      43.766   2.572  10.489  0.00  0.00    +0.000 OA
BRANCH  18  22
ATOM     19  C   UNL     1      46.396   2.792   7.325  0.00  0.00    +0.000 A 
ATOM     20  C   UNL     1      45.712   3.943   7.733  0.00  0.00    +0.000 A 
ATOM     21  C   UNL     1      44.820   3.862   8.805  0.00  0.00    +0.000 A 
ATOM     22  C   UNL     1      44.648   2.633   9.427  0.00  0.00    +0.000 A 
ATOM     23  N   UNL     1      45.293   1.510   9.047  0.00  0.00    +0.000 NA
ATOM     24  C   UNL     1      46.142   1.611   7.999  0.00  0.00    +0.000 A 
BRANCH  19  26
ATOM     25  N   UNL     1      48.662   2.488   6.513  0.00  0.00    +0.000 N 
ATOM     26  C   UNL     1      47.360   2.765   6.209  0.00  0.00    +0.000 C 
ATOM     27  O   UNL     1      47.000   2.935   5.050  0.00  0.00    +0.000 OA
ATOM     28  H   UNL     1      49.281   2.349   5.723  0.00  0.00    +0.000 HD
ATOM     29  H   UNL     1      48.938   2.084   7.396  0.00  0.00    +0.000 HD
ENDBRANCH  19  26
ENDBRANCH  18  22
ENDBRANCH  17  18
ENDBRANCH   1  17
TORSDOF 7
ENDMDL
MODEL 4
REMARK VINA RESULT:    -7.890      4.372      8.374
REMARK INTER + INTRA:         -12.422
REMARK INTER:                 -11.349
REMARK INTRA:                  -1.073
REMARK UNBOUND:                -1.304
REMARK  Name = 
REMARK  7 active torsions:
REMARK  status: ('A' for Active; 'I' for Inactive)
REMARK    1  A    between atoms: C_2  and  C_4
REMARK    2  A    between atoms: C_7  and  O_8
REMARK    3  A    between atoms: O_8  and  C_9
REMARK    4  A    between atoms: C_9  and  C_10
REMARK    5  A    between atoms: C_10  and  C_13
REMARK    6  A    between atoms: C_17  and  C_18
REMARK    7  A    between atoms: C_18  and  C_19
REMARK                            x       y       z     vdW  Elec       q    Type
REMARK                         _______ _______ _______ _____ _____    ______ ____
ROOT
ATOM      1  C   UNL     1      45.790   6.590  11.995  0.00  0.00    +0.000 C 
ATOM      2  F   UNL     1      44.911   7.637  11.995  0.00  0.00    +0.000 F 
ATOM      3  F   UNL     1      46.651   6.841  10.963  0.00  0.00    +0.000 F 
ENDROOT
BRANCH   1   4
ATOM      4  C   UNL     1      45.058   5.264  11.825  0.00  0.00    +0.000 A 
ATOM      5  C   UNL     1      44.112   4.845  12.773  0.00  0.00    +0.000 A 
ATOM      6  C   UNL     1      43.416   3.649  12.603  0.00  0.00    +0.000 A 
ATOM      7  C   UNL     1      43.626   2.872  11.462  0.00  0.00    +0.000 A 
ATOM      8  C   UNL     1      44.541   3.279  10.482  0.00  0.00    +0.000 A 
ATOM      9  C   UNL     1      45.274   4.461  10.690  0.00  0.00    +0.000 A 
BRANCH   8  10
ATOM     10  C   UNL     1      44.662   2.526   9.177  0.00  0.00    +0.000 C 
BRANCH  10  11
ATOM     11  C   UNL     1      46.082   2.529   8.618  0.00  0.00    +0.000 C 
ATOM     12  C   UNL     1      46.279   3.549   7.470  0.00  0.00    +0.000 C 
ATOM     13  C   UNL     1      47.000   2.472   6.641  0.00  0.00    +0.000 C 
ATOM     14  F   UNL     1      46.563   2.338   5.368  0.00  0.00    +0.000 F 
ATOM     15  F   UNL     1      48.345   2.600   6.576  0.00  0.00    +0.000 F 
ATOM     16  C   UNL     1      46.481   1.409   7.630  0.00  0.00    +0.000 C 
ENDBRANCH  10  11
ENDBRANCH   8  10
ENDBRANCH   1   4
BRANCH   1  17
ATOM     17  C   UNL     1      46.585   6.619  13.307  0.00  0.00    +0.000 C 
BRANCH  17  18
ATOM     18  O   UNL     1      47.467   5.488  13.429  0.00  0.00    +0.000 OA
BRANCH  18  22
ATOM     19  C   UNL     1      48.256   4.620  17.378  0.00  0.00    +0.000 A 
ATOM     20  C   UNL     1      47.307   3.862  16.683  0.00  0.00    +0.000 A 
ATOM     21  C   UNL     1      47.042   4.161  15.345  0.00  0.00    +0.000 A 
ATOM     22  C   UNL     1      47.737   5.208  14.754  0.00  0.00    +0.000 A 
ATOM     23  N   UNL     1      48.653   5.955  15.407  0.00  0.00    +0.000 NA
ATOM     24  C   UNL     1      48.883   5.654  16.706  0.00  0.00    +0.000 A 
BRANCH  19  26
ATOM     25  N   UNL     1      48.331   3.160  19.315  0.00  0.00    +0.000 N 
ATOM     26  C   UNL     1      48.614   4.389  18.791  0.00  0.00    +0.000 C 
ATOM     27  O   UNL     1      49.187   5.246  19.453  0.00  0.00    +0.000 OA
ATOM     28  H   UNL     1      48.698   2.979  20.242  0.00  0.00    +0.000 HD
ATOM     29  H   UNL     1      48.116   2.361  18.737  0.00  0.00    +0.000 HD
ENDBRANCH  19  26
ENDBRANCH  18  22
ENDBRANCH  17  18
ENDBRANCH   1  17
TORSDOF 7
ENDMDL
MODEL 5
REMARK VINA RESULT:    -7.873      1.710      2.081
REMARK INTER + INTRA:         -12.399
REMARK INTER:                 -11.157
REMARK INTRA:                  -1.242
REMARK UNBOUND:                -1.304
REMARK  Name = 
REMARK  7 active torsions:
REMARK  status: ('A' for Active; 'I' for Inactive)
REMARK    1  A    between atoms: C_2  and  C_4
REMARK    2  A    between atoms: C_7  and  O_8
REMARK    3  A    between atoms: O_8  and  C_9
REMARK    4  A    between atoms: C_9  and  C_10
REMARK    5  A    between atoms: C_10  and  C_13
REMARK    6  A    between atoms: C_17  and  C_18
REMARK    7  A    between atoms: C_18  and  C_19
REMARK                            x       y       z     vdW  Elec       q    Type
REMARK                         _______ _______ _______ _____ _____    ______ ____
ROOT
ATOM      1  C   UNL     1      44.109   4.630  12.335  0.00  0.00    +0.000 C 
ATOM      2  F   UNL     1      43.069   4.926  13.171  0.00  0.00    +0.000 F 
ATOM      3  F   UNL     1      44.682   3.502  12.856  0.00  0.00    +0.000 F 
ENDROOT
BRANCH   1   4
ATOM      4  C   UNL     1      45.092   5.791  12.256  0.00  0.00    +0.000 A 
ATOM      5  C   UNL     1      44.686   7.036  11.750  0.00  0.00    +0.000 A 
ATOM      6  C   UNL     1      45.574   8.111  11.708  0.00  0.00    +0.000 A 
ATOM      7  C   UNL     1      46.870   7.969  12.208  0.00  0.00    +0.000 A 
ATOM      8  C   UNL     1      47.296   6.748  12.748  0.00  0.00    +0.000 A 
ATOM      9  C   UNL     1      46.407   5.658  12.738  0.00  0.00    +0.000 A 
BRANCH   8  10
ATOM     10  C   UNL     1      48.640   6.631  13.428  0.00  0.00    +0.000 C 
BRANCH  10  11
ATOM     11  C   UNL     1      48.576   6.913  14.926  0.00  0.00    +0.000 C 
ATOM     12  C   UNL     1      49.974   7.030  15.581  0.00  0.00    +0.000 C 
ATOM     13  C   UNL     1      49.510   6.112  16.726  0.00  0.00    +0.000 C 
ATOM     14  F   UNL     1      50.346   5.088  17.016  0.00  0.00    +0.000 F 
ATOM     15  F   UNL     1      49.246   6.737  17.896  0.00  0.00    +0.000 F 
ATOM     16  C   UNL     1      48.277   5.735  15.881  0.00  0.00    +0.000 C 
ENDBRANCH  10  11
ENDBRANCH   8  10
ENDBRANCH   1   4
BRANCH   1  17
ATOM     17  C   UNL     1      43.542   4.289  10.950  0.00  0.00    +0.000 C 
BRANCH  17  18
ATOM     18  O   UNL     1      43.839   2.935  10.564  0.00  0.00    +0.000 OA
BRANCH  18  22
ATOM     19  C   UNL     1      46.423   2.878   7.356  0.00  0.00    +0.000 A 
ATOM     20  C   UNL     1      45.878   4.096   7.778  0.00  0.00    +0.000 A 
ATOM     21  C   UNL     1      45.001   4.109   8.866  0.00  0.00    +0.000 A 
ATOM     22  C   UNL     1      44.704   2.904   9.487  0.00  0.00    +0.000 A 
ATOM     23  N   UNL     1      45.215   1.718   9.093  0.00  0.00    +0.000 NA
ATOM     24  C   UNL     1      46.053   1.729   8.031  0.00  0.00    +0.000 A 
BRANCH  19  26
ATOM     25  N   UNL     1      48.651   2.413   6.514  0.00  0.00    +0.000 N 
ATOM     26  C   UNL     1      47.360   2.750   6.223  0.00  0.00    +0.000 C 
ATOM     27  O   UNL     1      46.985   2.891   5.066  0.00  0.00    +0.000 OA
ATOM     28  H   UNL     1      49.245   2.206   5.719  0.00  0.00    +0.000 HD
ATOM     29  H   UNL     1      48.923   2.031   7.408  0.00  0.00    +0.000 HD
ENDBRANCH  19  26
ENDBRANCH  18  22
ENDBRANCH  17  18
ENDBRANCH   1  17
TORSDOF 7
ENDMDL
MODEL 6
REMARK VINA RESULT:    -7.345      4.667      8.342
REMARK INTER + INTRA:         -11.654
REMARK INTER:                 -10.702
REMARK INTRA:                  -0.953
REMARK UNBOUND:                -1.304
REMARK  Name = 
REMARK  7 active torsions:
REMARK  status: ('A' for Active; 'I' for Inactive)
REMARK    1  A    between atoms: C_2  and  C_4
REMARK    2  A    between atoms: C_7  and  O_8
REMARK    3  A    between atoms: O_8  and  C_9
REMARK    4  A    between atoms: C_9  and  C_10
REMARK    5  A    between atoms: C_10  and  C_13
REMARK    6  A    between atoms: C_17  and  C_18
REMARK    7  A    between atoms: C_18  and  C_19
REMARK                            x       y       z     vdW  Elec       q    Type
REMARK                         _______ _______ _______ _____ _____    ______ ____
ROOT
ATOM      1  C   UNL     1      46.789   5.472  13.511  0.00  0.00    +0.000 C 
ATOM      2  F   UNL     1      46.703   6.700  14.106  0.00  0.00    +0.000 F 
ATOM      3  F   UNL     1      47.998   5.464  12.873  0.00  0.00    +0.000 F 
ENDROOT
BRANCH   1   4
ATOM      4  C   UNL     1      45.628   5.249  12.550  0.00  0.00    +0.000 A 
ATOM      5  C   UNL     1      44.660   6.248  12.357  0.00  0.00    +0.000 A 
ATOM      6  C   UNL     1      43.615   6.060  11.453  0.00  0.00    +0.000 A 
ATOM      7  C   UNL     1      43.544   4.888  10.698  0.00  0.00    +0.000 A 
ATOM      8  C   UNL     1      44.512   3.886  10.845  0.00  0.00    +0.000 A 
ATOM      9  C   UNL     1      45.532   4.066  11.796  0.00  0.00    +0.000 A 
BRANCH   8  10
ATOM     10  C   UNL     1      44.528   2.687   9.926  0.00  0.00    +0.000 C 
BRANCH  10  11
ATOM     11  C   UNL     1      44.779   3.058   8.467  0.00  0.00    +0.000 C 
ATOM     12  C   UNL     1      45.750   2.088   7.752  0.00  0.00    +0.000 C 
ATOM     13  C   UNL     1      46.517   3.289   7.172  0.00  0.00    +0.000 C 
ATOM     14  F   UNL     1      47.861   3.242   7.328  0.00  0.00    +0.000 F 
ATOM     15  F   UNL     1      46.290   3.540   5.863  0.00  0.00    +0.000 F 
ATOM     16  C   UNL     1      45.771   4.203   8.164  0.00  0.00    +0.000 C 
ENDBRANCH  10  11
ENDBRANCH   8  10
ENDBRANCH   1   4
BRANCH   1  17
ATOM     17  C   UNL     1      46.814   4.399  14.608  0.00  0.00    +0.000 C 
BRANCH  17  18
ATOM     18  O   UNL     1      47.300   4.919  15.860  0.00  0.00    +0.000 OA
BRANCH  18  22
ATOM     19  C   UNL     1      50.383   2.595  17.296  0.00  0.00    +0.000 A 
ATOM     20  C   UNL     1      49.272   1.978  16.712  0.00  0.00    +0.000 A 
ATOM     21  C   UNL     1      48.228   2.771  16.227  0.00  0.00    +0.000 A 
ATOM     22  C   UNL     1      48.338   4.150  16.348  0.00  0.00    +0.000 A 
ATOM     23  N   UNL     1      49.399   4.765  16.913  0.00  0.00    +0.000 NA
ATOM     24  C   UNL     1      50.391   3.976  17.385  0.00  0.00    +0.000 A 
BRANCH  19  26
ATOM     25  N   UNL     1      51.403   0.506  17.991  0.00  0.00    +0.000 N 
ATOM     26  C   UNL     1      51.540   1.856  17.837  0.00  0.00    +0.000 C 
ATOM     27  O   UNL     1      52.597   2.421  18.090  0.00  0.00    +0.000 OA
ATOM     28  H   UNL     1      52.246   0.001  18.242  0.00  0.00    +0.000 HD
ATOM     29  H   UNL     1      50.663  -0.018  17.548  0.00  0.00    +0.000 HD
ENDBRANCH  19  26
ENDBRANCH  18  22
ENDBRANCH  17  18
ENDBRANCH   1  17
TORSDOF 7
ENDMDL
MODEL 7
REMARK VINA RESULT:    -7.210      2.225      4.303
REMARK INTER + INTRA:         -11.464
REMARK INTER:                 -10.647
REMARK INTRA:                  -0.817
REMARK UNBOUND:                -1.304
REMARK  Name = 
REMARK  7 active torsions:
REMARK  status: ('A' for Active; 'I' for Inactive)
REMARK    1  A    between atoms: C_2  and  C_4
REMARK    2  A    between atoms: C_7  and  O_8
REMARK    3  A    between atoms: O_8  and  C_9
REMARK    4  A    between atoms: C_9  and  C_10
REMARK    5  A    between atoms: C_10  and  C_13
REMARK    6  A    between atoms: C_17  and  C_18
REMARK    7  A    between atoms: C_18  and  C_19
REMARK                            x       y       z     vdW  Elec       q    Type
REMARK                         _______ _______ _______ _____ _____    ______ ____
ROOT
ATOM      1  C   UNL     1      45.330   4.307  12.716  0.00  0.00    +0.000 C 
ATOM      2  F   UNL     1      44.097   4.361  13.304  0.00  0.00    +0.000 F 
ATOM      3  F   UNL     1      45.546   2.983  12.450  0.00  0.00    +0.000 F 
ENDROOT
BRANCH   1   4
ATOM      4  C   UNL     1      46.397   4.892  13.632  0.00  0.00    +0.000 A 
ATOM      5  C   UNL     1      46.598   4.368  14.919  0.00  0.00    +0.000 A 
ATOM      6  C   UNL     1      47.596   4.880  15.747  0.00  0.00    +0.000 A 
ATOM      7  C   UNL     1      48.436   5.896  15.288  0.00  0.00    +0.000 A 
ATOM      8  C   UNL     1      48.281   6.418  13.997  0.00  0.00    +0.000 A 
ATOM      9  C   UNL     1      47.238   5.929  13.190  0.00  0.00    +0.000 A 
BRANCH   8  10
ATOM     10  C   UNL     1      49.279   7.407  13.439  0.00  0.00    +0.000 C 
BRANCH  10  11
ATOM     11  C   UNL     1      48.657   8.763  13.119  0.00  0.00    +0.000 C 
ATOM     12  C   UNL     1      47.215   8.913  13.663  0.00  0.00    +0.000 C 
ATOM     13  C   UNL     1      46.767   9.482  12.305  0.00  0.00    +0.000 C 
ATOM     14  F   UNL     1      45.653   8.917  11.785  0.00  0.00    +0.000 F 
ATOM     15  F   UNL     1      46.569  10.820  12.278  0.00  0.00    +0.000 F 
ATOM     16  C   UNL     1      48.097   8.996  11.698  0.00  0.00    +0.000 C 
ENDBRANCH  10  11
ENDBRANCH   8  10
ENDBRANCH   1   4
BRANCH   1  17
ATOM     17  C   UNL     1      45.268   5.064  11.382  0.00  0.00    +0.000 C 
BRANCH  17  18
ATOM     18  O   UNL     1      44.428   4.398  10.422  0.00  0.00    +0.000 OA
BRANCH  18  22
ATOM     19  C   UNL     1      46.641   2.797   7.339  0.00  0.00    +0.000 A 
ATOM     20  C   UNL     1      46.014   1.942   8.252  0.00  0.00    +0.000 A 
ATOM     21  C   UNL     1      45.265   2.490   9.296  0.00  0.00    +0.000 A 
ATOM     22  C   UNL     1      45.175   3.873   9.387  0.00  0.00    +0.000 A 
ATOM     23  N   UNL     1      45.776   4.716   8.520  0.00  0.00    +0.000 NA
ATOM     24  C   UNL     1      46.504   4.162   7.524  0.00  0.00    +0.000 A 
BRANCH  19  26
ATOM     25  N   UNL     1      47.303   2.985   5.012  0.00  0.00    +0.000 N 
ATOM     26  C   UNL     1      47.451   2.327   6.199  0.00  0.00    +0.000 C 
ATOM     27  O   UNL     1      48.260   1.415   6.324  0.00  0.00    +0.000 OA
ATOM     28  H   UNL     1      47.957   2.731   4.280  0.00  0.00    +0.000 HD
ATOM     29  H   UNL     1      46.862   3.890   4.946  0.00  0.00    +0.000 HD
ENDBRANCH  19  26
ENDBRANCH  18  22
ENDBRANCH  17  18
ENDBRANCH   1  17
TORSDOF 7
ENDMDL
MODEL 8
REMARK VINA RESULT:    -7.057      4.933      8.762
REMARK INTER + INTRA:         -11.249
REMARK INTER:                 -10.216
REMARK INTRA:                  -1.033
REMARK UNBOUND:                -1.304
REMARK  Name = 
REMARK  7 active torsions:
REMARK  status: ('A' for Active; 'I' for Inactive)
REMARK    1  A    between atoms: C_2  and  C_4
REMARK    2  A    between atoms: C_7  and  O_8
REMARK    3  A    between atoms: O_8  and  C_9
REMARK    4  A    between atoms: C_9  and  C_10
REMARK    5  A    between atoms: C_10  and  C_13
REMARK    6  A    between atoms: C_17  and  C_18
REMARK    7  A    between atoms: C_18  and  C_19
REMARK                            x       y       z     vdW  Elec       q    Type
REMARK                         _______ _______ _______ _____ _____    ______ ____
ROOT
ATOM      1  C   UNL     1      46.526   4.644  13.620  0.00  0.00    +0.000 C 
ATOM      2  F   UNL     1      47.418   3.613  13.512  0.00  0.00    +0.000 F 
ATOM      3  F   UNL     1      46.210   4.712  14.949  0.00  0.00    +0.000 F 
ENDROOT
BRANCH   1   4
ATOM      4  C   UNL     1      45.300   4.396  12.749  0.00  0.00    +0.000 A 
ATOM      5  C   UNL     1      44.086   5.044  13.024  0.00  0.00    +0.000 A 
ATOM      6  C   UNL     1      42.972   4.845  12.209  0.00  0.00    +0.000 A 
ATOM      7  C   UNL     1      43.066   4.027  11.082  0.00  0.00    +0.000 A 
ATOM      8  C   UNL     1      44.273   3.391  10.762  0.00  0.00    +0.000 A 
ATOM      9  C   UNL     1      45.374   3.559  11.620  0.00  0.00    +0.000 A 
BRANCH   8  10
ATOM     10  C   UNL     1      44.425   2.630   9.465  0.00  0.00    +0.000 C 
BRANCH  10  11
ATOM     11  C   UNL     1      45.852   2.654   8.925  0.00  0.00    +0.000 C 
ATOM     12  C   UNL     1      46.051   3.681   7.783  0.00  0.00    +0.000 C 
ATOM     13  C   UNL     1      46.798   2.616   6.961  0.00  0.00    +0.000 C 
ATOM     14  F   UNL     1      46.380   2.481   5.681  0.00  0.00    +0.000 F 
ATOM     15  F   UNL     1      48.142   2.762   6.914  0.00  0.00    +0.000 F 
ATOM     16  C   UNL     1      46.280   1.543   7.939  0.00  0.00    +0.000 C 
ENDBRANCH  10  11
ENDBRANCH   8  10
ENDBRANCH   1   4
BRANCH   1  17
ATOM     17  C   UNL     1      47.233   5.946  13.222  0.00  0.00    +0.000 C 
BRANCH  17  18
ATOM     18  O   UNL     1      48.594   5.984  13.690  0.00  0.00    +0.000 OA
BRANCH  18  22
ATOM     19  C   UNL     1      48.855   8.015  17.264  0.00  0.00    +0.000 A 
ATOM     20  C   UNL     1      48.514   8.712  16.100  0.00  0.00    +0.000 A 
ATOM     21  C   UNL     1      48.428   8.019  14.891  0.00  0.00    +0.000 A 
ATOM     22  C   UNL     1      48.688   6.655  14.893  0.00  0.00    +0.000 A 
ATOM     23  N   UNL     1      49.024   5.964  16.003  0.00  0.00    +0.000 NA
ATOM     24  C   UNL     1      49.112   6.659  17.161  0.00  0.00    +0.000 A 
BRANCH  19  26
ATOM     25  N   UNL     1      49.775   9.746  18.695  0.00  0.00    +0.000 N 
ATOM     26  C   UNL     1      48.971   8.646  18.593  0.00  0.00    +0.000 C 
ATOM     27  O   UNL     1      48.335   8.232  19.554  0.00  0.00    +0.000 OA
ATOM     28  H   UNL     1      49.741  10.238  19.581  0.00  0.00    +0.000 HD
ATOM     29  H   UNL     1      50.089  10.264  17.888  0.00  0.00    +0.000 HD
ENDBRANCH  19  26
ENDBRANCH  18  22
ENDBRANCH  17  18
ENDBRANCH   1  17
TORSDOF 7
ENDMDL
MODEL 9
REMARK VINA RESULT:    -6.953      3.481      6.292
REMARK INTER + INTRA:         -11.103
REMARK INTER:                  -9.304
REMARK INTRA:                  -1.799
REMARK UNBOUND:                -1.304
REMARK  Name = 
REMARK  7 active torsions:
REMARK  status: ('A' for Active; 'I' for Inactive)
REMARK    1  A    between atoms: C_2  and  C_4
REMARK    2  A    between atoms: C_7  and  O_8
REMARK    3  A    between atoms: O_8  and  C_9
REMARK    4  A    between atoms: C_9  and  C_10
REMARK    5  A    between atoms: C_10  and  C_13
REMARK    6  A    between atoms: C_17  and  C_18
REMARK    7  A    between atoms: C_18  and  C_19
REMARK                            x       y       z     vdW  Elec       q    Type
REMARK                         _______ _______ _______ _____ _____    ______ ____
ROOT
ATOM      1  C   UNL     1      48.320   3.445  16.974  0.00  0.00    +0.000 C 
ATOM      2  F   UNL     1      47.800   3.282  18.228  0.00  0.00    +0.000 F 
ATOM      3  F   UNL     1      48.915   2.252  16.672  0.00  0.00    +0.000 F 
ENDROOT
BRANCH   1   4
ATOM      4  C   UNL     1      49.307   4.606  16.941  0.00  0.00    +0.000 A 
ATOM      5  C   UNL     1      50.615   4.444  17.425  0.00  0.00    +0.000 A 
ATOM      6  C   UNL     1      51.530   5.495  17.365  0.00  0.00    +0.000 A 
ATOM      7  C   UNL     1      51.165   6.711  16.784  0.00  0.00    +0.000 A 
ATOM      8  C   UNL     1      49.877   6.893  16.264  0.00  0.00    +0.000 A 
ATOM      9  C   UNL     1      48.947   5.843  16.376  0.00  0.00    +0.000 A 
BRANCH   8  10
ATOM     10  C   UNL     1      49.523   8.147  15.499  0.00  0.00    +0.000 C 
BRANCH  10  11
ATOM     11  C   UNL     1      48.653   7.873  14.276  0.00  0.00    +0.000 C 
ATOM     12  C   UNL     1      49.457   7.329  13.069  0.00  0.00    +0.000 C 
ATOM     13  C   UNL     1      48.736   8.326  12.145  0.00  0.00    +0.000 C 
ATOM     14  F   UNL     1      49.545   9.045  11.333  0.00  0.00    +0.000 F 
ATOM     15  F   UNL     1      47.777   7.790  11.356  0.00  0.00    +0.000 F 
ATOM     16  C   UNL     1      48.229   9.070  13.395  0.00  0.00    +0.000 C 
ENDBRANCH  10  11
ENDBRANCH   8  10
ENDBRANCH   1   4
BRANCH   1  17
ATOM     17  C   UNL     1      47.164   3.674  15.991  0.00  0.00    +0.000 C 
BRANCH  17  18
ATOM     18  O   UNL     1      47.513   3.287  14.649  0.00  0.00    +0.000 OA
BRANCH  18  22
ATOM     19  C   UNL     1      44.819   4.806  11.928  0.00  0.00    +0.000 A 
ATOM     20  C   UNL     1      45.561   5.685  12.725  0.00  0.00    +0.000 A 
ATOM     21  C   UNL     1      46.473   5.164  13.647  0.00  0.00    +0.000 A 
ATOM     22  C   UNL     1      46.604   3.785  13.736  0.00  0.00    +0.000 A 
ATOM     23  N   UNL     1      45.895   2.920  12.981  0.00  0.00    +0.000 NA
ATOM     24  C   UNL     1      45.010   3.447  12.104  0.00  0.00    +0.000 A 
BRANCH  19  26
ATOM     25  N   UNL     1      44.002   4.799   9.643  0.00  0.00    +0.000 N 
ATOM     26  C   UNL     1      43.833   5.246  10.922  0.00  0.00    +0.000 C 
ATOM     27  O   UNL     1      42.874   5.944  11.231  0.00  0.00    +0.000 OA
ATOM     28  H   UNL     1      43.248   5.008   8.998  0.00  0.00    +0.000 HD
ATOM     29  H   UNL     1      44.606   4.024   9.416  0.00  0.00    +0.000 HD
ENDBRANCH  19  26
ENDBRANCH  18  22
ENDBRANCH  17  18
ENDBRANCH   1  17
TORSDOF 7
ENDMDL
