MODEL 1
REMARK VINA RESULT:    -9.219      0.000      0.000
REMARK INTER + INTRA:         -12.689
REMARK INTER:                 -11.913
REMARK INTRA:                  -0.775
REMARK UNBOUND:                -0.775
REMARK  Name = 
REMARK  8 active torsions:
REMARK  status: ('A' for Active; 'I' for Inactive)
REMARK    1  A    between atoms: C_1  and  C_2
REMARK    2  A    between atoms: C_9  and  C_10
REMARK    3  A    between atoms: C_10  and  C_11
REMARK    4  A    between atoms: C_10  and  C_12
REMARK    5  A    between atoms: C_12  and  N_13
REMARK    6  A    between atoms: N_13  and  C_14
REMARK    7  A    between atoms: C_17  and  C_18
REMARK    8  A    between atoms: C_26  and  C_27
REMARK                            x       y       z     vdW  Elec       q    Type
REMARK                         _______ _______ _______ _____ _____    ______ ____
ROOT
ATOM      1  C   UNL     1      44.517   4.135  13.189  0.00  0.00    +0.000 C 
ATOM      2  C   UNL     1      43.416   5.146  12.857  0.00  0.00    +0.000 C 
ENDROOT
BRANCH   1  11
ATOM      3  C   UNL     1      48.620   2.158  16.626  0.00  0.00    +0.000 C 
ATOM      4  C   UNL     1      48.396   3.252  17.670  0.00  0.00    +0.000 C 
ATOM      5  C   UNL     1      47.401   4.332  17.202  0.00  0.00    +0.000 C 
ATOM      6  N   UNL     1      48.031   5.208  16.222  0.00  0.00    +0.000 N 
ATOM      7  C   UNL     1      47.515   5.355  14.963  0.00  0.00    +0.000 A 
ATOM      8  N   UNL     1      48.139   6.147  14.083  0.00  0.00    +0.000 NA
ATOM      9  C   UNL     1      47.573   6.293  12.867  0.00  0.00    +0.000 A 
ATOM     10  C   UNL     1      46.406   5.672  12.489  0.00  0.00    +0.000 A 
ATOM     11  C   UNL     1      45.826   4.867  13.442  0.00  0.00    +0.000 A 
ATOM     12  N   UNL     1      46.378   4.708  14.664  0.00  0.00    +0.000 NA
ATOM     13  C   UNL     1      49.316   5.778  16.608  0.00  0.00    +0.000 C 
ATOM     14  C   UNL     1      50.260   4.656  17.092  0.00  0.00    +0.000 C 
ATOM     15  C   UNL     1      51.528   5.242  17.698  0.00  0.00    +0.000 C 
ATOM     16  O   UNL     1      49.644   3.831  18.101  0.00  0.00    +0.000 OA
ENDBRANCH   1  11
BRANCH   1  17
ATOM     17  C   UNL     1      44.742   3.111  12.057  0.00  0.00    +0.000 C 
BRANCH  17  18
ATOM     18  N   UNL     1      44.104   3.511  10.790  0.00  0.00    +0.000 N 
ATOM     19  H   UNL     1      43.762   4.471  10.827  0.00  0.00    +0.000 HD
BRANCH  18  20
ATOM     20  C   UNL     1      44.880   3.333   9.626  0.00  0.00    +0.000 A 
ATOM     21  C   UNL     1      45.375   4.407   8.873  0.00  0.00    +0.000 A 
ATOM     22  C   UNL     1      46.173   4.197   7.743  0.00  0.00    +0.000 A 
ATOM     23  C   UNL     1      46.526   2.901   7.356  0.00  0.00    +0.000 A 
ATOM     24  C   UNL     1      46.083   1.833   8.134  0.00  0.00    +0.000 A 
ATOM     25  F   UNL     1      46.405   0.567   7.822  0.00  0.00    +0.000 F 
ATOM     26  C   UNL     1      45.286   2.044   9.264  0.00  0.00    +0.000 A 
BRANCH  23  27
ATOM     27  C   UNL     1      47.366   2.732   6.143  0.00  0.00    +0.000 C 
ATOM     28  N   UNL     1      48.678   2.397   6.311  0.00  0.00    +0.000 N 
ATOM     29  O   UNL     1      46.903   2.883   5.018  0.00  0.00    +0.000 OA
ATOM     30  H   UNL     1      49.104   2.269   7.221  0.00  0.00    +0.000 HD
ATOM     31  H   UNL     1      49.251   2.286   5.485  0.00  0.00    +0.000 HD
ENDBRANCH  23  27
ENDBRANCH  18  20
ENDBRANCH  17  18
ENDBRANCH   1  17
TORSDOF 5
ENDMDL
MODEL 2
REMARK VINA RESULT:    -8.861      1.193      1.514
REMARK INTER + INTRA:         -12.226
REMARK INTER:                 -11.655
REMARK INTRA:                  -0.571
REMARK UNBOUND:                -0.775
REMARK  Name = 
REMARK  8 active torsions:
REMARK  status: ('A' for Active; 'I' for Inactive)
REMARK    1  A    between atoms: C_1  and  C_2
REMARK    2  A    between atoms: C_9  and  C_10
REMARK    3  A    between atoms: C_10  and  C_11
REMARK    4  A    between atoms: C_10  and  C_12
REMARK    5  A    between atoms: C_12  and  N_13
REMARK    6  A    between atoms: N_13  and  C_14
REMARK    7  A    between atoms: C_17  and  C_18
REMARK    8  A    between atoms: C_26  and  C_27
REMARK                            x       y       z     vdW  Elec       q    Type
REMARK                         _______ _______ _______ _____ _____    ______ ____
ROOT
ATOM      1  C   UNL     1      44.920   4.519  12.419  0.00  0.00    +0.000 C 
ATOM      2  C   UNL     1      43.884   4.313  13.527  0.00  0.00    +0.000 C 
ENDROOT
BRANCH   1  11
ATOM      3  C   UNL     1      48.399   2.032  16.195  0.00  0.00    +0.000 C 
ATOM      4  C   UNL     1      47.984   2.970  17.329  0.00  0.00    +0.000 C 
ATOM      5  C   UNL     1      47.070   4.116  16.854  0.00  0.00    +0.000 C 
ATOM      6  N   UNL     1      47.848   5.114  16.130  0.00  0.00    +0.000 N 
ATOM      7  C   UNL     1      47.553   5.443  14.835  0.00  0.00    +0.000 A 
ATOM      8  N   UNL     1      48.308   6.345  14.195  0.00  0.00    +0.000 NA
ATOM      9  C   UNL     1      47.957   6.666  12.933  0.00  0.00    +0.000 A 
ATOM     10  C   UNL     1      46.881   6.118  12.277  0.00  0.00    +0.000 A 
ATOM     11  C   UNL     1      46.156   5.193  12.992  0.00  0.00    +0.000 A 
ATOM     12  N   UNL     1      46.493   4.858  14.256  0.00  0.00    +0.000 NA
ATOM     13  C   UNL     1      49.039   5.610  16.807  0.00  0.00    +0.000 C 
ATOM     14  C   UNL     1      49.901   4.420  17.283  0.00  0.00    +0.000 C 
ATOM     15  C   UNL     1      51.039   4.901  18.175  0.00  0.00    +0.000 C 
ATOM     16  O   UNL     1      49.132   3.468  18.045  0.00  0.00    +0.000 OA
ENDBRANCH   1  11
BRANCH   1  17
ATOM     17  C   UNL     1      44.384   5.389  11.263  0.00  0.00    +0.000 C 
BRANCH  17  18
ATOM     18  N   UNL     1      43.779   4.592  10.180  0.00  0.00    +0.000 N 
ATOM     19  H   UNL     1      43.208   5.170   9.563  0.00  0.00    +0.000 HD
BRANCH  18  20
ATOM     20  C   UNL     1      44.673   3.821   9.409  0.00  0.00    +0.000 A 
ATOM     21  C   UNL     1      44.754   2.426   9.511  0.00  0.00    +0.000 A 
ATOM     22  C   UNL     1      45.627   1.686   8.705  0.00  0.00    +0.000 A 
ATOM     23  C   UNL     1      46.419   2.325   7.747  0.00  0.00    +0.000 A 
ATOM     24  C   UNL     1      46.300   3.706   7.602  0.00  0.00    +0.000 A 
ATOM     25  F   UNL     1      47.022   4.372   6.687  0.00  0.00    +0.000 F 
ATOM     26  C   UNL     1      45.427   4.444   8.408  0.00  0.00    +0.000 A 
BRANCH  23  27
ATOM     27  C   UNL     1      47.336   1.496   6.924  0.00  0.00    +0.000 C 
ATOM     28  N   UNL     1      48.562   2.007   6.614  0.00  0.00    +0.000 N 
ATOM     29  O   UNL     1      47.011   0.381   6.531  0.00  0.00    +0.000 OA
ATOM     30  H   UNL     1      48.869   2.925   6.912  0.00  0.00    +0.000 HD
ATOM     31  H   UNL     1      49.185   1.443   6.051  0.00  0.00    +0.000 HD
ENDBRANCH  23  27
ENDBRANCH  18  20
ENDBRANCH  17  18
ENDBRANCH   1  17
TORSDOF 5
ENDMDL
MODEL 3
REMARK VINA RESULT:    -8.804      2.462      3.770
REMARK INTER + INTRA:         -12.153
REMARK INTER:                 -11.582
REMARK INTRA:                  -0.571
REMARK UNBOUND:                -0.775
REMARK  Name = 
REMARK  8 active torsions:
REMARK  status: ('A' for Active; 'I' for Inactive)
REMARK    1  A    between atoms: C_1  and  C_2
REMARK    2  A    between atoms: C_9  and  C_10
REMARK    3  A    between atoms: C_10  and  C_11
REMARK    4  A    between atoms: C_10  and  C_12
REMARK    5  A    between atoms: C_12  and  N_13
REMARK    6  A    between atoms: N_13  and  C_14
REMARK    7  A    between atoms: C_17  and  C_18
REMARK    8  A    between atoms: C_26  and  C_27
REMARK                            x       y       z     vdW  Elec       q    Type
REMARK                         _______ _______ _______ _____ _____    ______ ____
ROOT
ATOM      1  C   UNL     1      44.682   4.524  12.310  0.00  0.00    +0.000 C 
ATOM      2  C   UNL     1      43.415   4.457  13.168  0.00  0.00    +0.000 C 
ENDROOT
BRANCH   1  11
ATOM      3  C   UNL     1      47.027   9.723  12.451  0.00  0.00    +0.000 C 
ATOM      4  C   UNL     1      48.314   9.259  11.768  0.00  0.00    +0.000 C 
ATOM      5  C   UNL     1      48.379   7.730  11.590  0.00  0.00    +0.000 C 
ATOM      6  N   UNL     1      48.661   7.084  12.867  0.00  0.00    +0.000 N 
ATOM      7  C   UNL     1      47.805   6.161  13.402  0.00  0.00    +0.000 A 
ATOM      8  N   UNL     1      48.087   5.611  14.589  0.00  0.00    +0.000 NA
ATOM      9  C   UNL     1      47.235   4.678  15.060  0.00  0.00    +0.000 A 
ATOM     10  C   UNL     1      46.104   4.271  14.393  0.00  0.00    +0.000 A 
ATOM     11  C   UNL     1      45.874   4.885  13.184  0.00  0.00    +0.000 A 
ATOM     12  N   UNL     1      46.715   5.822  12.697  0.00  0.00    +0.000 NA
ATOM     13  C   UNL     1      49.810   7.598  13.602  0.00  0.00    +0.000 C 
ATOM     14  C   UNL     1      49.705   9.134  13.725  0.00  0.00    +0.000 C 
ATOM     15  C   UNL     1      50.990   9.718  14.299  0.00  0.00    +0.000 C 
ATOM     16  O   UNL     1      49.481   9.764  12.448  0.00  0.00    +0.000 OA
ENDBRANCH   1  11
BRANCH   1  17
ATOM     17  C   UNL     1      44.576   5.567  11.178  0.00  0.00    +0.000 C 
BRANCH  17  18
ATOM     18  N   UNL     1      43.980   5.017   9.947  0.00  0.00    +0.000 N 
ATOM     19  H   UNL     1      43.547   5.747   9.381  0.00  0.00    +0.000 HD
BRANCH  18  20
ATOM     20  C   UNL     1      44.838   4.242   9.140  0.00  0.00    +0.000 A 
ATOM     21  C   UNL     1      45.862   4.802   8.364  0.00  0.00    +0.000 A 
ATOM     22  C   UNL     1      46.719   4.001   7.602  0.00  0.00    +0.000 A 
ATOM     23  C   UNL     1      46.595   2.609   7.625  0.00  0.00    +0.000 A 
ATOM     24  C   UNL     1      45.615   2.044   8.439  0.00  0.00    +0.000 A 
ATOM     25  F   UNL     1      45.460   0.713   8.515  0.00  0.00    +0.000 F 
ATOM     26  C   UNL     1      44.759   2.846   9.201  0.00  0.00    +0.000 A 
BRANCH  23  27
ATOM     27  C   UNL     1      47.524   1.805   6.790  0.00  0.00    +0.000 C 
ATOM     28  N   UNL     1      48.636   2.418   6.292  0.00  0.00    +0.000 N 
ATOM     29  O   UNL     1      47.308   0.622   6.552  0.00  0.00    +0.000 OA
ATOM     30  H   UNL     1      48.850   3.394   6.459  0.00  0.00    +0.000 HD
ATOM     31  H   UNL     1      49.266   1.871   5.721  0.00  0.00    +0.000 HD
ENDBRANCH  23  27
ENDBRANCH  18  20
ENDBRANCH  17  18
ENDBRANCH   1  17
TORSDOF 5
ENDMDL
MODEL 4
REMARK VINA RESULT:    -8.160      3.082      3.950
REMARK INTER + INTRA:         -11.320
REMARK INTER:                 -10.890
REMARK INTRA:                  -0.430
REMARK UNBOUND:                -0.775
REMARK  Name = 
REMARK  8 active torsions:
REMARK  status: ('A' for Active; 'I' for Inactive)
REMARK    1  A    between atoms: C_1  and  C_2
REMARK    2  A    between atoms: C_9  and  C_10
REMARK    3  A    between atoms: C_10  and  C_11
REMARK    4  A    between atoms: C_10  and  C_12
REMARK    5  A    between atoms: C_12  and  N_13
REMARK    6  A    between atoms: N_13  and  C_14
REMARK    7  A    between atoms: C_17  and  C_18
REMARK    8  A    between atoms: C_26  and  C_27
REMARK                            x       y       z     vdW  Elec       q    Type
REMARK                         _______ _______ _______ _____ _____    ______ ____
ROOT
ATOM      1  C   UNL     1      45.324   5.109  11.622  0.00  0.00    +0.000 C 
ATOM      2  C   UNL     1      45.494   4.365  12.949  0.00  0.00    +0.000 C 
ENDROOT
BRANCH   1  11
ATOM      3  C   UNL     1      50.497   7.508  11.432  0.00  0.00    +0.000 C 
ATOM      4  C   UNL     1      50.509   7.812  12.930  0.00  0.00    +0.000 C 
ATOM      5  C   UNL     1      49.160   7.513  13.613  0.00  0.00    +0.000 C 
ATOM      6  N   UNL     1      48.185   8.542  13.274  0.00  0.00    +0.000 N 
ATOM      7  C   UNL     1      47.006   8.229  12.654  0.00  0.00    +0.000 A 
ATOM      8  N   UNL     1      46.148   9.206  12.335  0.00  0.00    +0.000 NA
ATOM      9  C   UNL     1      44.982   8.846  11.760  0.00  0.00    +0.000 A 
ATOM     10  C   UNL     1      44.636   7.545  11.485  0.00  0.00    +0.000 A 
ATOM     11  C   UNL     1      45.569   6.595  11.833  0.00  0.00    +0.000 A 
ATOM     12  N   UNL     1      46.742   6.936  12.408  0.00  0.00    +0.000 NA
ATOM     13  C   UNL     1      48.611   9.920  13.484  0.00  0.00    +0.000 C 
ATOM     14  C   UNL     1      49.977  10.153  12.803  0.00  0.00    +0.000 C 
ATOM     15  C   UNL     1      50.544  11.515  13.184  0.00  0.00    +0.000 C 
ATOM     16  O   UNL     1      50.949   9.160  13.190  0.00  0.00    +0.000 OA
ENDBRANCH   1  11
BRANCH   1  17
ATOM     17  C   UNL     1      43.916   4.929  11.019  0.00  0.00    +0.000 C 
BRANCH  17  18
ATOM     18  N   UNL     1      43.730   3.613  10.382  0.00  0.00    +0.000 N 
ATOM     19  H   UNL     1      42.776   3.492  10.041  0.00  0.00    +0.000 HD
BRANCH  18  20
ATOM     20  C   UNL     1      44.641   3.290   9.356  0.00  0.00    +0.000 A 
ATOM     21  C   UNL     1      45.235   4.258   8.536  0.00  0.00    +0.000 A 
ATOM     22  C   UNL     1      46.163   3.907   7.550  0.00  0.00    +0.000 A 
ATOM     23  C   UNL     1      46.548   2.574   7.381  0.00  0.00    +0.000 A 
ATOM     24  C   UNL     1      46.003   1.615   8.232  0.00  0.00    +0.000 A 
ATOM     25  F   UNL     1      46.347   0.321   8.129  0.00  0.00    +0.000 F 
ATOM     26  C   UNL     1      45.075   1.966   9.218  0.00  0.00    +0.000 A 
BRANCH  23  27
ATOM     27  C   UNL     1      47.529   2.253   6.313  0.00  0.00    +0.000 C 
ATOM     28  N   UNL     1      47.543   3.037   5.196  0.00  0.00    +0.000 N 
ATOM     29  O   UNL     1      48.311   1.316   6.424  0.00  0.00    +0.000 OA
ATOM     30  H   UNL     1      46.912   3.817   5.061  0.00  0.00    +0.000 HD
ATOM     31  H   UNL     1      48.209   2.815   4.468  0.00  0.00    +0.000 HD
ENDBRANCH  23  27
ENDBRANCH  18  20
ENDBRANCH  17  18
ENDBRANCH   1  17
TORSDOF 5
ENDMDL
MODEL 5
REMARK VINA RESULT:    -7.271      1.743      2.220
REMARK INTER + INTRA:         -10.171
REMARK INTER:                  -9.496
REMARK INTRA:                  -0.676
REMARK UNBOUND:                -0.775
REMARK  Name = 
REMARK  8 active torsions:
REMARK  status: ('A' for Active; 'I' for Inactive)
REMARK    1  A    between atoms: C_1  and  C_2
REMARK    2  A    between atoms: C_9  and  C_10
REMARK    3  A    between atoms: C_10  and  C_11
REMARK    4  A    between atoms: C_10  and  C_12
REMARK    5  A    between atoms: C_12  and  N_13
REMARK    6  A    between atoms: N_13  and  C_14
REMARK    7  A    between atoms: C_17  and  C_18
REMARK    8  A    between atoms: C_26  and  C_27
REMARK                            x       y       z     vdW  Elec       q    Type
REMARK                         _______ _______ _______ _____ _____    ______ ____
ROOT
ATOM      1  C   UNL     1      45.268   6.794  12.302  0.00  0.00    +0.000 C 
ATOM      2  C   UNL     1      44.648   7.880  11.418  0.00  0.00    +0.000 C 
ENDROOT
BRANCH   1  11
ATOM      3  C   UNL     1      48.487   4.900  16.615  0.00  0.00    +0.000 C 
ATOM      4  C   UNL     1      48.787   6.309  17.127  0.00  0.00    +0.000 C 
ATOM      5  C   UNL     1      48.270   7.412  16.183  0.00  0.00    +0.000 C 
ATOM      6  N   UNL     1      49.125   7.510  15.006  0.00  0.00    +0.000 N 
ATOM      7  C   UNL     1      48.622   7.339  13.746  0.00  0.00    +0.000 A 
ATOM      8  N   UNL     1      49.444   7.410  12.692  0.00  0.00    +0.000 NA
ATOM      9  C   UNL     1      48.898   7.273  11.466  0.00  0.00    +0.000 A 
ATOM     10  C   UNL     1      47.557   7.062  11.247  0.00  0.00    +0.000 A 
ATOM     11  C   UNL     1      46.774   6.992  12.376  0.00  0.00    +0.000 A 
ATOM     12  N   UNL     1      47.303   7.126  13.611  0.00  0.00    +0.000 NA
ATOM     13  C   UNL     1      50.554   7.636  15.263  0.00  0.00    +0.000 C 
ATOM     14  C   UNL     1      51.009   6.524  16.233  0.00  0.00    +0.000 C 
ATOM     15  C   UNL     1      52.445   6.757  16.685  0.00  0.00    +0.000 C 
ATOM     16  O   UNL     1      50.190   6.474  17.419  0.00  0.00    +0.000 OA
ENDBRANCH   1  11
BRANCH   1  17
ATOM     17  C   UNL     1      44.990   5.372  11.774  0.00  0.00    +0.000 C 
BRANCH  17  18
ATOM     18  N   UNL     1      44.455   5.365  10.401  0.00  0.00    +0.000 N 
ATOM     19  H   UNL     1      44.368   6.310  10.027  0.00  0.00    +0.000 HD
BRANCH  18  20
ATOM     20  C   UNL     1      45.143   4.555   9.474  0.00  0.00    +0.000 A 
ATOM     21  C   UNL     1      46.057   5.071   8.547  0.00  0.00    +0.000 A 
ATOM     22  C   UNL     1      46.751   4.234   7.665  0.00  0.00    +0.000 A 
ATOM     23  C   UNL     1      46.571   2.849   7.713  0.00  0.00    +0.000 A 
ATOM     24  C   UNL     1      45.705   2.327   8.672  0.00  0.00    +0.000 A 
ATOM     25  F   UNL     1      45.505   1.003   8.777  0.00  0.00    +0.000 F 
ATOM     26  C   UNL     1      45.013   3.163   9.554  0.00  0.00    +0.000 A 
BRANCH  23  27
ATOM     27  C   UNL     1      47.322   2.007   6.749  0.00  0.00    +0.000 C 
ATOM     28  N   UNL     1      48.510   2.479   6.271  0.00  0.00    +0.000 N 
ATOM     29  O   UNL     1      46.899   0.915   6.388  0.00  0.00    +0.000 OA
ATOM     30  H   UNL     1      48.894   3.377   6.538  0.00  0.00    +0.000 HD
ATOM     31  H   UNL     1      49.020   1.906   5.612  0.00  0.00    +0.000 HD
ENDBRANCH  23  27
ENDBRANCH  18  20
ENDBRANCH  17  18
ENDBRANCH   1  17
TORSDOF 5
ENDMDL
MODEL 6
REMARK VINA RESULT:    -7.250      1.956      2.911
REMARK INTER + INTRA:         -10.145
REMARK INTER:                  -9.593
REMARK INTRA:                  -0.551
REMARK UNBOUND:                -0.775
REMARK  Name = 
REMARK  8 active torsions:
REMARK  status: ('A' for Active; 'I' for Inactive)
REMARK    1  A    between atoms: C_1  and  C_2
REMARK    2  A    between atoms: C_9  and  C_10
REMARK    3  A    between atoms: C_10  and  C_11
REMARK    4  A    between atoms: C_10  and  C_12
REMARK    5  A    between atoms: C_12  and  N_13
REMARK    6  A    between atoms: N_13  and  C_14
REMARK    7  A    between atoms: C_17  and  C_18
REMARK    8  A    between atoms: C_26  and  C_27
REMARK                            x       y       z     vdW  Elec       q    Type
REMARK                         _______ _______ _______ _____ _____    ______ ____
ROOT
ATOM      1  C   UNL     1      45.743   5.470  12.949  0.00  0.00    +0.000 C 
ATOM      2  C   UNL     1      46.393   6.440  11.960  0.00  0.00    +0.000 C 
ENDROOT
BRANCH   1  11
ATOM      3  C   UNL     1      48.143   9.553  16.131  0.00  0.00    +0.000 C 
ATOM      4  C   UNL     1      49.540   9.294  15.569  0.00  0.00    +0.000 C 
ATOM      5  C   UNL     1      49.600   8.049  14.662  0.00  0.00    +0.000 C 
ATOM      6  N   UNL     1      49.550   6.835  15.467  0.00  0.00    +0.000 N 
ATOM      7  C   UNL     1      48.564   5.904  15.290  0.00  0.00    +0.000 A 
ATOM      8  N   UNL     1      48.537   4.815  16.069  0.00  0.00    +0.000 NA
ATOM      9  C   UNL     1      47.570   3.905  15.833  0.00  0.00    +0.000 A 
ATOM     10  C   UNL     1      46.618   4.040  14.850  0.00  0.00    +0.000 A 
ATOM     11  C   UNL     1      46.702   5.187  14.095  0.00  0.00    +0.000 A 
ATOM     12  N   UNL     1      47.663   6.110  14.317  0.00  0.00    +0.000 NA
ATOM     13  C   UNL     1      50.506   6.757  16.565  0.00  0.00    +0.000 C 
ATOM     14  C   UNL     1      50.420   8.040  17.422  0.00  0.00    +0.000 C 
ATOM     15  C   UNL     1      51.549   8.080  18.445  0.00  0.00    +0.000 C 
ATOM     16  O   UNL     1      50.527   9.233  16.619  0.00  0.00    +0.000 OA
ENDBRANCH   1  11
BRANCH   1  17
ATOM     17  C   UNL     1      45.357   4.128  12.296  0.00  0.00    +0.000 C 
BRANCH  17  18
ATOM     18  N   UNL     1      44.546   4.297  11.076  0.00  0.00    +0.000 N 
ATOM     19  H   UNL     1      44.210   5.255  10.979  0.00  0.00    +0.000 HD
BRANCH  18  20
ATOM     20  C   UNL     1      45.151   3.886   9.871  0.00  0.00    +0.000 A 
ATOM     21  C   UNL     1      45.739   4.785   8.972  0.00  0.00    +0.000 A 
ATOM     22  C   UNL     1      46.364   4.341   7.801  0.00  0.00    +0.000 A 
ATOM     23  C   UNL     1      46.446   2.975   7.517  0.00  0.00    +0.000 A 
ATOM     24  C   UNL     1      45.912   2.074   8.436  0.00  0.00    +0.000 A 
ATOM     25  F   UNL     1      45.976   0.749   8.225  0.00  0.00    +0.000 F 
ATOM     26  C   UNL     1      45.289   2.518   9.606  0.00  0.00    +0.000 A 
BRANCH  23  27
ATOM     27  C   UNL     1      47.110   2.556   6.256  0.00  0.00    +0.000 C 
ATOM     28  N   UNL     1      48.334   1.960   6.342  0.00  0.00    +0.000 N 
ATOM     29  O   UNL     1      46.580   2.733   5.165  0.00  0.00    +0.000 OA
ATOM     30  H   UNL     1      48.811   1.800   7.221  0.00  0.00    +0.000 HD
ATOM     31  H   UNL     1      48.787   1.678   5.482  0.00  0.00    +0.000 HD
ENDBRANCH  23  27
ENDBRANCH  18  20
ENDBRANCH  17  18
ENDBRANCH   1  17
TORSDOF 5
ENDMDL
MODEL 7
REMARK VINA RESULT:    -6.873      3.090      4.788
REMARK INTER + INTRA:          -9.657
REMARK INTER:                  -8.693
REMARK INTRA:                  -0.965
REMARK UNBOUND:                -0.775
REMARK  Name = 
REMARK  8 active torsions:
REMARK  status: ('A' for Active; 'I' for Inactive)
REMARK    1  A    between atoms: C_1  and  C_2
REMARK    2  A    between atoms: C_9  and  C_10
REMARK    3  A    between atoms: C_10  and  C_11
REMARK    4  A    between atoms: C_10  and  C_12
REMARK    5  A    between atoms: C_12  and  N_13
REMARK    6  A    between atoms: N_13  and  C_14
REMARK    7  A    between atoms: C_17  and  C_18
REMARK    8  A    between atoms: C_26  and  C_27
REMARK                            x       y       z     vdW  Elec       q    Type
REMARK                         _______ _______ _______ _____ _____    ______ ____
ROOT
ATOM      1  C   UNL     1      48.299   8.894  15.473  0.00  0.00    +0.000 C 
ATOM      2  C   UNL     1      48.785  10.337  15.311  0.00  0.00    +0.000 C 
ENDROOT
BRANCH   1  11
ATOM      3  C   UNL     1      47.852   3.231  16.012  0.00  0.00    +0.000 C 
ATOM      4  C   UNL     1      48.251   3.251  17.487  0.00  0.00    +0.000 C 
ATOM      5  C   UNL     1      48.712   4.642  17.965  0.00  0.00    +0.000 C 
ATOM      6  N   UNL     1      50.048   4.932  17.458  0.00  0.00    +0.000 N 
ATOM      7  C   UNL     1      50.290   6.027  16.675  0.00  0.00    +0.000 A 
ATOM      8  N   UNL     1      51.525   6.244  16.208  0.00  0.00    +0.000 NA
ATOM      9  C   UNL     1      51.726   7.356  15.472  0.00  0.00    +0.000 A 
ATOM     10  C   UNL     1      50.737   8.265  15.178  0.00  0.00    +0.000 A 
ATOM     11  C   UNL     1      49.492   7.973  15.684  0.00  0.00    +0.000 A 
ATOM     12  N   UNL     1      49.272   6.864  16.422  0.00  0.00    +0.000 NA
ATOM     13  C   UNL     1      51.058   3.909  17.699  0.00  0.00    +0.000 C 
ATOM     14  C   UNL     1      50.532   2.536  17.227  0.00  0.00    +0.000 C 
ATOM     15  C   UNL     1      51.475   1.419  17.658  0.00  0.00    +0.000 C 
ATOM     16  O   UNL     1      49.234   2.237  17.779  0.00  0.00    +0.000 OA
ENDBRANCH   1  11
BRANCH   1  17
ATOM     17  C   UNL     1      47.511   8.393  14.245  0.00  0.00    +0.000 C 
BRANCH  17  18
ATOM     18  N   UNL     1      47.653   6.942  14.026  0.00  0.00    +0.000 N 
ATOM     19  H   UNL     1      47.710   6.433  14.908  0.00  0.00    +0.000 HD
BRANCH  18  20
ATOM     20  C   UNL     1      46.678   6.345  13.201  0.00  0.00    +0.000 A 
ATOM     21  C   UNL     1      45.960   7.061  12.234  0.00  0.00    +0.000 A 
ATOM     22  C   UNL     1      45.025   6.430  11.406  0.00  0.00    +0.000 A 
ATOM     23  C   UNL     1      44.809   5.053  11.502  0.00  0.00    +0.000 A 
ATOM     24  C   UNL     1      45.561   4.327  12.423  0.00  0.00    +0.000 A 
ATOM     25  F   UNL     1      45.410   2.999  12.548  0.00  0.00    +0.000 F 
ATOM     26  C   UNL     1      46.497   4.958  13.250  0.00  0.00    +0.000 A 
BRANCH  23  27
ATOM     27  C   UNL     1      43.798   4.434  10.607  0.00  0.00    +0.000 C 
ATOM     28  N   UNL     1      43.896   4.670   9.266  0.00  0.00    +0.000 N 
ATOM     29  O   UNL     1      42.900   3.727  11.049  0.00  0.00    +0.000 OA
ATOM     30  H   UNL     1      44.617   5.252   8.859  0.00  0.00    +0.000 HD
ATOM     31  H   UNL     1      43.205   4.251   8.658  0.00  0.00    +0.000 HD
ENDBRANCH  23  27
ENDBRANCH  18  20
ENDBRANCH  17  18
ENDBRANCH   1  17
TORSDOF 5
ENDMDL
MODEL 8
REMARK VINA RESULT:    -6.780      3.161      4.552
REMARK INTER + INTRA:          -9.536
REMARK INTER:                  -8.526
REMARK INTRA:                  -1.010
REMARK UNBOUND:                -0.775
REMARK  Name = 
REMARK  8 active torsions:
REMARK  status: ('A' for Active; 'I' for Inactive)
REMARK    1  A    between atoms: C_1  and  C_2
REMARK    2  A    between atoms: C_9  and  C_10
REMARK    3  A    between atoms: C_10  and  C_11
REMARK    4  A    between atoms: C_10  and  C_12
REMARK    5  A    between atoms: C_12  and  N_13
REMARK    6  A    between atoms: N_13  and  C_14
REMARK    7  A    between atoms: C_17  and  C_18
REMARK    8  A    between atoms: C_26  and  C_27
REMARK                            x       y       z     vdW  Elec       q    Type
REMARK                         _______ _______ _______ _____ _____    ______ ____
ROOT
ATOM      1  C   UNL     1      47.790   9.457  13.205  0.00  0.00    +0.000 C 
ATOM      2  C   UNL     1      48.156  10.654  12.323  0.00  0.00    +0.000 C 
ENDROOT
BRANCH   1  11
ATOM      3  C   UNL     1      47.817   4.619  16.230  0.00  0.00    +0.000 C 
ATOM      4  C   UNL     1      48.245   5.323  17.518  0.00  0.00    +0.000 C 
ATOM      5  C   UNL     1      48.601   6.806  17.301  0.00  0.00    +0.000 C 
ATOM      6  N   UNL     1      49.898   6.923  16.645  0.00  0.00    +0.000 N 
ATOM      7  C   UNL     1      50.033   7.564  15.445  0.00  0.00    +0.000 A 
ATOM      8  N   UNL     1      51.237   7.627  14.862  0.00  0.00    +0.000 NA
ATOM      9  C   UNL     1      51.330   8.302  13.698  0.00  0.00    +0.000 A 
ATOM     10  C   UNL     1      50.264   8.918  13.086  0.00  0.00    +0.000 A 
ATOM     11  C   UNL     1      49.058   8.806  13.737  0.00  0.00    +0.000 A 
ATOM     12  N   UNL     1      48.945   8.133  14.902  0.00  0.00    +0.000 NA
ATOM     13  C   UNL     1      50.993   6.182  17.259  0.00  0.00    +0.000 C 
ATOM     14  C   UNL     1      50.570   4.713  17.477  0.00  0.00    +0.000 C 
ATOM     15  C   UNL     1      51.610   3.970  18.306  0.00  0.00    +0.000 C 
ATOM     16  O   UNL     1      49.313   4.611  18.176  0.00  0.00    +0.000 OA
ENDBRANCH   1  11
BRANCH   1  17
ATOM     17  C   UNL     1      46.978   8.388  12.445  0.00  0.00    +0.000 C 
BRANCH  17  18
ATOM     18  N   UNL     1      46.045   7.651  13.317  0.00  0.00    +0.000 N 
ATOM     19  H   UNL     1      45.297   8.254  13.662  0.00  0.00    +0.000 HD
BRANCH  18  20
ATOM     20  C   UNL     1      45.488   6.477  12.772  0.00  0.00    +0.000 A 
ATOM     21  C   UNL     1      44.474   6.496  11.804  0.00  0.00    +0.000 A 
ATOM     22  C   UNL     1      43.968   5.312  11.256  0.00  0.00    +0.000 A 
ATOM     23  C   UNL     1      44.492   4.074  11.639  0.00  0.00    +0.000 A 
ATOM     24  C   UNL     1      45.539   4.053  12.558  0.00  0.00    +0.000 A 
ATOM     25  F   UNL     1      46.093   2.894  12.951  0.00  0.00    +0.000 F 
ATOM     26  C   UNL     1      46.045   5.237  13.105  0.00  0.00    +0.000 A 
BRANCH  23  27
ATOM     27  C   UNL     1      43.913   2.847  11.035  0.00  0.00    +0.000 C 
ATOM     28  N   UNL     1      44.484   2.359   9.896  0.00  0.00    +0.000 N 
ATOM     29  O   UNL     1      42.951   2.278  11.539  0.00  0.00    +0.000 OA
ATOM     30  H   UNL     1      45.275   2.800   9.443  0.00  0.00    +0.000 HD
ATOM     31  H   UNL     1      44.087   1.525   9.484  0.00  0.00    +0.000 HD
ENDBRANCH  23  27
ENDBRANCH  18  20
ENDBRANCH  17  18
ENDBRANCH   1  17
TORSDOF 5
ENDMDL
MODEL 9
REMARK VINA RESULT:    -6.653      3.081      4.618
REMARK INTER + INTRA:          -9.373
REMARK INTER:                  -8.162
REMARK INTRA:                  -1.211
REMARK UNBOUND:                -0.775
REMARK  Name = 
REMARK  8 active torsions:
REMARK  status: ('A' for Active; 'I' for Inactive)
REMARK    1  A    between atoms: C_1  and  C_2
REMARK    2  A    between atoms: C_9  and  C_10
REMARK    3  A    between atoms: C_10  and  C_11
REMARK    4  A    between atoms: C_10  and  C_12
REMARK    5  A    between atoms: C_12  and  N_13
REMARK    6  A    between atoms: N_13  and  C_14
REMARK    7  A    between atoms: C_17  and  C_18
REMARK    8  A    between atoms: C_26  and  C_27
REMARK                            x       y       z     vdW  Elec       q    Type
REMARK                         _______ _______ _______ _____ _____    ______ ____
ROOT
ATOM      1  C   UNL     1      48.755   8.347  13.247  0.00  0.00    +0.000 C 
ATOM      2  C   UNL     1      49.472   7.022  12.972  0.00  0.00    +0.000 C 
ENDROOT
BRANCH   1  11
ATOM      3  C   UNL     1      51.201   4.942  17.118  0.00  0.00    +0.000 C 
ATOM      4  C   UNL     1      49.862   4.406  17.623  0.00  0.00    +0.000 C 
ATOM      5  C   UNL     1      48.653   5.141  17.012  0.00  0.00    +0.000 C 
ATOM      6  N   UNL     1      48.508   6.461  17.615  0.00  0.00    +0.000 N 
ATOM      7  C   UNL     1      48.540   7.598  16.856  0.00  0.00    +0.000 A 
ATOM      8  N   UNL     1      48.430   8.792  17.450  0.00  0.00    +0.000 NA
ATOM      9  C   UNL     1      48.429   9.884  16.658  0.00  0.00    +0.000 A 
ATOM     10  C   UNL     1      48.538   9.833  15.289  0.00  0.00    +0.000 A 
ATOM     11  C   UNL     1      48.656   8.574  14.748  0.00  0.00    +0.000 A 
ATOM     12  N   UNL     1      48.660   7.470  15.525  0.00  0.00    +0.000 NA
ATOM     13  C   UNL     1      48.491   6.499  19.072  0.00  0.00    +0.000 C 
ATOM     14  C   UNL     1      49.708   5.725  19.627  0.00  0.00    +0.000 C 
ATOM     15  C   UNL     1      49.602   5.567  21.139  0.00  0.00    +0.000 C 
ATOM     16  O   UNL     1      49.808   4.402  19.064  0.00  0.00    +0.000 OA
ENDBRANCH   1  11
BRANCH   1  17
ATOM     17  C   UNL     1      47.331   8.383  12.655  0.00  0.00    +0.000 C 
BRANCH  17  18
ATOM     18  N   UNL     1      46.351   7.646  13.475  0.00  0.00    +0.000 N 
ATOM     19  H   UNL     1      45.616   8.261  13.823  0.00  0.00    +0.000 HD
BRANCH  18  20
ATOM     20  C   UNL     1      45.770   6.513  12.870  0.00  0.00    +0.000 A 
ATOM     21  C   UNL     1      44.850   6.602  11.817  0.00  0.00    +0.000 A 
ATOM     22  C   UNL     1      44.319   5.456  11.215  0.00  0.00    +0.000 A 
ATOM     23  C   UNL     1      44.725   4.185  11.631  0.00  0.00    +0.000 A 
ATOM     24  C   UNL     1      45.682   4.091  12.639  0.00  0.00    +0.000 A 
ATOM     25  F   UNL     1      46.123   2.898  13.069  0.00  0.00    +0.000 F 
ATOM     26  C   UNL     1      46.213   5.237  13.240  0.00  0.00    +0.000 A 
BRANCH  23  27
ATOM     27  C   UNL     1      44.123   3.000  10.967  0.00  0.00    +0.000 C 
ATOM     28  N   UNL     1      44.780   2.459   9.900  0.00  0.00    +0.000 N 
ATOM     29  O   UNL     1      43.069   2.513  11.359  0.00  0.00    +0.000 OA
ATOM     30  H   UNL     1      45.649   2.832   9.539  0.00  0.00    +0.000 HD
ATOM     31  H   UNL     1      44.368   1.654   9.446  0.00  0.00    +0.000 HD
ENDBRANCH  23  27
ENDBRANCH  18  20
ENDBRANCH  17  18
ENDBRANCH   1  17
TORSDOF 5
ENDMDL
