MODEL 1
REMARK VINA RESULT:    -9.113      0.000      0.000
REMARK INTER + INTRA:         -12.078
REMARK INTER:                 -11.510
REMARK INTRA:                  -0.568
REMARK UNBOUND:                -0.568
REMARK  Name = 
REMARK  5 active torsions:
REMARK  status: ('A' for Active; 'I' for Inactive)
REMARK    1  A    between atoms: C_2  and  C_4
REMARK    2  A    between atoms: N_8  and  C_9
REMARK    3  A    between atoms: C_9  and  C_10
REMARK    4  A    between atoms: C_15  and  N_16
REMARK    5  A    between atoms: C_19  and  N_20
REMARK                            x       y       z     vdW  Elec       q    Type
REMARK                         _______ _______ _______ _____ _____    ______ ____
ROOT
ATOM      1  C   UNL     1      44.641   4.793  11.955  0.00  0.00    +0.000 A 
ATOM      2  C   UNL     1      45.312   3.771  12.634  0.00  0.00    +0.000 A 
ATOM      3  C   UNL     1      46.394   4.073  13.456  0.00  0.00    +0.000 A 
ATOM      4  C   UNL     1      46.810   5.396  13.602  0.00  0.00    +0.000 A 
ATOM      5  F   UNL     1      47.831   5.629  14.443  0.00  0.00    +0.000 F 
ATOM      6  C   UNL     1      46.170   6.462  12.942  0.00  0.00    +0.000 A 
ATOM      7  C   UNL     1      45.071   6.125  12.128  0.00  0.00    +0.000 A 
ENDROOT
BRANCH   6   8
ATOM      8  N   UNL     1      46.593   7.780  13.050  0.00  0.00    +0.000 N 
ATOM      9  C   UNL     1      45.637   8.888  13.103  0.00  0.00    +0.000 C 
ATOM     10  C   UNL     1      45.871   9.854  11.946  0.00  0.00    +0.000 C 
ATOM     11  C   UNL     1      47.334  10.307  11.855  0.00  0.00    +0.000 C 
ATOM     12  C   UNL     1      48.257   9.084  11.819  0.00  0.00    +0.000 C 
ATOM     13  C   UNL     1      48.014   8.127  12.985  0.00  0.00    +0.000 C 
BRANCH  11  14
ATOM     14  N   UNL     1      47.705  11.219  12.946  0.00  0.00    +0.000 NA
ATOM     15  H   UNL     1      46.952  11.286  13.628  0.00  0.00    +0.000 HD
ATOM     16  H   UNL     1      47.831  12.161  12.574  0.00  0.00    +0.000 HD
ENDBRANCH  11  14
ENDBRANCH   6   8
BRANCH   1  17
ATOM     17  C   UNL     1      43.479   4.463  11.041  0.00  0.00    +0.000 C 
BRANCH  17  22
ATOM     18  C   UNL     1      46.410   2.358   7.709  0.00  0.00    +0.000 A 
ATOM     19  C   UNL     1      45.525   1.888   8.647  0.00  0.00    +0.000 A 
ATOM     20  N   UNL     1      44.649   2.674   9.314  0.00  0.00    +0.000 NA
ATOM     21  C   UNL     1      44.666   3.988   9.036  0.00  0.00    +0.000 A 
ATOM     22  N   UNL     1      43.788   4.849   9.681  0.00  0.00    +0.000 N 
ATOM     23  N   UNL     1      45.504   4.546   8.152  0.00  0.00    +0.000 NA
ATOM     24  C   UNL     1      46.364   3.717   7.506  0.00  0.00    +0.000 A 
ATOM     25  H   UNL     1      44.154   5.788   9.568  0.00  0.00    +0.000 HD
BRANCH  18  27
ATOM     26  N   UNL     1      48.513   2.112   6.512  0.00  0.00    +0.000 N 
ATOM     27  C   UNL     1      47.381   1.517   6.997  0.00  0.00    +0.000 C 
ATOM     28  O   UNL     1      47.191   0.316   6.859  0.00  0.00    +0.000 OA
ATOM     29  H   UNL     1      49.199   1.494   6.093  0.00  0.00    +0.000 HD
ATOM     30  H   UNL     1      48.837   3.024   6.804  0.00  0.00    +0.000 HD
ENDBRANCH  18  27
ENDBRANCH  17  22
ENDBRANCH   1  17
TORSDOF 5
ENDMDL
MODEL 2
REMARK VINA RESULT:    -8.587      2.025      3.403
REMARK INTER + INTRA:         -11.414
REMARK INTER:                 -11.078
REMARK INTRA:                  -0.336
REMARK UNBOUND:                -0.568
REMARK  Name = 
REMARK  5 active torsions:
REMARK  status: ('A' for Active; 'I' for Inactive)
REMARK    1  A    between atoms: C_2  and  C_4
REMARK    2  A    between atoms: N_8  and  C_9
REMARK    3  A    between atoms: C_9  and  C_10
REMARK    4  A    between atoms: C_15  and  N_16
REMARK    5  A    between atoms: C_19  and  N_20
REMARK                            x       y       z     vdW  Elec       q    Type
REMARK                         _______ _______ _______ _____ _____    ______ ____
ROOT
ATOM      1  C   UNL     1      44.639   5.545  11.838  0.00  0.00    +0.000 A 
ATOM      2  C   UNL     1      44.496   6.927  11.669  0.00  0.00    +0.000 A 
ATOM      3  C   UNL     1      45.322   7.804  12.367  0.00  0.00    +0.000 A 
ATOM      4  C   UNL     1      46.293   7.305  13.234  0.00  0.00    +0.000 A 
ATOM      5  F   UNL     1      47.088   8.200  13.844  0.00  0.00    +0.000 F 
ATOM      6  C   UNL     1      46.480   5.926  13.441  0.00  0.00    +0.000 A 
ATOM      7  C   UNL     1      45.636   5.064  12.711  0.00  0.00    +0.000 A 
ENDROOT
BRANCH   6   8
ATOM      8  N   UNL     1      47.417   5.415  14.327  0.00  0.00    +0.000 N 
ATOM      9  C   UNL     1      47.210   4.134  15.006  0.00  0.00    +0.000 C 
ATOM     10  C   UNL     1      47.214   4.323  16.520  0.00  0.00    +0.000 C 
ATOM     11  C   UNL     1      48.452   5.084  17.008  0.00  0.00    +0.000 C 
ATOM     12  C   UNL     1      48.594   6.399  16.233  0.00  0.00    +0.000 C 
ATOM     13  C   UNL     1      48.593   6.195  14.719  0.00  0.00    +0.000 C 
BRANCH  11  14
ATOM     14  N   UNL     1      49.677   4.278  16.911  0.00  0.00    +0.000 NA
ATOM     15  H   UNL     1      50.502   4.868  17.004  0.00  0.00    +0.000 HD
ATOM     16  H   UNL     1      49.736   3.858  15.984  0.00  0.00    +0.000 HD
ENDBRANCH  11  14
ENDBRANCH   6   8
BRANCH   1  17
ATOM     17  C   UNL     1      43.725   4.590  11.099  0.00  0.00    +0.000 C 
BRANCH  17  22
ATOM     18  C   UNL     1      46.362   2.246   7.683  0.00  0.00    +0.000 A 
ATOM     19  C   UNL     1      45.647   1.851   8.786  0.00  0.00    +0.000 A 
ATOM     20  N   UNL     1      44.804   2.663   9.464  0.00  0.00    +0.000 NA
ATOM     21  C   UNL     1      44.677   3.926   9.025  0.00  0.00    +0.000 A 
ATOM     22  N   UNL     1      43.823   4.808   9.672  0.00  0.00    +0.000 N 
ATOM     23  N   UNL     1      45.346   4.411   7.970  0.00  0.00    +0.000 NA
ATOM     24  C   UNL     1      46.180   3.560   7.319  0.00  0.00    +0.000 A 
ATOM     25  H   UNL     1      44.094   5.744   9.393  0.00  0.00    +0.000 HD
BRANCH  18  27
ATOM     26  N   UNL     1      48.368   1.967   6.336  0.00  0.00    +0.000 N 
ATOM     27  C   UNL     1      47.298   1.380   6.954  0.00  0.00    +0.000 C 
ATOM     28  O   UNL     1      47.134   0.168   6.917  0.00  0.00    +0.000 OA
ATOM     29  H   UNL     1      49.037   1.337   5.906  0.00  0.00    +0.000 HD
ATOM     30  H   UNL     1      48.686   2.905   6.535  0.00  0.00    +0.000 HD
ENDBRANCH  18  27
ENDBRANCH  17  22
ENDBRANCH   1  17
TORSDOF 5
ENDMDL
MODEL 3
REMARK VINA RESULT:    -8.125      2.816      4.272
REMARK INTER + INTRA:         -10.830
REMARK INTER:                 -10.161
REMARK INTRA:                  -0.669
REMARK UNBOUND:                -0.568
REMARK  Name = 
REMARK  5 active torsions:
REMARK  status: ('A' for Active; 'I' for Inactive)
REMARK    1  A    between atoms: C_2  and  C_4
REMARK    2  A    between atoms: N_8  and  C_9
REMARK    3  A    between atoms: C_9  and  C_10
REMARK    4  A    between atoms: C_15  and  N_16
REMARK    5  A    between atoms: C_19  and  N_20
REMARK                            x       y       z     vdW  Elec       q    Type
REMARK                         _______ _______ _______ _____ _____    ______ ____
ROOT
ATOM      1  C   UNL     1      45.764   4.876  12.669  0.00  0.00    +0.000 A 
ATOM      2  C   UNL     1      46.515   5.962  12.204  0.00  0.00    +0.000 A 
ATOM      3  C   UNL     1      47.543   6.483  12.983  0.00  0.00    +0.000 A 
ATOM      4  C   UNL     1      47.827   5.924  14.228  0.00  0.00    +0.000 A 
ATOM      5  F   UNL     1      48.860   6.443  14.913  0.00  0.00    +0.000 F 
ATOM      6  C   UNL     1      47.104   4.832  14.744  0.00  0.00    +0.000 A 
ATOM      7  C   UNL     1      46.078   4.319  13.926  0.00  0.00    +0.000 A 
ENDROOT
BRANCH   6   8
ATOM      8  N   UNL     1      47.351   4.286  15.996  0.00  0.00    +0.000 N 
ATOM      9  C   UNL     1      47.164   5.066  17.221  0.00  0.00    +0.000 C 
ATOM     10  C   UNL     1      48.473   5.159  18.001  0.00  0.00    +0.000 C 
ATOM     11  C   UNL     1      49.107   3.783  18.238  0.00  0.00    +0.000 C 
ATOM     12  C   UNL     1      49.248   3.038  16.906  0.00  0.00    +0.000 C 
ATOM     13  C   UNL     1      47.930   2.948  16.137  0.00  0.00    +0.000 C 
BRANCH  11  14
ATOM     14  N   UNL     1      48.357   2.983  19.215  0.00  0.00    +0.000 NA
ATOM     15  H   UNL     1      47.528   3.486  19.529  0.00  0.00    +0.000 HD
ATOM     16  H   UNL     1      48.929   2.838  20.047  0.00  0.00    +0.000 HD
ENDBRANCH  11  14
ENDBRANCH   6   8
BRANCH   1  17
ATOM     17  C   UNL     1      44.629   4.323  11.833  0.00  0.00    +0.000 C 
BRANCH  17  22
ATOM     18  C   UNL     1      46.462   2.699   7.576  0.00  0.00    +0.000 A 
ATOM     19  C   UNL     1      45.790   2.115   8.620  0.00  0.00    +0.000 A 
ATOM     20  N   UNL     1      45.178   2.813   9.604  0.00  0.00    +0.000 NA
ATOM     21  C   UNL     1      45.248   4.153   9.544  0.00  0.00    +0.000 A 
ATOM     22  N   UNL     1      44.635   4.929  10.518  0.00  0.00    +0.000 N 
ATOM     23  N   UNL     1      45.896   4.816   8.577  0.00  0.00    +0.000 NA
ATOM     24  C   UNL     1      46.494   4.074   7.610  0.00  0.00    +0.000 A 
ATOM     25  H   UNL     1      45.048   5.853  10.467  0.00  0.00    +0.000 HD
BRANCH  18  27
ATOM     26  N   UNL     1      47.834   2.661   5.568  0.00  0.00    +0.000 N 
ATOM     27  C   UNL     1      47.151   1.950   6.517  0.00  0.00    +0.000 C 
ATOM     28  O   UNL     1      47.128   0.727   6.495  0.00  0.00    +0.000 OA
ATOM     29  H   UNL     1      48.362   2.116   4.895  0.00  0.00    +0.000 HD
ATOM     30  H   UNL     1      48.092   3.633   5.672  0.00  0.00    +0.000 HD
ENDBRANCH  18  27
ENDBRANCH  17  22
ENDBRANCH   1  17
TORSDOF 5
ENDMDL
MODEL 4
REMARK VINA RESULT:    -8.066      2.013      2.918
REMARK INTER + INTRA:         -10.756
REMARK INTER:                  -9.950
REMARK INTRA:                  -0.807
REMARK UNBOUND:                -0.568
REMARK  Name = 
REMARK  5 active torsions:
REMARK  status: ('A' for Active; 'I' for Inactive)
REMARK    1  A    between atoms: C_2  and  C_4
REMARK    2  A    between atoms: N_8  and  C_9
REMARK    3  A    between atoms: C_9  and  C_10
REMARK    4  A    between atoms: C_15  and  N_16
REMARK    5  A    between atoms: C_19  and  N_20
REMARK                            x       y       z     vdW  Elec       q    Type
REMARK                         _______ _______ _______ _____ _____    ______ ____
ROOT
ATOM      1  C   UNL     1      44.908   6.282  11.663  0.00  0.00    +0.000 A 
ATOM      2  C   UNL     1      44.418   7.586  11.538  0.00  0.00    +0.000 A 
ATOM      3  C   UNL     1      45.140   8.656  12.059  0.00  0.00    +0.000 A 
ATOM      4  C   UNL     1      46.353   8.427  12.707  0.00  0.00    +0.000 A 
ATOM      5  F   UNL     1      47.025   9.504  13.149  0.00  0.00    +0.000 F 
ATOM      6  C   UNL     1      46.892   7.136  12.861  0.00  0.00    +0.000 A 
ATOM      7  C   UNL     1      46.143   6.077  12.311  0.00  0.00    +0.000 A 
ENDROOT
BRANCH   6   8
ATOM      8  N   UNL     1      48.081   6.889  13.533  0.00  0.00    +0.000 N 
ATOM      9  C   UNL     1      48.092   6.397  14.912  0.00  0.00    +0.000 C 
ATOM     10  C   UNL     1      48.830   7.374  15.823  0.00  0.00    +0.000 C 
ATOM     11  C   UNL     1      50.222   7.730  15.286  0.00  0.00    +0.000 C 
ATOM     12  C   UNL     1      50.112   8.219  13.837  0.00  0.00    +0.000 C 
ATOM     13  C   UNL     1      49.374   7.230  12.935  0.00  0.00    +0.000 C 
BRANCH  11  14
ATOM     14  N   UNL     1      51.167   6.611  15.397  0.00  0.00    +0.000 NA
ATOM     15  H   UNL     1      51.422   6.453  16.370  0.00  0.00    +0.000 HD
ATOM     16  H   UNL     1      52.034   6.849  14.916  0.00  0.00    +0.000 HD
ENDBRANCH  11  14
ENDBRANCH   6   8
BRANCH   1  17
ATOM     17  C   UNL     1      44.111   5.115  11.118  0.00  0.00    +0.000 C 
BRANCH  17  22
ATOM     18  C   UNL     1      46.279   2.052   7.949  0.00  0.00    +0.000 A 
ATOM     19  C   UNL     1      45.600   1.892   9.131  0.00  0.00    +0.000 A 
ATOM     20  N   UNL     1      44.886   2.876   9.726  0.00  0.00    +0.000 NA
ATOM     21  C   UNL     1      44.859   4.073   9.116  0.00  0.00    +0.000 A 
ATOM     22  N   UNL     1      44.140   5.122   9.671  0.00  0.00    +0.000 N 
ATOM     23  N   UNL     1      45.505   4.333   7.971  0.00  0.00    +0.000 NA
ATOM     24  C   UNL     1      46.207   3.315   7.410  0.00  0.00    +0.000 A 
ATOM     25  H   UNL     1      44.485   5.976   9.248  0.00  0.00    +0.000 HD
BRANCH  18  27
ATOM     26  N   UNL     1      46.786  -0.303   7.616  0.00  0.00    +0.000 N 
ATOM     27  C   UNL     1      47.076   0.998   7.307  0.00  0.00    +0.000 C 
ATOM     28  O   UNL     1      47.959   1.276   6.508  0.00  0.00    +0.000 OA
ATOM     29  H   UNL     1      47.301  -1.010   7.101  0.00  0.00    +0.000 HD
ATOM     30  H   UNL     1      45.929  -0.597   8.063  0.00  0.00    +0.000 HD
ENDBRANCH  18  27
ENDBRANCH  17  22
ENDBRANCH   1  17
TORSDOF 5
ENDMDL
MODEL 5
REMARK VINA RESULT:    -7.507      4.978      7.989
REMARK INTER + INTRA:         -10.049
REMARK INTER:                  -9.204
REMARK INTRA:                  -0.845
REMARK UNBOUND:                -0.568
REMARK  Name = 
REMARK  5 active torsions:
REMARK  status: ('A' for Active; 'I' for Inactive)
REMARK    1  A    between atoms: C_2  and  C_4
REMARK    2  A    between atoms: N_8  and  C_9
REMARK    3  A    between atoms: C_9  and  C_10
REMARK    4  A    between atoms: C_15  and  N_16
REMARK    5  A    between atoms: C_19  and  N_20
REMARK                            x       y       z     vdW  Elec       q    Type
REMARK                         _______ _______ _______ _____ _____    ______ ____
ROOT
ATOM      1  C   UNL     1      48.260   6.572  14.521  0.00  0.00    +0.000 A 
ATOM      2  C   UNL     1      48.787   7.378  13.506  0.00  0.00    +0.000 A 
ATOM      3  C   UNL     1      48.227   7.351  12.232  0.00  0.00    +0.000 A 
ATOM      4  C   UNL     1      47.139   6.520  11.967  0.00  0.00    +0.000 A 
ATOM      5  F   UNL     1      46.615   6.572  10.732  0.00  0.00    +0.000 F 
ATOM      6  C   UNL     1      46.570   5.689  12.951  0.00  0.00    +0.000 A 
ATOM      7  C   UNL     1      47.152   5.749  14.233  0.00  0.00    +0.000 A 
ENDROOT
BRANCH   6   8
ATOM      8  N   UNL     1      45.510   4.831  12.694  0.00  0.00    +0.000 N 
ATOM      9  C   UNL     1      45.731   3.437  12.306  0.00  0.00    +0.000 C 
ATOM     10  C   UNL     1      45.112   3.156  10.940  0.00  0.00    +0.000 C 
ATOM     11  C   UNL     1      43.642   3.589  10.868  0.00  0.00    +0.000 C 
ATOM     12  C   UNL     1      43.508   5.052  11.304  0.00  0.00    +0.000 C 
ATOM     13  C   UNL     1      44.129   5.318  12.675  0.00  0.00    +0.000 C 
BRANCH  11  14
ATOM     14  N   UNL     1      42.764   2.717  11.661  0.00  0.00    +0.000 NA
ATOM     15  H   UNL     1      42.865   1.747  11.369  0.00  0.00    +0.000 HD
ATOM     16  H   UNL     1      41.790   2.963  11.483  0.00  0.00    +0.000 HD
ENDBRANCH  11  14
ENDBRANCH   6   8
BRANCH   1  17
ATOM     17  C   UNL     1      48.884   6.581  15.901  0.00  0.00    +0.000 C 
BRANCH  17  22
ATOM     18  C   UNL     1      51.199   2.553  17.493  0.00  0.00    +0.000 A 
ATOM     19  C   UNL     1      51.536   3.879  17.391  0.00  0.00    +0.000 A 
ATOM     20  N   UNL     1      50.645   4.862  17.125  0.00  0.00    +0.000 NA
ATOM     21  C   UNL     1      49.363   4.500  16.946  0.00  0.00    +0.000 A 
ATOM     22  N   UNL     1      48.398   5.460  16.677  0.00  0.00    +0.000 N 
ATOM     23  N   UNL     1      48.939   3.230  17.007  0.00  0.00    +0.000 NA
ATOM     24  C   UNL     1      49.869   2.278  17.278  0.00  0.00    +0.000 A 
ATOM     25  H   UNL     1      47.597   4.976  16.286  0.00  0.00    +0.000 HD
BRANCH  18  27
ATOM     26  N   UNL     1      51.673   0.248  18.111  0.00  0.00    +0.000 N 
ATOM     27  C   UNL     1      52.162   1.476  17.758  0.00  0.00    +0.000 C 
ATOM     28  O   UNL     1      53.366   1.667  17.648  0.00  0.00    +0.000 OA
ATOM     29  H   UNL     1      52.356  -0.494  18.213  0.00  0.00    +0.000 HD
ATOM     30  H   UNL     1      50.710  -0.032  17.979  0.00  0.00    +0.000 HD
ENDBRANCH  18  27
ENDBRANCH  17  22
ENDBRANCH   1  17
TORSDOF 5
ENDMDL
MODEL 6
REMARK VINA RESULT:    -6.949      4.619      8.327
REMARK INTER + INTRA:          -9.344
REMARK INTER:                  -8.462
REMARK INTRA:                  -0.882
REMARK UNBOUND:                -0.568
REMARK  Name = 
REMARK  5 active torsions:
REMARK  status: ('A' for Active; 'I' for Inactive)
REMARK    1  A    between atoms: C_2  and  C_4
REMARK    2  A    between atoms: N_8  and  C_9
REMARK    3  A    between atoms: C_9  and  C_10
REMARK    4  A    between atoms: C_15  and  N_16
REMARK    5  A    between atoms: C_19  and  N_20
REMARK                            x       y       z     vdW  Elec       q    Type
REMARK                         _______ _______ _______ _____ _____    ______ ____
ROOT
ATOM      1  C   UNL     1      48.204   7.483  13.412  0.00  0.00    +0.000 A 
ATOM      2  C   UNL     1      47.682   8.741  13.090  0.00  0.00    +0.000 A 
ATOM      3  C   UNL     1      46.435   8.843  12.480  0.00  0.00    +0.000 A 
ATOM      4  C   UNL     1      45.705   7.692  12.189  0.00  0.00    +0.000 A 
ATOM      5  F   UNL     1      44.490   7.858  11.641  0.00  0.00    +0.000 F 
ATOM      6  C   UNL     1      46.182   6.402  12.491  0.00  0.00    +0.000 A 
ATOM      7  C   UNL     1      47.441   6.333  13.120  0.00  0.00    +0.000 A 
ENDROOT
BRANCH   6   8
ATOM      8  N   UNL     1      45.484   5.245  12.176  0.00  0.00    +0.000 N 
ATOM      9  C   UNL     1      45.264   4.838  10.787  0.00  0.00    +0.000 C 
ATOM     10  C   UNL     1      43.770   4.743  10.487  0.00  0.00    +0.000 C 
ATOM     11  C   UNL     1      43.027   3.873  11.508  0.00  0.00    +0.000 C 
ATOM     12  C   UNL     1      43.329   4.364  12.929  0.00  0.00    +0.000 C 
ATOM     13  C   UNL     1      44.827   4.451  13.217  0.00  0.00    +0.000 C 
BRANCH  11  14
ATOM     14  N   UNL     1      43.345   2.446  11.363  0.00  0.00    +0.000 NA
ATOM     15  H   UNL     1      42.504   1.912  11.147  0.00  0.00    +0.000 HD
ATOM     16  H   UNL     1      43.688   2.081  12.251  0.00  0.00    +0.000 HD
ENDBRANCH  11  14
ENDBRANCH   6   8
BRANCH   1  17
ATOM     17  C   UNL     1      49.571   7.368  14.053  0.00  0.00    +0.000 C 
BRANCH  17  22
ATOM     18  C   UNL     1      48.970   5.334  18.483  0.00  0.00    +0.000 A 
ATOM     19  C   UNL     1      49.639   4.973  17.341  0.00  0.00    +0.000 A 
ATOM     20  N   UNL     1      49.852   5.809  16.298  0.00  0.00    +0.000 NA
ATOM     21  C   UNL     1      49.367   7.058  16.402  0.00  0.00    +0.000 A 
ATOM     22  N   UNL     1      49.556   7.968  15.371  0.00  0.00    +0.000 N 
ATOM     23  N   UNL     1      48.683   7.499  17.467  0.00  0.00    +0.000 NA
ATOM     24  C   UNL     1      48.496   6.624  18.488  0.00  0.00    +0.000 A 
ATOM     25  H   UNL     1      48.881   8.712  15.502  0.00  0.00    +0.000 HD
BRANCH  18  27
ATOM     26  N   UNL     1      48.359   3.135  19.326  0.00  0.00    +0.000 N 
ATOM     27  C   UNL     1      48.712   4.426  19.609  0.00  0.00    +0.000 C 
ATOM     28  O   UNL     1      48.829   4.810  20.765  0.00  0.00    +0.000 OA
ATOM     29  H   UNL     1      48.263   2.513  20.121  0.00  0.00    +0.000 HD
ATOM     30  H   UNL     1      48.487   2.703  18.421  0.00  0.00    +0.000 HD
ENDBRANCH  18  27
ENDBRANCH  17  22
ENDBRANCH   1  17
TORSDOF 5
ENDMDL
MODEL 7
REMARK VINA RESULT:    -6.701      2.003      2.954
REMARK INTER + INTRA:          -9.031
REMARK INTER:                  -9.285
REMARK INTRA:                   0.254
REMARK UNBOUND:                -0.568
REMARK  Name = 
REMARK  5 active torsions:
REMARK  status: ('A' for Active; 'I' for Inactive)
REMARK    1  A    between atoms: C_2  and  C_4
REMARK    2  A    between atoms: N_8  and  C_9
REMARK    3  A    between atoms: C_9  and  C_10
REMARK    4  A    between atoms: C_15  and  N_16
REMARK    5  A    between atoms: C_19  and  N_20
REMARK                            x       y       z     vdW  Elec       q    Type
REMARK                         _______ _______ _______ _____ _____    ______ ____
ROOT
ATOM      1  C   UNL     1      43.961   4.906  11.181  0.00  0.00    +0.000 A 
ATOM      2  C   UNL     1      43.166   6.051  11.064  0.00  0.00    +0.000 A 
ATOM      3  C   UNL     1      43.633   7.276  11.530  0.00  0.00    +0.000 A 
ATOM      4  C   UNL     1      44.896   7.363  12.114  0.00  0.00    +0.000 A 
ATOM      5  F   UNL     1      45.309   8.581  12.504  0.00  0.00    +0.000 F 
ATOM      6  C   UNL     1      45.737   6.244  12.258  0.00  0.00    +0.000 A 
ATOM      7  C   UNL     1      45.240   5.021  11.765  0.00  0.00    +0.000 A 
ENDROOT
BRANCH   6   8
ATOM      8  N   UNL     1      46.982   6.307  12.869  0.00  0.00    +0.000 N 
ATOM      9  C   UNL     1      47.433   5.266  13.794  0.00  0.00    +0.000 C 
ATOM     10  C   UNL     1      47.732   5.862  15.167  0.00  0.00    +0.000 C 
ATOM     11  C   UNL     1      48.680   7.064  15.084  0.00  0.00    +0.000 C 
ATOM     12  C   UNL     1      48.134   8.091  14.084  0.00  0.00    +0.000 C 
ATOM     13  C   UNL     1      47.843   7.481  12.713  0.00  0.00    +0.000 C 
BRANCH  11  14
ATOM     14  N   UNL     1      50.054   6.671  14.741  0.00  0.00    +0.000 NA
ATOM     15  H   UNL     1      50.150   5.657  14.756  0.00  0.00    +0.000 HD
ATOM     16  H   UNL     1      50.696   7.024  15.451  0.00  0.00    +0.000 HD
ENDBRANCH  11  14
ENDBRANCH   6   8
BRANCH   1  17
ATOM     17  C   UNL     1      43.444   3.567  10.698  0.00  0.00    +0.000 C 
BRANCH  17  22
ATOM     18  C   UNL     1      46.694   2.505   7.171  0.00  0.00    +0.000 A 
ATOM     19  C   UNL     1      46.143   3.665   7.655  0.00  0.00    +0.000 A 
ATOM     20  N   UNL     1      45.424   3.736   8.799  0.00  0.00    +0.000 NA
ATOM     21  C   UNL     1      45.242   2.594   9.483  0.00  0.00    +0.000 A 
ATOM     22  N   UNL     1      44.519   2.598  10.668  0.00  0.00    +0.000 N 
ATOM     23  N   UNL     1      45.723   1.408   9.084  0.00  0.00    +0.000 NA
ATOM     24  C   UNL     1      46.439   1.387   7.930  0.00  0.00    +0.000 A 
ATOM     25  H   UNL     1      44.245   1.640  10.854  0.00  0.00    +0.000 HD
BRANCH  18  27
ATOM     26  N   UNL     1      47.213   3.349   4.950  0.00  0.00    +0.000 N 
ATOM     27  C   UNL     1      47.456   2.414   5.918  0.00  0.00    +0.000 C 
ATOM     28  O   UNL     1      48.294   1.538   5.755  0.00  0.00    +0.000 OA
ATOM     29  H   UNL     1      47.807   3.307   4.129  0.00  0.00    +0.000 HD
ATOM     30  H   UNL     1      46.728   4.220   5.119  0.00  0.00    +0.000 HD
ENDBRANCH  18  27
ENDBRANCH  17  22
ENDBRANCH   1  17
TORSDOF 5
ENDMDL
MODEL 8
REMARK VINA RESULT:    -6.611      4.625      8.092
REMARK INTER + INTRA:          -8.918
REMARK INTER:                  -8.267
REMARK INTRA:                  -0.652
REMARK UNBOUND:                -0.568
REMARK  Name = 
REMARK  5 active torsions:
REMARK  status: ('A' for Active; 'I' for Inactive)
REMARK    1  A    between atoms: C_2  and  C_4
REMARK    2  A    between atoms: N_8  and  C_9
REMARK    3  A    between atoms: C_9  and  C_10
REMARK    4  A    between atoms: C_15  and  N_16
REMARK    5  A    between atoms: C_19  and  N_20
REMARK                            x       y       z     vdW  Elec       q    Type
REMARK                         _______ _______ _______ _____ _____    ______ ____
ROOT
ATOM      1  C   UNL     1      47.533   7.671  13.651  0.00  0.00    +0.000 A 
ATOM      2  C   UNL     1      47.293   8.945  13.126  0.00  0.00    +0.000 A 
ATOM      3  C   UNL     1      46.224   9.152  12.259  0.00  0.00    +0.000 A 
ATOM      4  C   UNL     1      45.392   8.088  11.912  0.00  0.00    +0.000 A 
ATOM      5  F   UNL     1      44.352   8.360  11.107  0.00  0.00    +0.000 F 
ATOM      6  C   UNL     1      45.588   6.787  12.411  0.00  0.00    +0.000 A 
ATOM      7  C   UNL     1      46.670   6.613  13.297  0.00  0.00    +0.000 A 
ENDROOT
BRANCH   6   8
ATOM      8  N   UNL     1      44.790   5.710  12.049  0.00  0.00    +0.000 N 
ATOM      9  C   UNL     1      43.416   5.580  12.536  0.00  0.00    +0.000 C 
ATOM     10  C   UNL     1      43.247   4.282  13.320  0.00  0.00    +0.000 C 
ATOM     11  C   UNL     1      43.740   3.060  12.536  0.00  0.00    +0.000 C 
ATOM     12  C   UNL     1      45.178   3.294  12.057  0.00  0.00    +0.000 C 
ATOM     13  C   UNL     1      45.331   4.596  11.269  0.00  0.00    +0.000 C 
BRANCH  11  14
ATOM     14  N   UNL     1      42.856   2.723  11.412  0.00  0.00    +0.000 NA
ATOM     15  H   UNL     1      42.110   2.099  11.718  0.00  0.00    +0.000 HD
ATOM     16  H   UNL     1      43.382   2.205  10.708  0.00  0.00    +0.000 HD
ENDBRANCH  11  14
ENDBRANCH   6   8
BRANCH   1  17
ATOM     17  C   UNL     1      48.710   7.439  14.576  0.00  0.00    +0.000 C 
BRANCH  17  22
ATOM     18  C   UNL     1      51.016   4.361  17.631  0.00  0.00    +0.000 A 
ATOM     19  C   UNL     1      51.393   5.470  16.916  0.00  0.00    +0.000 A 
ATOM     20  N   UNL     1      50.519   6.303  16.305  0.00  0.00    +0.000 NA
ATOM     21  C   UNL     1      49.212   6.007  16.406  0.00  0.00    +0.000 A 
ATOM     22  N   UNL     1      48.263   6.824  15.808  0.00  0.00    +0.000 N 
ATOM     23  N   UNL     1      48.746   4.937  17.065  0.00  0.00    +0.000 NA
ATOM     24  C   UNL     1      49.660   4.132  17.664  0.00  0.00    +0.000 A 
ATOM     25  H   UNL     1      47.407   6.286  15.740  0.00  0.00    +0.000 HD
BRANCH  18  27
ATOM     26  N   UNL     1      52.389   3.741  19.540  0.00  0.00    +0.000 N 
ATOM     27  C   UNL     1      51.958   3.438  18.278  0.00  0.00    +0.000 C 
ATOM     28  O   UNL     1      52.330   2.420  17.711  0.00  0.00    +0.000 OA
ATOM     29  H   UNL     1      52.977   3.048  19.990  0.00  0.00    +0.000 HD
ATOM     30  H   UNL     1      51.937   4.416  20.141  0.00  0.00    +0.000 HD
ENDBRANCH  18  27
ENDBRANCH  17  22
ENDBRANCH   1  17
TORSDOF 5
ENDMDL
MODEL 9
REMARK VINA RESULT:    -6.592      4.338      6.229
REMARK INTER + INTRA:          -8.895
REMARK INTER:                  -8.106
REMARK INTRA:                  -0.789
REMARK UNBOUND:                -0.568
REMARK  Name = 
REMARK  5 active torsions:
REMARK  status: ('A' for Active; 'I' for Inactive)
REMARK    1  A    between atoms: C_2  and  C_4
REMARK    2  A    between atoms: N_8  and  C_9
REMARK    3  A    between atoms: C_9  and  C_10
REMARK    4  A    between atoms: C_15  and  N_16
REMARK    5  A    between atoms: C_19  and  N_20
REMARK                            x       y       z     vdW  Elec       q    Type
REMARK                         _______ _______ _______ _____ _____    ______ ____
ROOT
ATOM      1  C   UNL     1      48.642   7.328  14.460  0.00  0.00    +0.000 A 
ATOM      2  C   UNL     1      48.750   8.696  14.730  0.00  0.00    +0.000 A 
ATOM      3  C   UNL     1      48.790   9.147  16.046  0.00  0.00    +0.000 A 
ATOM      4  C   UNL     1      48.724   8.233  17.097  0.00  0.00    +0.000 A 
ATOM      5  F   UNL     1      48.813   8.726  18.344  0.00  0.00    +0.000 F 
ATOM      6  C   UNL     1      48.615   6.847  16.883  0.00  0.00    +0.000 A 
ATOM      7  C   UNL     1      48.589   6.422  15.540  0.00  0.00    +0.000 A 
ENDROOT
BRANCH   6   8
ATOM      8  N   UNL     1      48.513   5.928  17.918  0.00  0.00    +0.000 N 
ATOM      9  C   UNL     1      47.269   5.761  18.672  0.00  0.00    +0.000 C 
ATOM     10  C   UNL     1      47.499   6.046  20.154  0.00  0.00    +0.000 C 
ATOM     11  C   UNL     1      48.677   5.245  20.724  0.00  0.00    +0.000 C 
ATOM     12  C   UNL     1      49.925   5.471  19.863  0.00  0.00    +0.000 C 
ATOM     13  C   UNL     1      49.682   5.178  18.383  0.00  0.00    +0.000 C 
BRANCH  11  14
ATOM     14  N   UNL     1      48.371   3.813  20.848  0.00  0.00    +0.000 NA
ATOM     15  H   UNL     1      47.497   3.677  21.353  0.00  0.00    +0.000 HD
ATOM     16  H   UNL     1      49.092   3.359  21.408  0.00  0.00    +0.000 HD
ENDBRANCH  11  14
ENDBRANCH   6   8
BRANCH   1  17
ATOM     17  C   UNL     1      48.573   6.837  13.029  0.00  0.00    +0.000 C 
BRANCH  17  22
ATOM     18  C   UNL     1      44.887   4.064  11.342  0.00  0.00    +0.000 A 
ATOM     19  C   UNL     1      45.724   3.996  12.427  0.00  0.00    +0.000 A 
ATOM     20  N   UNL     1      46.533   5.008  12.817  0.00  0.00    +0.000 NA
ATOM     21  C   UNL     1      46.507   6.134  12.084  0.00  0.00    +0.000 A 
ATOM     22  N   UNL     1      47.308   7.213  12.433  0.00  0.00    +0.000 N 
ATOM     23  N   UNL     1      45.739   6.291  10.997  0.00  0.00    +0.000 NA
ATOM     24  C   UNL     1      44.944   5.248  10.645  0.00  0.00    +0.000 A 
ATOM     25  H   UNL     1      47.372   7.813  11.619  0.00  0.00    +0.000 HD
BRANCH  18  27
ATOM     26  N   UNL     1      44.468   2.171   9.873  0.00  0.00    +0.000 N 
ATOM     27  C   UNL     1      44.023   2.962  10.896  0.00  0.00    +0.000 C 
ATOM     28  O   UNL     1      42.947   2.749  11.437  0.00  0.00    +0.000 OA
ATOM     29  H   UNL     1      43.886   1.374   9.639  0.00  0.00    +0.000 HD
ATOM     30  H   UNL     1      45.429   2.143   9.562  0.00  0.00    +0.000 HD
ENDBRANCH  18  27
ENDBRANCH  17  22
ENDBRANCH   1  17
TORSDOF 5
ENDMDL
