MODEL 1
REMARK VINA RESULT:    -9.258      0.000      0.000
REMARK INTER + INTRA:         -11.973
REMARK INTER:                 -11.423
REMARK INTRA:                  -0.551
REMARK UNBOUND:                -0.551
REMARK  Name = 
REMARK  4 active torsions:
REMARK  status: ('A' for Active; 'I' for Inactive)
REMARK    1  A    between atoms: C_2  and  C_4
REMARK    2  A    between atoms: N_8  and  C_9
REMARK    3  A    between atoms: C_9  and  C_10
REMARK    4  A    between atoms: C_14  and  C_15
REMARK                            x       y       z     vdW  Elec       q    Type
REMARK                         _______ _______ _______ _____ _____    ______ ____
ROOT
ATOM      1  C   UNL     1      43.947   4.854  11.521  0.00  0.00    +0.000 C 
ATOM      2  C   UNL     1      42.689   5.123  12.341  0.00  0.00    +0.000 C 
ATOM      3  C   UNL     1      43.024   6.011  11.189  0.00  0.00    +0.000 C 
ENDROOT
BRANCH   1   8
ATOM      4  C   UNL     1      46.411   2.687   7.587  0.00  0.00    +0.000 A 
ATOM      5  C   UNL     1      45.916   1.750   8.457  0.00  0.00    +0.000 A 
ATOM      6  N   UNL     1      45.124   2.052   9.511  0.00  0.00    +0.000 NA
ATOM      7  C   UNL     1      44.842   3.351   9.719  0.00  0.00    +0.000 A 
ATOM      8  N   UNL     1      43.946   3.600  10.759  0.00  0.00    +0.000 N 
ATOM      9  N   UNL     1      45.326   4.343   8.954  0.00  0.00    +0.000 NA
ATOM     10  C   UNL     1      46.101   3.989   7.901  0.00  0.00    +0.000 A 
ATOM     11  H   UNL     1      43.865   2.737  11.282  0.00  0.00    +0.000 HD
BRANCH   4  13
ATOM     12  N   UNL     1      47.198   3.239   5.356  0.00  0.00    +0.000 N 
ATOM     13  C   UNL     1      47.230   2.366   6.410  0.00  0.00    +0.000 C 
ATOM     14  O   UNL     1      47.948   1.376   6.389  0.00  0.00    +0.000 OA
ATOM     15  H   UNL     1      47.854   3.053   4.607  0.00  0.00    +0.000 HD
ATOM     16  H   UNL     1      46.838   4.181   5.423  0.00  0.00    +0.000 HD
ENDBRANCH   4  13
ENDBRANCH   1   8
BRANCH   1  17
ATOM     17  C   UNL     1      45.295   5.208  12.145  0.00  0.00    +0.000 A 
ATOM     18  C   UNL     1      46.044   6.297  11.675  0.00  0.00    +0.000 A 
ATOM     19  C   UNL     1      47.228   6.684  12.301  0.00  0.00    +0.000 A 
ATOM     20  C   UNL     1      47.677   5.998  13.430  0.00  0.00    +0.000 A 
ATOM     21  C   UNL     1      46.965   4.902  13.943  0.00  0.00    +0.000 A 
ATOM     22  C   UNL     1      45.807   4.500  13.250  0.00  0.00    +0.000 A 
BRANCH  21  23
ATOM     23  C   UNL     1      47.349   4.235  15.202  0.00  0.00    +0.000 A 
ATOM     24  C   UNL     1      47.112   4.796  16.458  0.00  0.00    +0.000 A 
ATOM     25  N   UNL     1      47.388   4.169  17.629  0.00  0.00    +0.000 NA
ATOM     26  C   UNL     1      47.915   2.934  17.504  0.00  0.00    +0.000 A 
ATOM     27  C   UNL     1      48.156   2.357  16.270  0.00  0.00    +0.000 A 
ATOM     28  N   UNL     1      47.880   2.986  15.102  0.00  0.00    +0.000 NA
ENDBRANCH  21  23
ENDBRANCH   1  17
TORSDOF 4
ENDMDL
MODEL 2
REMARK VINA RESULT:    -8.616      2.167      3.624
REMARK INTER + INTRA:         -11.182
REMARK INTER:                 -10.427
REMARK INTRA:                  -0.755
REMARK UNBOUND:                -0.551
REMARK  Name = 
REMARK  4 active torsions:
REMARK  status: ('A' for Active; 'I' for Inactive)
REMARK    1  A    between atoms: C_2  and  C_4
REMARK    2  A    between atoms: N_8  and  C_9
REMARK    3  A    between atoms: C_9  and  C_10
REMARK    4  A    between atoms: C_14  and  C_15
REMARK                            x       y       z     vdW  Elec       q    Type
REMARK                         _______ _______ _______ _____ _____    ______ ____
ROOT
ATOM      1  C   UNL     1      43.809   4.933  11.427  0.00  0.00    +0.000 C 
ATOM      2  C   UNL     1      42.482   5.293  12.087  0.00  0.00    +0.000 C 
ATOM      3  C   UNL     1      43.020   6.155  10.994  0.00  0.00    +0.000 C 
ENDROOT
BRANCH   1   8
ATOM      4  C   UNL     1      46.419   2.708   7.621  0.00  0.00    +0.000 A 
ATOM      5  C   UNL     1      45.850   1.784   8.459  0.00  0.00    +0.000 A 
ATOM      6  N   UNL     1      45.011   2.105   9.469  0.00  0.00    +0.000 NA
ATOM      7  C   UNL     1      44.756   3.412   9.668  0.00  0.00    +0.000 A 
ATOM      8  N   UNL     1      43.813   3.684  10.659  0.00  0.00    +0.000 N 
ATOM      9  N   UNL     1      45.310   4.391   8.936  0.00  0.00    +0.000 NA
ATOM     10  C   UNL     1      46.131   4.018   7.925  0.00  0.00    +0.000 A 
ATOM     11  H   UNL     1      43.677   2.821  11.172  0.00  0.00    +0.000 HD
BRANCH   4  13
ATOM     12  N   UNL     1      47.252   3.181   5.389  0.00  0.00    +0.000 N 
ATOM     13  C   UNL     1      47.291   2.368   6.489  0.00  0.00    +0.000 C 
ATOM     14  O   UNL     1      48.056   1.414   6.544  0.00  0.00    +0.000 OA
ATOM     15  H   UNL     1      47.941   2.990   4.671  0.00  0.00    +0.000 HD
ATOM     16  H   UNL     1      46.846   4.107   5.395  0.00  0.00    +0.000 HD
ENDBRANCH   4  13
ENDBRANCH   1   8
BRANCH   1  17
ATOM     17  C   UNL     1      45.091   5.189  12.215  0.00  0.00    +0.000 A 
ATOM     18  C   UNL     1      45.580   4.242  13.127  0.00  0.00    +0.000 A 
ATOM     19  C   UNL     1      46.797   4.426  13.780  0.00  0.00    +0.000 A 
ATOM     20  C   UNL     1      47.567   5.559  13.514  0.00  0.00    +0.000 A 
ATOM     21  C   UNL     1      47.126   6.539  12.609  0.00  0.00    +0.000 A 
ATOM     22  C   UNL     1      45.863   6.350  12.015  0.00  0.00    +0.000 A 
BRANCH  21  23
ATOM     23  C   UNL     1      47.970   7.684  12.218  0.00  0.00    +0.000 A 
ATOM     24  C   UNL     1      47.472   8.983  12.095  0.00  0.00    +0.000 A 
ATOM     25  N   UNL     1      48.242  10.063  11.810  0.00  0.00    +0.000 NA
ATOM     26  C   UNL     1      49.556   9.800  11.655  0.00  0.00    +0.000 A 
ATOM     27  C   UNL     1      50.072   8.522  11.774  0.00  0.00    +0.000 A 
ATOM     28  N   UNL     1      49.300   7.445  12.058  0.00  0.00    +0.000 NA
ENDBRANCH  21  23
ENDBRANCH   1  17
TORSDOF 4
ENDMDL
MODEL 3
REMARK VINA RESULT:    -6.821      3.017      7.585
REMARK INTER + INTRA:          -8.966
REMARK INTER:                  -9.314
REMARK INTRA:                   0.348
REMARK UNBOUND:                -0.551
REMARK  Name = 
REMARK  4 active torsions:
REMARK  status: ('A' for Active; 'I' for Inactive)
REMARK    1  A    between atoms: C_2  and  C_4
REMARK    2  A    between atoms: N_8  and  C_9
REMARK    3  A    between atoms: C_9  and  C_10
REMARK    4  A    between atoms: C_14  and  C_15
REMARK                            x       y       z     vdW  Elec       q    Type
REMARK                         _______ _______ _______ _____ _____    ______ ____
ROOT
ATOM      1  C   UNL     1      48.598   7.863  12.795  0.00  0.00    +0.000 C 
ATOM      2  C   UNL     1      49.739   7.272  11.973  0.00  0.00    +0.000 C 
ATOM      3  C   UNL     1      49.461   8.736  11.903  0.00  0.00    +0.000 C 
ENDROOT
BRANCH   1   8
ATOM      4  C   UNL     1      48.048   4.540  16.654  0.00  0.00    +0.000 A 
ATOM      5  C   UNL     1      49.002   5.486  16.928  0.00  0.00    +0.000 A 
ATOM      6  N   UNL     1      49.255   6.547  16.128  0.00  0.00    +0.000 NA
ATOM      7  C   UNL     1      48.543   6.646  14.990  0.00  0.00    +0.000 A 
ATOM      8  N   UNL     1      48.774   7.805  14.250  0.00  0.00    +0.000 N 
ATOM      9  N   UNL     1      47.628   5.739  14.611  0.00  0.00    +0.000 NA
ATOM     10  C   UNL     1      47.399   4.703  15.453  0.00  0.00    +0.000 A 
ATOM     11  H   UNL     1      49.608   8.232  14.636  0.00  0.00    +0.000 HD
BRANCH   4  13
ATOM     12  N   UNL     1      48.668   3.048  18.469  0.00  0.00    +0.000 N 
ATOM     13  C   UNL     1      47.730   3.411  17.540  0.00  0.00    +0.000 C 
ATOM     14  O   UNL     1      46.649   2.843  17.477  0.00  0.00    +0.000 OA
ATOM     15  H   UNL     1      48.380   2.343  19.137  0.00  0.00    +0.000 HD
ATOM     16  H   UNL     1      49.446   3.635  18.733  0.00  0.00    +0.000 HD
ENDBRANCH   4  13
ENDBRANCH   1   8
BRANCH   1  17
ATOM     17  C   UNL     1      47.170   7.602  12.325  0.00  0.00    +0.000 A 
ATOM     18  C   UNL     1      46.172   8.577  12.467  0.00  0.00    +0.000 A 
ATOM     19  C   UNL     1      44.890   8.382  11.955  0.00  0.00    +0.000 A 
ATOM     20  C   UNL     1      44.586   7.208  11.264  0.00  0.00    +0.000 A 
ATOM     21  C   UNL     1      45.548   6.199  11.090  0.00  0.00    +0.000 A 
ATOM     22  C   UNL     1      46.813   6.403  11.675  0.00  0.00    +0.000 A 
BRANCH  21  23
ATOM     23  C   UNL     1      45.293   5.004  10.264  0.00  0.00    +0.000 A 
ATOM     24  C   UNL     1      44.562   3.908  10.726  0.00  0.00    +0.000 A 
ATOM     25  N   UNL     1      44.252   2.831   9.961  0.00  0.00    +0.000 NA
ATOM     26  C   UNL     1      44.698   2.888   8.689  0.00  0.00    +0.000 A 
ATOM     27  C   UNL     1      45.422   3.965   8.209  0.00  0.00    +0.000 A 
ATOM     28  N   UNL     1      45.731   5.038   8.976  0.00  0.00    +0.000 NA
ENDBRANCH  21  23
ENDBRANCH   1  17
TORSDOF 4
ENDMDL
MODEL 4
REMARK VINA RESULT:    -6.554      3.914      8.348
REMARK INTER + INTRA:          -8.637
REMARK INTER:                  -8.001
REMARK INTRA:                  -0.636
REMARK UNBOUND:                -0.551
REMARK  Name = 
REMARK  4 active torsions:
REMARK  status: ('A' for Active; 'I' for Inactive)
REMARK    1  A    between atoms: C_2  and  C_4
REMARK    2  A    between atoms: N_8  and  C_9
REMARK    3  A    between atoms: C_9  and  C_10
REMARK    4  A    between atoms: C_14  and  C_15
REMARK                            x       y       z     vdW  Elec       q    Type
REMARK                         _______ _______ _______ _____ _____    ______ ____
ROOT
ATOM      1  C   UNL     1      48.901   7.949  12.574  0.00  0.00    +0.000 C 
ATOM      2  C   UNL     1      49.860   8.312  11.444  0.00  0.00    +0.000 C 
ATOM      3  C   UNL     1      49.430   9.363  12.413  0.00  0.00    +0.000 C 
ENDROOT
BRANCH   1   8
ATOM      4  C   UNL     1      48.634   7.085  17.616  0.00  0.00    +0.000 A 
ATOM      5  C   UNL     1      48.905   5.939  16.915  0.00  0.00    +0.000 A 
ATOM      6  N   UNL     1      49.146   5.913  15.585  0.00  0.00    +0.000 NA
ATOM      7  C   UNL     1      49.082   7.083  14.923  0.00  0.00    +0.000 A 
ATOM      8  N   UNL     1      49.432   7.018  13.575  0.00  0.00    +0.000 N 
ATOM      9  N   UNL     1      48.769   8.248  15.514  0.00  0.00    +0.000 NA
ATOM     10  C   UNL     1      48.551   8.225  16.850  0.00  0.00    +0.000 A 
ATOM     11  H   UNL     1      49.455   6.035  13.331  0.00  0.00    +0.000 HD
BRANCH   4  13
ATOM     12  N   UNL     1      47.494   6.277  19.603  0.00  0.00    +0.000 N 
ATOM     13  C   UNL     1      48.420   7.132  19.069  0.00  0.00    +0.000 C 
ATOM     14  O   UNL     1      49.076   7.879  19.782  0.00  0.00    +0.000 OA
ATOM     15  H   UNL     1      47.446   6.251  20.614  0.00  0.00    +0.000 HD
ATOM     16  H   UNL     1      47.124   5.477  19.109  0.00  0.00    +0.000 HD
ENDBRANCH   4  13
ENDBRANCH   1   8
BRANCH   1  17
ATOM     17  C   UNL     1      47.434   7.721  12.219  0.00  0.00    +0.000 A 
ATOM     18  C   UNL     1      46.479   8.730  12.412  0.00  0.00    +0.000 A 
ATOM     19  C   UNL     1      45.157   8.562  12.003  0.00  0.00    +0.000 A 
ATOM     20  C   UNL     1      44.767   7.384  11.366  0.00  0.00    +0.000 A 
ATOM     21  C   UNL     1      45.684   6.342  11.145  0.00  0.00    +0.000 A 
ATOM     22  C   UNL     1      46.995   6.520  11.628  0.00  0.00    +0.000 A 
BRANCH  21  23
ATOM     23  C   UNL     1      45.332   5.138  10.370  0.00  0.00    +0.000 A 
ATOM     24  C   UNL     1      44.592   4.082  10.908  0.00  0.00    +0.000 A 
ATOM     25  N   UNL     1      44.194   2.999  10.194  0.00  0.00    +0.000 NA
ATOM     26  C   UNL     1      44.559   3.007   8.895  0.00  0.00    +0.000 A 
ATOM     27  C   UNL     1      45.290   4.043   8.341  0.00  0.00    +0.000 A 
ATOM     28  N   UNL     1      45.687   5.122   9.057  0.00  0.00    +0.000 NA
ENDBRANCH  21  23
ENDBRANCH   1  17
TORSDOF 4
ENDMDL
MODEL 5
REMARK VINA RESULT:    -6.418      3.357      5.083
REMARK INTER + INTRA:          -8.469
REMARK INTER:                  -7.829
REMARK INTRA:                  -0.640
REMARK UNBOUND:                -0.551
REMARK  Name = 
REMARK  4 active torsions:
REMARK  status: ('A' for Active; 'I' for Inactive)
REMARK    1  A    between atoms: C_2  and  C_4
REMARK    2  A    between atoms: N_8  and  C_9
REMARK    3  A    between atoms: C_9  and  C_10
REMARK    4  A    between atoms: C_14  and  C_15
REMARK                            x       y       z     vdW  Elec       q    Type
REMARK                         _______ _______ _______ _____ _____    ______ ____
ROOT
ATOM      1  C   UNL     1      48.432   8.306  12.630  0.00  0.00    +0.000 C 
ATOM      2  C   UNL     1      49.345   9.290  11.904  0.00  0.00    +0.000 C 
ATOM      3  C   UNL     1      49.593   7.824  11.781  0.00  0.00    +0.000 C 
ENDROOT
BRANCH   1   8
ATOM      4  C   UNL     1      44.603   4.955  12.046  0.00  0.00    +0.000 A 
ATOM      5  C   UNL     1      44.139   6.231  12.235  0.00  0.00    +0.000 A 
ATOM      6  N   UNL     1      44.942   7.318  12.293  0.00  0.00    +0.000 NA
ATOM      7  C   UNL     1      46.268   7.112  12.190  0.00  0.00    +0.000 A 
ATOM      8  N   UNL     1      47.043   8.271  12.161  0.00  0.00    +0.000 N 
ATOM      9  N   UNL     1      46.818   5.894  12.060  0.00  0.00    +0.000 NA
ATOM     10  C   UNL     1      45.972   4.839  11.990  0.00  0.00    +0.000 A 
ATOM     11  H   UNL     1      46.436   9.031  12.445  0.00  0.00    +0.000 HD
BRANCH   4  13
ATOM     12  N   UNL     1      44.099   2.650  12.625  0.00  0.00    +0.000 N 
ATOM     13  C   UNL     1      43.738   3.773  11.931  0.00  0.00    +0.000 C 
ATOM     14  O   UNL     1      42.708   3.804  11.270  0.00  0.00    +0.000 OA
ATOM     15  H   UNL     1      43.430   1.889  12.617  0.00  0.00    +0.000 HD
ATOM     16  H   UNL     1      44.777   2.652  13.375  0.00  0.00    +0.000 HD
ENDBRANCH   4  13
ENDBRANCH   1   8
BRANCH   1  17
ATOM     17  C   UNL     1      48.588   8.173  14.143  0.00  0.00    +0.000 A 
ATOM     18  C   UNL     1      48.387   9.273  14.990  0.00  0.00    +0.000 A 
ATOM     19  C   UNL     1      48.434   9.138  16.376  0.00  0.00    +0.000 A 
ATOM     20  C   UNL     1      48.661   7.885  16.947  0.00  0.00    +0.000 A 
ATOM     21  C   UNL     1      48.866   6.749  16.146  0.00  0.00    +0.000 A 
ATOM     22  C   UNL     1      48.874   6.935  14.750  0.00  0.00    +0.000 A 
BRANCH  21  23
ATOM     23  C   UNL     1      48.988   5.395  16.719  0.00  0.00    +0.000 A 
ATOM     24  C   UNL     1      47.895   4.543  16.883  0.00  0.00    +0.000 A 
ATOM     25  N   UNL     1      47.993   3.268  17.338  0.00  0.00    +0.000 NA
ATOM     26  C   UNL     1      49.247   2.860  17.623  0.00  0.00    +0.000 A 
ATOM     27  C   UNL     1      50.345   3.687  17.466  0.00  0.00    +0.000 A 
ATOM     28  N   UNL     1      50.243   4.960  17.013  0.00  0.00    +0.000 NA
ENDBRANCH  21  23
ENDBRANCH   1  17
TORSDOF 4
ENDMDL
