MODEL 1
REMARK VINA RESULT:    -9.542      0.000      0.000
REMARK INTER + INTRA:         -14.031
REMARK INTER:                 -12.889
REMARK INTRA:                  -1.143
REMARK UNBOUND:                -1.143
REMARK  Name = 
REMARK  6 active torsions:
REMARK  status: ('A' for Active; 'I' for Inactive)
REMARK    1  A    between atoms: C_2  and  C_4
REMARK    2  A    between atoms: N_8  and  C_9
REMARK    3  A    between atoms: C_9  and  C_10
REMARK    4  A    between atoms: C_10  and  C_13
REMARK    5  A    between atoms: C_18  and  O_19
REMARK    6  A    between atoms: O_19  and  C_20
REMARK                            x       y       z     vdW  Elec       q    Type
REMARK                         _______ _______ _______ _____ _____    ______ ____
ROOT
ATOM      1  C   UNL     1      43.589   4.706  12.506  0.00  0.00    +0.000 C 
ATOM      2  F   UNL     1      42.619   5.533  12.999  0.00  0.00    +0.000 F 
ATOM      3  F   UNL     1      43.495   3.559  13.242  0.00  0.00    +0.000 F 
ENDROOT
BRANCH   1   4
ATOM      4  C   UNL     1      44.971   5.332  12.602  0.00  0.00    +0.000 A 
ATOM      5  C   UNL     1      45.392   6.279  11.660  0.00  0.00    +0.000 A 
ATOM      6  C   UNL     1      46.681   6.821  11.738  0.00  0.00    +0.000 A 
ATOM      7  C   UNL     1      47.558   6.414  12.749  0.00  0.00    +0.000 A 
ATOM      8  F   UNL     1      48.781   6.964  12.784  0.00  0.00    +0.000 F 
ATOM      9  C   UNL     1      47.162   5.469  13.691  0.00  0.00    +0.000 A 
ATOM     10  C   UNL     1      45.863   4.946  13.619  0.00  0.00    +0.000 A 
BRANCH   9  11
ATOM     11  O   UNL     1      47.896   4.984  14.745  0.00  0.00    +0.000 OA
BRANCH  11  12
ATOM     12  C   UNL     1      47.376   3.943  15.592  0.00  0.00    +0.000 C 
ATOM     13  C   UNL     1      47.509   4.114  17.114  0.00  0.00    +0.000 C 
ATOM     14  C   UNL     1      48.134   2.724  17.082  0.00  0.00    +0.000 C 
ATOM     15  O   UNL     1      48.270   2.788  15.646  0.00  0.00    +0.000 OA
ENDBRANCH  11  12
ENDBRANCH   9  11
ENDBRANCH   1   4
BRANCH   1  16
ATOM     16  C   UNL     1      43.248   4.384  11.030  0.00  0.00    +0.000 C 
BRANCH  16  21
ATOM     17  C   UNL     1      46.504   2.640   7.462  0.00  0.00    +0.000 A 
ATOM     18  C   UNL     1      46.022   3.918   7.718  0.00  0.00    +0.000 A 
ATOM     19  C   UNL     1      45.117   4.100   8.762  0.00  0.00    +0.000 A 
ATOM     20  C   UNL     1      44.689   3.010   9.514  0.00  0.00    +0.000 A 
ATOM     21  N   UNL     1      43.808   3.124  10.555  0.00  0.00    +0.000 N 
ATOM     22  N   UNL     1      45.135   1.766   9.252  0.00  0.00    +0.000 NA
ATOM     23  C   UNL     1      46.027   1.600   8.241  0.00  0.00    +0.000 A 
ATOM     24  H   UNL     1      43.495   2.242  10.946  0.00  0.00    +0.000 HD
BRANCH  17  26
ATOM     25  N   UNL     1      47.429   3.172   5.286  0.00  0.00    +0.000 N 
ATOM     26  C   UNL     1      47.477   2.366   6.388  0.00  0.00    +0.000 C 
ATOM     27  O   UNL     1      48.313   1.476   6.486  0.00  0.00    +0.000 OA
ATOM     28  H   UNL     1      48.161   3.053   4.605  0.00  0.00    +0.000 HD
ATOM     29  H   UNL     1      46.948   4.076   5.296  0.00  0.00    +0.000 HD
ENDBRANCH  17  26
ENDBRANCH  16  21
ENDBRANCH   1  16
TORSDOF 6
ENDMDL
MODEL 2
REMARK VINA RESULT:    -8.615      2.255      3.258
REMARK INTER + INTRA:         -12.780
REMARK INTER:                 -11.721
REMARK INTRA:                  -1.058
REMARK UNBOUND:                -1.143
REMARK  Name = 
REMARK  6 active torsions:
REMARK  status: ('A' for Active; 'I' for Inactive)
REMARK    1  A    between atoms: C_2  and  C_4
REMARK    2  A    between atoms: N_8  and  C_9
REMARK    3  A    between atoms: C_9  and  C_10
REMARK    4  A    between atoms: C_10  and  C_13
REMARK    5  A    between atoms: C_18  and  O_19
REMARK    6  A    between atoms: O_19  and  C_20
REMARK                            x       y       z     vdW  Elec       q    Type
REMARK                         _______ _______ _______ _____ _____    ______ ____
ROOT
ATOM      1  C   UNL     1      43.233   5.805  11.910  0.00  0.00    +0.000 C 
ATOM      2  F   UNL     1      42.836   7.013  11.410  0.00  0.00    +0.000 F 
ATOM      3  F   UNL     1      42.277   5.459  12.821  0.00  0.00    +0.000 F 
ENDROOT
BRANCH   1   4
ATOM      4  C   UNL     1      44.617   5.877  12.535  0.00  0.00    +0.000 A 
ATOM      5  C   UNL     1      45.226   4.727  13.053  0.00  0.00    +0.000 A 
ATOM      6  C   UNL     1      46.485   4.813  13.660  0.00  0.00    +0.000 A 
ATOM      7  C   UNL     1      47.137   6.046  13.761  0.00  0.00    +0.000 A 
ATOM      8  F   UNL     1      48.343   6.078  14.347  0.00  0.00    +0.000 F 
ATOM      9  C   UNL     1      46.546   7.202  13.259  0.00  0.00    +0.000 A 
ATOM     10  C   UNL     1      45.295   7.106  12.634  0.00  0.00    +0.000 A 
BRANCH   9  11
ATOM     11  O   UNL     1      47.064   8.474  13.267  0.00  0.00    +0.000 OA
BRANCH  11  12
ATOM     12  C   UNL     1      48.137   8.841  12.381  0.00  0.00    +0.000 C 
ATOM     13  C   UNL     1      48.698   7.764  11.439  0.00  0.00    +0.000 C 
ATOM     14  C   UNL     1      50.054   8.159  12.010  0.00  0.00    +0.000 C 
ATOM     15  O   UNL     1      49.421   8.897  13.077  0.00  0.00    +0.000 OA
ENDBRANCH  11  12
ENDBRANCH   9  11
ENDBRANCH   1   4
BRANCH   1  16
ATOM     16  C   UNL     1      43.220   4.774  10.754  0.00  0.00    +0.000 C 
BRANCH  16  21
ATOM     17  C   UNL     1      46.481   2.309   7.645  0.00  0.00    +0.000 A 
ATOM     18  C   UNL     1      45.675   1.849   8.680  0.00  0.00    +0.000 A 
ATOM     19  C   UNL     1      44.888   2.764   9.377  0.00  0.00    +0.000 A 
ATOM     20  C   UNL     1      44.935   4.116   9.052  0.00  0.00    +0.000 A 
ATOM     21  N   UNL     1      44.182   5.061   9.695  0.00  0.00    +0.000 N 
ATOM     22  N   UNL     1      45.733   4.569   8.067  0.00  0.00    +0.000 NA
ATOM     23  C   UNL     1      46.487   3.668   7.384  0.00  0.00    +0.000 A 
ATOM     24  H   UNL     1      44.391   6.020   9.437  0.00  0.00    +0.000 HD
BRANCH  17  26
ATOM     25  N   UNL     1      48.380   1.966   6.178  0.00  0.00    +0.000 N 
ATOM     26  C   UNL     1      47.329   1.404   6.847  0.00  0.00    +0.000 C 
ATOM     27  O   UNL     1      47.124   0.197   6.804  0.00  0.00    +0.000 OA
ATOM     28  H   UNL     1      49.018   1.334   5.724  0.00  0.00    +0.000 HD
ATOM     29  H   UNL     1      48.738   2.895   6.416  0.00  0.00    +0.000 HD
ENDBRANCH  17  26
ENDBRANCH  16  21
ENDBRANCH   1  16
TORSDOF 6
ENDMDL
MODEL 3
REMARK VINA RESULT:    -8.508      2.627      4.251
REMARK INTER + INTRA:         -12.635
REMARK INTER:                 -11.856
REMARK INTRA:                  -0.779
REMARK UNBOUND:                -1.143
REMARK  Name = 
REMARK  6 active torsions:
REMARK  status: ('A' for Active; 'I' for Inactive)
REMARK    1  A    between atoms: C_2  and  C_4
REMARK    2  A    between atoms: N_8  and  C_9
REMARK    3  A    between atoms: C_9  and  C_10
REMARK    4  A    between atoms: C_10  and  C_13
REMARK    5  A    between atoms: C_18  and  O_19
REMARK    6  A    between atoms: O_19  and  C_20
REMARK                            x       y       z     vdW  Elec       q    Type
REMARK                         _______ _______ _______ _____ _____    ______ ____
ROOT
ATOM      1  C   UNL     1      43.661   4.806  12.433  0.00  0.00    +0.000 C 
ATOM      2  F   UNL     1      42.656   5.287  13.224  0.00  0.00    +0.000 F 
ATOM      3  F   UNL     1      43.910   3.545  12.892  0.00  0.00    +0.000 F 
ENDROOT
BRANCH   1   4
ATOM      4  C   UNL     1      44.899   5.688  12.490  0.00  0.00    +0.000 A 
ATOM      5  C   UNL     1      46.157   5.133  12.756  0.00  0.00    +0.000 A 
ATOM      6  C   UNL     1      47.284   5.960  12.842  0.00  0.00    +0.000 A 
ATOM      7  C   UNL     1      47.159   7.343  12.673  0.00  0.00    +0.000 A 
ATOM      8  F   UNL     1      48.267   8.093  12.761  0.00  0.00    +0.000 F 
ATOM      9  C   UNL     1      45.916   7.915  12.414  0.00  0.00    +0.000 A 
ATOM     10  C   UNL     1      44.796   7.079  12.309  0.00  0.00    +0.000 A 
BRANCH   9  11
ATOM     11  O   UNL     1      45.637   9.243  12.209  0.00  0.00    +0.000 OA
BRANCH  11  12
ATOM     12  C   UNL     1      44.462   9.648  11.481  0.00  0.00    +0.000 C 
ATOM     13  C   UNL     1      44.604  10.778  10.449  0.00  0.00    +0.000 C 
ATOM     14  C   UNL     1      43.436  11.420  11.187  0.00  0.00    +0.000 C 
ATOM     15  O   UNL     1      43.589  10.498  12.288  0.00  0.00    +0.000 OA
ENDBRANCH  11  12
ENDBRANCH   9  11
ENDBRANCH   1   4
BRANCH   1  16
ATOM     16  C   UNL     1      43.133   4.717  10.979  0.00  0.00    +0.000 C 
BRANCH  16  21
ATOM     17  C   UNL     1      46.443   2.536   7.714  0.00  0.00    +0.000 A 
ATOM     18  C   UNL     1      45.617   1.986   8.686  0.00  0.00    +0.000 A 
ATOM     19  C   UNL     1      44.820   2.836   9.451  0.00  0.00    +0.000 A 
ATOM     20  C   UNL     1      44.877   4.212   9.255  0.00  0.00    +0.000 A 
ATOM     21  N   UNL     1      44.115   5.097   9.970  0.00  0.00    +0.000 N 
ATOM     22  N   UNL     1      45.695   4.750   8.331  0.00  0.00    +0.000 NA
ATOM     23  C   UNL     1      46.458   3.913   7.580  0.00  0.00    +0.000 A 
ATOM     24  H   UNL     1      44.332   6.075   9.806  0.00  0.00    +0.000 HD
BRANCH  17  26
ATOM     25  N   UNL     1      48.366   2.323   6.254  0.00  0.00    +0.000 N 
ATOM     26  C   UNL     1      47.303   1.705   6.850  0.00  0.00    +0.000 C 
ATOM     27  O   UNL     1      47.095   0.508   6.693  0.00  0.00    +0.000 OA
ATOM     28  H   UNL     1      49.010   1.733   5.754  0.00  0.00    +0.000 HD
ATOM     29  H   UNL     1      48.722   3.224   6.582  0.00  0.00    +0.000 HD
ENDBRANCH  17  26
ENDBRANCH  16  21
ENDBRANCH   1  16
TORSDOF 6
ENDMDL
MODEL 4
REMARK VINA RESULT:    -8.254      1.827      2.121
REMARK INTER + INTRA:         -12.292
REMARK INTER:                 -11.666
REMARK INTRA:                  -0.626
REMARK UNBOUND:                -1.143
REMARK  Name = 
REMARK  6 active torsions:
REMARK  status: ('A' for Active; 'I' for Inactive)
REMARK    1  A    between atoms: C_2  and  C_4
REMARK    2  A    between atoms: N_8  and  C_9
REMARK    3  A    between atoms: C_9  and  C_10
REMARK    4  A    between atoms: C_10  and  C_13
REMARK    5  A    between atoms: C_18  and  O_19
REMARK    6  A    between atoms: O_19  and  C_20
REMARK                            x       y       z     vdW  Elec       q    Type
REMARK                         _______ _______ _______ _____ _____    ______ ____
ROOT
ATOM      1  C   UNL     1      43.732   5.009  12.337  0.00  0.00    +0.000 C 
ATOM      2  F   UNL     1      42.692   5.329  13.164  0.00  0.00    +0.000 F 
ATOM      3  F   UNL     1      44.089   3.737  12.681  0.00  0.00    +0.000 F 
ENDROOT
BRANCH   1   4
ATOM      4  C   UNL     1      44.890   5.984  12.479  0.00  0.00    +0.000 A 
ATOM      5  C   UNL     1      44.820   7.261  11.909  0.00  0.00    +0.000 A 
ATOM      6  C   UNL     1      45.908   8.137  12.015  0.00  0.00    +0.000 A 
ATOM      7  C   UNL     1      47.072   7.739  12.680  0.00  0.00    +0.000 A 
ATOM      8  F   UNL     1      48.086   8.614  12.759  0.00  0.00    +0.000 F 
ATOM      9  C   UNL     1      47.165   6.471  13.248  0.00  0.00    +0.000 A 
ATOM     10  C   UNL     1      46.064   5.607  13.156  0.00  0.00    +0.000 A 
BRANCH   9  11
ATOM     11  O   UNL     1      48.225   5.944  13.943  0.00  0.00    +0.000 OA
BRANCH  11  12
ATOM     12  C   UNL     1      48.576   6.443  15.247  0.00  0.00    +0.000 C 
ATOM     13  C   UNL     1      49.756   7.422  15.354  0.00  0.00    +0.000 C 
ATOM     14  C   UNL     1      50.281   6.466  16.417  0.00  0.00    +0.000 C 
ATOM     15  O   UNL     1      49.327   5.457  16.022  0.00  0.00    +0.000 OA
ENDBRANCH  11  12
ENDBRANCH   9  11
ENDBRANCH   1   4
BRANCH   1  16
ATOM     16  C   UNL     1      43.209   5.006  10.879  0.00  0.00    +0.000 C 
BRANCH  16  21
ATOM     17  C   UNL     1      46.290   2.079   7.994  0.00  0.00    +0.000 A 
ATOM     18  C   UNL     1      45.374   1.749   8.985  0.00  0.00    +0.000 A 
ATOM     19  C   UNL     1      44.675   2.771   9.625  0.00  0.00    +0.000 A 
ATOM     20  C   UNL     1      44.916   4.099   9.288  0.00  0.00    +0.000 A 
ATOM     21  N   UNL     1      44.259   5.146   9.875  0.00  0.00    +0.000 N 
ATOM     22  N   UNL     1      45.822   4.425   8.346  0.00  0.00    +0.000 NA
ATOM     23  C   UNL     1      46.489   3.421   7.718  0.00  0.00    +0.000 A 
ATOM     24  H   UNL     1      44.606   6.064   9.619  0.00  0.00    +0.000 HD
BRANCH  17  26
ATOM     25  N   UNL     1      46.778  -0.251   7.540  0.00  0.00    +0.000 N 
ATOM     26  C   UNL     1      47.056   1.057   7.257  0.00  0.00    +0.000 C 
ATOM     27  O   UNL     1      47.884   1.360   6.407  0.00  0.00    +0.000 OA
ATOM     28  H   UNL     1      47.223  -0.943   6.961  0.00  0.00    +0.000 HD
ATOM     29  H   UNL     1      45.919  -0.530   8.020  0.00  0.00    +0.000 HD
ENDBRANCH  17  26
ENDBRANCH  16  21
ENDBRANCH   1  16
TORSDOF 6
ENDMDL
MODEL 5
REMARK VINA RESULT:    -7.829      2.644      3.097
REMARK INTER + INTRA:         -11.718
REMARK INTER:                 -10.695
REMARK INTRA:                  -1.023
REMARK UNBOUND:                -1.143
REMARK  Name = 
REMARK  6 active torsions:
REMARK  status: ('A' for Active; 'I' for Inactive)
REMARK    1  A    between atoms: C_2  and  C_4
REMARK    2  A    between atoms: N_8  and  C_9
REMARK    3  A    between atoms: C_9  and  C_10
REMARK    4  A    between atoms: C_10  and  C_13
REMARK    5  A    between atoms: C_18  and  O_19
REMARK    6  A    between atoms: O_19  and  C_20
REMARK                            x       y       z     vdW  Elec       q    Type
REMARK                         _______ _______ _______ _____ _____    ______ ____
ROOT
ATOM      1  C   UNL     1      43.967   5.309  12.269  0.00  0.00    +0.000 C 
ATOM      2  F   UNL     1      42.973   5.196  13.200  0.00  0.00    +0.000 F 
ATOM      3  F   UNL     1      44.937   4.435  12.668  0.00  0.00    +0.000 F 
ENDROOT
BRANCH   1   4
ATOM      4  C   UNL     1      44.491   6.734  12.170  0.00  0.00    +0.000 A 
ATOM      5  C   UNL     1      43.887   7.656  11.306  0.00  0.00    +0.000 A 
ATOM      6  C   UNL     1      44.401   8.954  11.196  0.00  0.00    +0.000 A 
ATOM      7  C   UNL     1      45.524   9.334  11.938  0.00  0.00    +0.000 A 
ATOM      8  F   UNL     1      45.977  10.589  11.802  0.00  0.00    +0.000 F 
ATOM      9  C   UNL     1      46.143   8.430  12.797  0.00  0.00    +0.000 A 
ATOM     10  C   UNL     1      45.611   7.139  12.918  0.00  0.00    +0.000 A 
BRANCH   9  11
ATOM     11  O   UNL     1      47.234   8.656  13.599  0.00  0.00    +0.000 OA
BRANCH  11  12
ATOM     12  C   UNL     1      48.555   8.768  13.037  0.00  0.00    +0.000 C 
ATOM     13  C   UNL     1      48.761   8.323  11.581  0.00  0.00    +0.000 C 
ATOM     14  C   UNL     1      49.900   7.478  12.140  0.00  0.00    +0.000 C 
ATOM     15  O   UNL     1      49.431   7.689  13.489  0.00  0.00    +0.000 OA
ENDBRANCH  11  12
ENDBRANCH   9  11
ENDBRANCH   1   4
BRANCH   1  16
ATOM     16  C   UNL     1      43.407   4.848  10.901  0.00  0.00    +0.000 C 
BRANCH  16  21
ATOM     17  C   UNL     1      46.565   2.646   7.502  0.00  0.00    +0.000 A 
ATOM     18  C   UNL     1      46.201   3.973   7.690  0.00  0.00    +0.000 A 
ATOM     19  C   UNL     1      45.293   4.286   8.700  0.00  0.00    +0.000 A 
ATOM     20  C   UNL     1      44.747   3.277   9.486  0.00  0.00    +0.000 A 
ATOM     21  N   UNL     1      43.856   3.520  10.496  0.00  0.00    +0.000 N 
ATOM     22  N   UNL     1      45.078   1.986   9.290  0.00  0.00    +0.000 NA
ATOM     23  C   UNL     1      45.974   1.692   8.312  0.00  0.00    +0.000 A 
ATOM     24  H   UNL     1      43.452   2.690  10.917  0.00  0.00    +0.000 HD
BRANCH  17  26
ATOM     25  N   UNL     1      47.744   3.101   5.434  0.00  0.00    +0.000 N 
ATOM     26  C   UNL     1      47.533   2.234   6.468  0.00  0.00    +0.000 C 
ATOM     27  O   UNL     1      48.145   1.176   6.543  0.00  0.00    +0.000 OA
ATOM     28  H   UNL     1      48.481   2.867   4.789  0.00  0.00    +0.000 HD
ATOM     29  H   UNL     1      47.472   4.087   5.489  0.00  0.00    +0.000 HD
ENDBRANCH  17  26
ENDBRANCH  16  21
ENDBRANCH   1  16
TORSDOF 6
ENDMDL
MODEL 6
REMARK VINA RESULT:    -7.806      3.213      7.980
REMARK INTER + INTRA:         -11.687
REMARK INTER:                 -11.273
REMARK INTRA:                  -0.414
REMARK UNBOUND:                -1.143
REMARK  Name = 
REMARK  6 active torsions:
REMARK  status: ('A' for Active; 'I' for Inactive)
REMARK    1  A    between atoms: C_2  and  C_4
REMARK    2  A    between atoms: N_8  and  C_9
REMARK    3  A    between atoms: C_9  and  C_10
REMARK    4  A    between atoms: C_10  and  C_13
REMARK    5  A    between atoms: C_18  and  O_19
REMARK    6  A    between atoms: O_19  and  C_20
REMARK                            x       y       z     vdW  Elec       q    Type
REMARK                         _______ _______ _______ _____ _____    ______ ____
ROOT
ATOM      1  C   UNL     1      45.544   6.237  12.099  0.00  0.00    +0.000 C 
ATOM      2  F   UNL     1      44.574   6.532  13.016  0.00  0.00    +0.000 F 
ATOM      3  F   UNL     1      45.767   7.401  11.421  0.00  0.00    +0.000 F 
ENDROOT
BRANCH   1   4
ATOM      4  C   UNL     1      45.123   5.109  11.171  0.00  0.00    +0.000 A 
ATOM      5  C   UNL     1      44.374   4.029  11.655  0.00  0.00    +0.000 A 
ATOM      6  C   UNL     1      44.024   2.979  10.799  0.00  0.00    +0.000 A 
ATOM      7  C   UNL     1      44.427   2.995   9.459  0.00  0.00    +0.000 A 
ATOM      8  F   UNL     1      44.064   1.968   8.677  0.00  0.00    +0.000 F 
ATOM      9  C   UNL     1      45.177   4.056   8.959  0.00  0.00    +0.000 A 
ATOM     10  C   UNL     1      45.507   5.114   9.817  0.00  0.00    +0.000 A 
BRANCH   9  11
ATOM     11  O   UNL     1      45.630   4.224   7.674  0.00  0.00    +0.000 OA
BRANCH  11  12
ATOM     12  C   UNL     1      46.820   3.556   7.216  0.00  0.00    +0.000 C 
ATOM     13  C   UNL     1      46.796   2.911   5.820  0.00  0.00    +0.000 C 
ATOM     14  C   UNL     1      47.289   1.659   6.536  0.00  0.00    +0.000 C 
ATOM     15  O   UNL     1      46.968   2.233   7.821  0.00  0.00    +0.000 OA
ENDBRANCH  11  12
ENDBRANCH   9  11
ENDBRANCH   1   4
BRANCH   1  16
ATOM     16  C   UNL     1      46.834   5.848  12.865  0.00  0.00    +0.000 C 
BRANCH  16  21
ATOM     17  C   UNL     1      48.328   4.420  17.566  0.00  0.00    +0.000 A 
ATOM     18  C   UNL     1      48.681   5.512  16.783  0.00  0.00    +0.000 A 
ATOM     19  C   UNL     1      48.120   5.641  15.514  0.00  0.00    +0.000 A 
ATOM     20  C   UNL     1      47.242   4.673  15.037  0.00  0.00    +0.000 A 
ATOM     21  N   UNL     1      46.653   4.746  13.803  0.00  0.00    +0.000 N 
ATOM     22  N   UNL     1      46.916   3.600  15.783  0.00  0.00    +0.000 NA
ATOM     23  C   UNL     1      47.458   3.490  17.024  0.00  0.00    +0.000 A 
ATOM     24  H   UNL     1      46.123   3.924  13.535  0.00  0.00    +0.000 HD
BRANCH  17  26
ATOM     25  N   UNL     1      48.352   3.178  19.647  0.00  0.00    +0.000 N 
ATOM     26  C   UNL     1      48.862   4.220  18.926  0.00  0.00    +0.000 C 
ATOM     27  O   UNL     1      49.745   4.936  19.384  0.00  0.00    +0.000 OA
ATOM     28  H   UNL     1      48.793   2.979  20.529  0.00  0.00    +0.000 HD
ATOM     29  H   UNL     1      47.838   2.412  19.202  0.00  0.00    +0.000 HD
ENDBRANCH  17  26
ENDBRANCH  16  21
ENDBRANCH   1  16
TORSDOF 6
ENDMDL
MODEL 7
REMARK VINA RESULT:    -7.184      3.810      6.957
REMARK INTER + INTRA:         -10.846
REMARK INTER:                 -10.250
REMARK INTRA:                  -0.596
REMARK UNBOUND:                -1.143
REMARK  Name = 
REMARK  6 active torsions:
REMARK  status: ('A' for Active; 'I' for Inactive)
REMARK    1  A    between atoms: C_2  and  C_4
REMARK    2  A    between atoms: N_8  and  C_9
REMARK    3  A    between atoms: C_9  and  C_10
REMARK    4  A    between atoms: C_10  and  C_13
REMARK    5  A    between atoms: C_18  and  O_19
REMARK    6  A    between atoms: O_19  and  C_20
REMARK                            x       y       z     vdW  Elec       q    Type
REMARK                         _______ _______ _______ _____ _____    ______ ____
ROOT
ATOM      1  C   UNL     1      43.283   5.713  11.549  0.00  0.00    +0.000 C 
ATOM      2  F   UNL     1      41.952   5.708  11.859  0.00  0.00    +0.000 F 
ATOM      3  F   UNL     1      43.484   6.857  10.831  0.00  0.00    +0.000 F 
ENDROOT
BRANCH   1   4
ATOM      4  C   UNL     1      43.688   4.472  10.768  0.00  0.00    +0.000 A 
ATOM      5  C   UNL     1      43.609   3.203  11.355  0.00  0.00    +0.000 A 
ATOM      6  C   UNL     1      44.019   2.072  10.638  0.00  0.00    +0.000 A 
ATOM      7  C   UNL     1      44.519   2.203   9.338  0.00  0.00    +0.000 A 
ATOM      8  F   UNL     1      44.896   1.091   8.691  0.00  0.00    +0.000 F 
ATOM      9  C   UNL     1      44.612   3.456   8.739  0.00  0.00    +0.000 A 
ATOM     10  C   UNL     1      44.180   4.582   9.455  0.00  0.00    +0.000 A 
BRANCH   9  11
ATOM     11  O   UNL     1      45.060   3.744   7.474  0.00  0.00    +0.000 OA
BRANCH  11  12
ATOM     12  C   UNL     1      46.458   3.639   7.143  0.00  0.00    +0.000 C 
ATOM     13  C   UNL     1      46.836   3.038   5.780  0.00  0.00    +0.000 C 
ATOM     14  C   UNL     1      47.741   2.116   6.586  0.00  0.00    +0.000 C 
ATOM     15  O   UNL     1      47.092   2.507   7.815  0.00  0.00    +0.000 OA
ENDBRANCH  11  12
ENDBRANCH   9  11
ENDBRANCH   1   4
BRANCH   1  16
ATOM     16  C   UNL     1      44.089   5.801  12.869  0.00  0.00    +0.000 C 
BRANCH  16  21
ATOM     17  C   UNL     1      48.806   7.826  12.709  0.00  0.00    +0.000 A 
ATOM     18  C   UNL     1      48.363   6.518  12.556  0.00  0.00    +0.000 A 
ATOM     19  C   UNL     1      47.000   6.250  12.668  0.00  0.00    +0.000 A 
ATOM     20  C   UNL     1      46.107   7.279  12.953  0.00  0.00    +0.000 A 
ATOM     21  N   UNL     1      44.758   7.082  13.069  0.00  0.00    +0.000 N 
ATOM     22  N   UNL     1      46.535   8.544  13.127  0.00  0.00    +0.000 NA
ATOM     23  C   UNL     1      47.865   8.797  13.003  0.00  0.00    +0.000 A 
ATOM     24  H   UNL     1      44.235   7.891  13.387  0.00  0.00    +0.000 HD
BRANCH  17  26
ATOM     25  N   UNL     1      51.047   7.866  13.632  0.00  0.00    +0.000 N 
ATOM     26  C   UNL     1      50.228   8.195  12.588  0.00  0.00    +0.000 C 
ATOM     27  O   UNL     1      50.669   8.745  11.586  0.00  0.00    +0.000 OA
ATOM     28  H   UNL     1      52.032   8.022  13.501  0.00  0.00    +0.000 HD
ATOM     29  H   UNL     1      50.776   7.174  14.335  0.00  0.00    +0.000 HD
ENDBRANCH  17  26
ENDBRANCH  16  21
ENDBRANCH   1  16
TORSDOF 6
ENDMDL
MODEL 8
REMARK VINA RESULT:    -7.044      3.772      8.307
REMARK INTER + INTRA:         -10.657
REMARK INTER:                  -9.697
REMARK INTRA:                  -0.960
REMARK UNBOUND:                -1.143
REMARK  Name = 
REMARK  6 active torsions:
REMARK  status: ('A' for Active; 'I' for Inactive)
REMARK    1  A    between atoms: C_2  and  C_4
REMARK    2  A    between atoms: N_8  and  C_9
REMARK    3  A    between atoms: C_9  and  C_10
REMARK    4  A    between atoms: C_10  and  C_13
REMARK    5  A    between atoms: C_18  and  O_19
REMARK    6  A    between atoms: O_19  and  C_20
REMARK                            x       y       z     vdW  Elec       q    Type
REMARK                         _______ _______ _______ _____ _____    ______ ____
ROOT
ATOM      1  C   UNL     1      46.784   6.573  12.394  0.00  0.00    +0.000 C 
ATOM      2  F   UNL     1      46.157   7.388  13.294  0.00  0.00    +0.000 F 
ATOM      3  F   UNL     1      47.118   7.382  11.346  0.00  0.00    +0.000 F 
ENDROOT
BRANCH   1   4
ATOM      4  C   UNL     1      45.896   5.417  11.960  0.00  0.00    +0.000 A 
ATOM      5  C   UNL     1      45.588   4.381  12.851  0.00  0.00    +0.000 A 
ATOM      6  C   UNL     1      44.800   3.304  12.429  0.00  0.00    +0.000 A 
ATOM      7  C   UNL     1      44.323   3.250  11.115  0.00  0.00    +0.000 A 
ATOM      8  F   UNL     1      43.568   2.201  10.759  0.00  0.00    +0.000 F 
ATOM      9  C   UNL     1      44.622   4.267  10.212  0.00  0.00    +0.000 A 
ATOM     10  C   UNL     1      45.395   5.352  10.647  0.00  0.00    +0.000 A 
BRANCH   9  11
ATOM     11  O   UNL     1      44.217   4.365   8.904  0.00  0.00    +0.000 OA
BRANCH  11  12
ATOM     12  C   UNL     1      44.879   3.619   7.866  0.00  0.00    +0.000 C 
ATOM     13  C   UNL     1      45.790   2.453   8.283  0.00  0.00    +0.000 C 
ATOM     14  C   UNL     1      46.836   3.131   7.407  0.00  0.00    +0.000 C 
ATOM     15  O   UNL     1      46.040   4.333   7.339  0.00  0.00    +0.000 OA
ENDBRANCH  11  12
ENDBRANCH   9  11
ENDBRANCH   1   4
BRANCH   1  16
ATOM     16  C   UNL     1      48.082   6.036  13.047  0.00  0.00    +0.000 C 
BRANCH  16  21
ATOM     17  C   UNL     1      48.199   5.338  18.134  0.00  0.00    +0.000 A 
ATOM     18  C   UNL     1      47.703   4.541  17.109  0.00  0.00    +0.000 A 
ATOM     19  C   UNL     1      47.793   4.998  15.796  0.00  0.00    +0.000 A 
ATOM     20  C   UNL     1      48.349   6.245  15.527  0.00  0.00    +0.000 A 
ATOM     21  N   UNL     1      48.471   6.747  14.260  0.00  0.00    +0.000 N 
ATOM     22  N   UNL     1      48.808   7.031  16.519  0.00  0.00    +0.000 NA
ATOM     23  C   UNL     1      48.728   6.571  17.796  0.00  0.00    +0.000 A 
ATOM     24  H   UNL     1      48.790   7.709  14.212  0.00  0.00    +0.000 HD
BRANCH  17  26
ATOM     25  N   UNL     1      48.520   3.630  19.823  0.00  0.00    +0.000 N 
ATOM     26  C   UNL     1      48.159   4.919  19.547  0.00  0.00    +0.000 C 
ATOM     27  O   UNL     1      47.845   5.694  20.441  0.00  0.00    +0.000 OA
ATOM     28  H   UNL     1      48.596   3.379  20.795  0.00  0.00    +0.000 HD
ATOM     29  H   UNL     1      49.046   3.060  19.155  0.00  0.00    +0.000 HD
ENDBRANCH  17  26
ENDBRANCH  16  21
ENDBRANCH   1  16
TORSDOF 6
ENDMDL
MODEL 9
REMARK VINA RESULT:    -6.882      3.277      4.839
REMARK INTER + INTRA:         -10.439
REMARK INTER:                  -9.328
REMARK INTRA:                  -1.111
REMARK UNBOUND:                -1.143
REMARK  Name = 
REMARK  6 active torsions:
REMARK  status: ('A' for Active; 'I' for Inactive)
REMARK    1  A    between atoms: C_2  and  C_4
REMARK    2  A    between atoms: N_8  and  C_9
REMARK    3  A    between atoms: C_9  and  C_10
REMARK    4  A    between atoms: C_10  and  C_13
REMARK    5  A    between atoms: C_18  and  O_19
REMARK    6  A    between atoms: O_19  and  C_20
REMARK                            x       y       z     vdW  Elec       q    Type
REMARK                         _______ _______ _______ _____ _____    ______ ____
ROOT
ATOM      1  C   UNL     1      47.950   8.667  12.477  0.00  0.00    +0.000 C 
ATOM      2  F   UNL     1      48.369   7.676  11.634  0.00  0.00    +0.000 F 
ATOM      3  F   UNL     1      48.616   9.790  12.075  0.00  0.00    +0.000 F 
ENDROOT
BRANCH   1   4
ATOM      4  C   UNL     1      48.231   8.329  13.933  0.00  0.00    +0.000 A 
ATOM      5  C   UNL     1      48.324   9.343  14.895  0.00  0.00    +0.000 A 
ATOM      6  C   UNL     1      48.619   9.023  16.225  0.00  0.00    +0.000 A 
ATOM      7  C   UNL     1      48.833   7.692  16.601  0.00  0.00    +0.000 A 
ATOM      8  F   UNL     1      49.109   7.434  17.887  0.00  0.00    +0.000 F 
ATOM      9  C   UNL     1      48.751   6.670  15.659  0.00  0.00    +0.000 A 
ATOM     10  C   UNL     1      48.435   6.996  14.332  0.00  0.00    +0.000 A 
BRANCH   9  11
ATOM     11  O   UNL     1      48.917   5.324  15.873  0.00  0.00    +0.000 OA
BRANCH  11  12
ATOM     12  C   UNL     1      47.795   4.485  16.205  0.00  0.00    +0.000 C 
ATOM     13  C   UNL     1      47.392   4.366  17.683  0.00  0.00    +0.000 C 
ATOM     14  C   UNL     1      47.471   2.863  17.448  0.00  0.00    +0.000 C 
ATOM     15  O   UNL     1      48.154   3.068  16.192  0.00  0.00    +0.000 OA
ENDBRANCH  11  12
ENDBRANCH   9  11
ENDBRANCH   1   4
BRANCH   1  16
ATOM     16  C   UNL     1      46.431   8.879  12.260  0.00  0.00    +0.000 C 
BRANCH  16  21
ATOM     17  C   UNL     1      44.356   4.245  11.494  0.00  0.00    +0.000 A 
ATOM     18  C   UNL     1      45.090   5.072  10.652  0.00  0.00    +0.000 A 
ATOM     19  C   UNL     1      45.521   6.308  11.131  0.00  0.00    +0.000 A 
ATOM     20  C   UNL     1      45.195   6.709  12.423  0.00  0.00    +0.000 A 
ATOM     21  N   UNL     1      45.593   7.906  12.952  0.00  0.00    +0.000 N 
ATOM     22  N   UNL     1      44.463   5.921  13.233  0.00  0.00    +0.000 NA
ATOM     23  C   UNL     1      44.058   4.712  12.762  0.00  0.00    +0.000 A 
ATOM     24  H   UNL     1      45.197   8.123  13.861  0.00  0.00    +0.000 HD
BRANCH  17  26
ATOM     25  N   UNL     1      44.545   2.316  10.038  0.00  0.00    +0.000 N 
ATOM     26  C   UNL     1      43.879   2.915  11.070  0.00  0.00    +0.000 C 
ATOM     27  O   UNL     1      42.947   2.354  11.634  0.00  0.00    +0.000 OA
ATOM     28  H   UNL     1      44.288   1.367   9.823  0.00  0.00    +0.000 HD
ATOM     29  H   UNL     1      45.477   2.621   9.745  0.00  0.00    +0.000 HD
ENDBRANCH  17  26
ENDBRANCH  16  21
ENDBRANCH   1  16
TORSDOF 6
ENDMDL
