MODEL 1
REMARK VINA RESULT:    -9.080      0.000      0.000
REMARK INTER + INTRA:         -13.943
REMARK INTER:                 -12.795
REMARK INTRA:                  -1.148
REMARK UNBOUND:                -1.148
REMARK  Name = 
REMARK  8 active torsions:
REMARK  status: ('A' for Active; 'I' for Inactive)
REMARK    1  A    between atoms: C_1  and  C_2
REMARK    2  A    between atoms: C_2  and  N_3
REMARK    3  A    between atoms: C_2  and  C_26
REMARK    4  A    between atoms: N_3  and  C_4
REMARK    5  A    between atoms: C_4  and  C_5
REMARK    6  A    between atoms: C_10  and  C_11
REMARK    7  A    between atoms: C_11  and  N_12
REMARK    8  A    between atoms: C_13  and  C_15
REMARK                            x       y       z     vdW  Elec       q    Type
REMARK                         _______ _______ _______ _____ _____    ______ ____
ROOT
ATOM      1  C   UNL     1      44.923   5.462  11.251  0.00  0.00    +0.000 A 
ATOM      2  C   UNL     1      45.926   6.383  10.933  0.00  0.00    +0.000 A 
ATOM      3  C   UNL     1      46.991   6.578  11.807  0.00  0.00    +0.000 A 
ATOM      4  F   UNL     1      47.957   7.448  11.484  0.00  0.00    +0.000 F 
ATOM      5  C   UNL     1      47.087   5.863  12.995  0.00  0.00    +0.000 A 
ATOM      6  C   UNL     1      46.104   4.924  13.325  0.00  0.00    +0.000 A 
ATOM      7  C   UNL     1      45.014   4.750  12.459  0.00  0.00    +0.000 A 
ENDROOT
BRANCH   1   8
ATOM      8  C   UNL     1      43.820   5.142  10.271  0.00  0.00    +0.000 C 
BRANCH   8   9
ATOM      9  N   UNL     1      44.308   4.476   9.064  0.00  0.00    +0.000 NA
ATOM     10  H   UNL     1      44.936   5.110   8.570  0.00  0.00    +0.000 HD
BRANCH   9  12
ATOM     11  C   UNL     1      44.136   2.085   9.829  0.00  0.00    +0.000 C 
ATOM     12  C   UNL     1      45.042   3.236   9.361  0.00  0.00    +0.000 C 
BRANCH  12  13
ATOM     13  C   UNL     1      45.846   2.773   8.145  0.00  0.00    +0.000 A 
ATOM     14  C   UNL     1      46.118   3.667   7.094  0.00  0.00    +0.000 A 
ATOM     15  C   UNL     1      46.952   3.292   6.036  0.00  0.00    +0.000 A 
ATOM     16  C   UNL     1      47.513   2.019   6.008  0.00  0.00    +0.000 A 
ATOM     17  C   UNL     1      47.222   1.108   7.017  0.00  0.00    +0.000 A 
ATOM     18  C   UNL     1      46.389   1.483   8.076  0.00  0.00    +0.000 A 
ENDBRANCH  12  13
ENDBRANCH   9  12
ENDBRANCH   8   9
ENDBRANCH   1   8
BRANCH   6  19
ATOM     19  C   UNL     1      46.209   4.105  14.581  0.00  0.00    +0.000 C 
BRANCH  19  20
ATOM     20  N   UNL     1      47.279   4.564  15.426  0.00  0.00    +0.000 N 
ATOM     21  C   UNL     1      47.428   4.124  16.715  0.00  0.00    +0.000 C 
ATOM     22  O   UNL     1      46.662   3.312  17.224  0.00  0.00    +0.000 OA
ATOM     23  H   UNL     1      47.814   5.364  15.102  0.00  0.00    +0.000 HD
BRANCH  21  24
ATOM     24  C   UNL     1      48.607   4.614  17.440  0.00  0.00    +0.000 A 
ATOM     25  C   UNL     1      48.593   5.897  17.970  0.00  0.00    +0.000 A 
ATOM     26  S   UNL     1      50.029   6.317  18.785  0.00  0.00    +0.000 S 
ATOM     27  C   UNL     1      50.736   4.813  18.425  0.00  0.00    +0.000 A 
ATOM     28  N   UNL     1      52.012   4.532  18.807  0.00  0.00    +0.000 NA
ATOM     29  C   UNL     1      52.436   3.372  18.433  0.00  0.00    +0.000 A 
ATOM     30  N   UNL     1      51.695   2.457  17.732  0.00  0.00    +0.000 N 
ATOM     31  C   UNL     1      50.376   2.665  17.395  0.00  0.00    +0.000 A 
ATOM     32  O   UNL     1      49.698   1.774  16.895  0.00  0.00    +0.000 OA
ATOM     33  C   UNL     1      49.873   3.983  17.731  0.00  0.00    +0.000 A 
ATOM     34  H   UNL     1      52.074   1.551  17.505  0.00  0.00    +0.000 HD
ENDBRANCH  21  24
ENDBRANCH  19  20
ENDBRANCH   6  19
TORSDOF 7
ENDMDL
MODEL 2
REMARK VINA RESULT:    -8.986      0.957      1.160
REMARK INTER + INTRA:         -13.811
REMARK INTER:                 -12.659
REMARK INTRA:                  -1.152
REMARK UNBOUND:                -1.148
REMARK  Name = 
REMARK  8 active torsions:
REMARK  status: ('A' for Active; 'I' for Inactive)
REMARK    1  A    between atoms: C_1  and  C_2
REMARK    2  A    between atoms: C_2  and  N_3
REMARK    3  A    between atoms: C_2  and  C_26
REMARK    4  A    between atoms: N_3  and  C_4
REMARK    5  A    between atoms: C_4  and  C_5
REMARK    6  A    between atoms: C_10  and  C_11
REMARK    7  A    between atoms: C_11  and  N_12
REMARK    8  A    between atoms: C_13  and  C_15
REMARK                            x       y       z     vdW  Elec       q    Type
REMARK                         _______ _______ _______ _____ _____    ______ ____
ROOT
ATOM      1  C   UNL     1      44.984   5.341  11.465  0.00  0.00    +0.000 A 
ATOM      2  C   UNL     1      45.856   6.394  11.167  0.00  0.00    +0.000 A 
ATOM      3  C   UNL     1      46.946   6.646  11.993  0.00  0.00    +0.000 A 
ATOM      4  F   UNL     1      47.786   7.644  11.688  0.00  0.00    +0.000 F 
ATOM      5  C   UNL     1      47.199   5.861  13.112  0.00  0.00    +0.000 A 
ATOM      6  C   UNL     1      46.351   4.792  13.419  0.00  0.00    +0.000 A 
ATOM      7  C   UNL     1      45.233   4.556  12.604  0.00  0.00    +0.000 A 
ENDROOT
BRANCH   1   8
ATOM      8  C   UNL     1      43.862   4.968  10.526  0.00  0.00    +0.000 C 
BRANCH   8   9
ATOM      9  N   UNL     1      44.342   4.400   9.266  0.00  0.00    +0.000 NA
ATOM     10  H   UNL     1      44.978   5.065   8.827  0.00  0.00    +0.000 HD
BRANCH   9  12
ATOM     11  C   UNL     1      44.140   1.963   9.859  0.00  0.00    +0.000 C 
ATOM     12  C   UNL     1      45.058   3.129   9.456  0.00  0.00    +0.000 C 
BRANCH  12  13
ATOM     13  C   UNL     1      45.828   2.742   8.193  0.00  0.00    +0.000 A 
ATOM     14  C   UNL     1      46.054   3.694   7.182  0.00  0.00    +0.000 A 
ATOM     15  C   UNL     1      46.858   3.387   6.080  0.00  0.00    +0.000 A 
ATOM     16  C   UNL     1      47.436   2.126   5.968  0.00  0.00    +0.000 A 
ATOM     17  C   UNL     1      47.190   1.160   6.936  0.00  0.00    +0.000 A 
ATOM     18  C   UNL     1      46.386   1.466   8.040  0.00  0.00    +0.000 A 
ENDBRANCH  12  13
ENDBRANCH   9  12
ENDBRANCH   8   9
ENDBRANCH   1   8
BRANCH   6  19
ATOM     19  C   UNL     1      46.628   3.899  14.596  0.00  0.00    +0.000 C 
BRANCH  19  20
ATOM     20  N   UNL     1      47.205   4.632  15.693  0.00  0.00    +0.000 N 
ATOM     21  C   UNL     1      47.133   4.181  16.985  0.00  0.00    +0.000 C 
ATOM     22  O   UNL     1      46.577   3.129  17.284  0.00  0.00    +0.000 OA
ATOM     23  H   UNL     1      47.505   5.583  15.506  0.00  0.00    +0.000 HD
BRANCH  21  24
ATOM     24  C   UNL     1      47.829   4.987  17.996  0.00  0.00    +0.000 A 
ATOM     25  C   UNL     1      47.096   5.851  18.798  0.00  0.00    +0.000 A 
ATOM     26  S   UNL     1      48.043   6.710  19.924  0.00  0.00    +0.000 S 
ATOM     27  C   UNL     1      49.473   5.987  19.352  0.00  0.00    +0.000 A 
ATOM     28  N   UNL     1      50.683   6.328  19.873  0.00  0.00    +0.000 NA
ATOM     29  C   UNL     1      51.686   5.733  19.319  0.00  0.00    +0.000 A 
ATOM     30  N   UNL     1      51.590   4.813  18.308  0.00  0.00    +0.000 N 
ATOM     31  C   UNL     1      50.384   4.379  17.807  0.00  0.00    +0.000 A 
ATOM     32  O   UNL     1      50.323   3.454  17.005  0.00  0.00    +0.000 OA
ATOM     33  C   UNL     1      49.227   5.069  18.347  0.00  0.00    +0.000 A 
ATOM     34  H   UNL     1      52.413   4.356  17.947  0.00  0.00    +0.000 HD
ENDBRANCH  21  24
ENDBRANCH  19  20
ENDBRANCH   6  19
TORSDOF 7
ENDMDL
MODEL 3
REMARK VINA RESULT:    -8.536      2.041      2.862
REMARK INTER + INTRA:         -13.178
REMARK INTER:                 -11.816
REMARK INTRA:                  -1.362
REMARK UNBOUND:                -1.148
REMARK  Name = 
REMARK  8 active torsions:
REMARK  status: ('A' for Active; 'I' for Inactive)
REMARK    1  A    between atoms: C_1  and  C_2
REMARK    2  A    between atoms: C_2  and  N_3
REMARK    3  A    between atoms: C_2  and  C_26
REMARK    4  A    between atoms: N_3  and  C_4
REMARK    5  A    between atoms: C_4  and  C_5
REMARK    6  A    between atoms: C_10  and  C_11
REMARK    7  A    between atoms: C_11  and  N_12
REMARK    8  A    between atoms: C_13  and  C_15
REMARK                            x       y       z     vdW  Elec       q    Type
REMARK                         _______ _______ _______ _____ _____    ______ ____
ROOT
ATOM      1  C   UNL     1      44.963   6.346  11.283  0.00  0.00    +0.000 A 
ATOM      2  C   UNL     1      44.359   7.604  11.375  0.00  0.00    +0.000 A 
ATOM      3  C   UNL     1      45.104   8.701  11.796  0.00  0.00    +0.000 A 
ATOM      4  F   UNL     1      44.522   9.906  11.862  0.00  0.00    +0.000 F 
ATOM      5  C   UNL     1      46.451   8.577  12.117  0.00  0.00    +0.000 A 
ATOM      6  C   UNL     1      47.079   7.331  12.014  0.00  0.00    +0.000 A 
ATOM      7  C   UNL     1      46.321   6.218  11.621  0.00  0.00    +0.000 A 
ENDROOT
BRANCH   1   8
ATOM      8  C   UNL     1      44.214   5.162  10.718  0.00  0.00    +0.000 C 
BRANCH   8   9
ATOM      9  N   UNL     1      44.791   4.670   9.467  0.00  0.00    +0.000 NA
ATOM     10  H   UNL     1      45.590   5.254   9.221  0.00  0.00    +0.000 HD
BRANCH   9  12
ATOM     11  C   UNL     1      44.131   2.286   9.928  0.00  0.00    +0.000 C 
ATOM     12  C   UNL     1      45.251   3.276   9.568  0.00  0.00    +0.000 C 
BRANCH  12  13
ATOM     13  C   UNL     1      45.915   2.825   8.266  0.00  0.00    +0.000 A 
ATOM     14  C   UNL     1      46.134   3.746   7.226  0.00  0.00    +0.000 A 
ATOM     15  C   UNL     1      46.847   3.375   6.082  0.00  0.00    +0.000 A 
ATOM     16  C   UNL     1      47.338   2.080   5.957  0.00  0.00    +0.000 A 
ATOM     17  C   UNL     1      47.096   1.143   6.956  0.00  0.00    +0.000 A 
ATOM     18  C   UNL     1      46.384   1.515   8.101  0.00  0.00    +0.000 A 
ENDBRANCH  12  13
ENDBRANCH   9  12
ENDBRANCH   8   9
ENDBRANCH   1   8
BRANCH   6  19
ATOM     19  C   UNL     1      48.545   7.178  12.312  0.00  0.00    +0.000 C 
BRANCH  19  20
ATOM     20  N   UNL     1      48.765   6.544  13.585  0.00  0.00    +0.000 N 
ATOM     21  C   UNL     1      48.855   7.262  14.748  0.00  0.00    +0.000 C 
ATOM     22  O   UNL     1      48.751   8.484  14.776  0.00  0.00    +0.000 OA
ATOM     23  H   UNL     1      49.036   5.566  13.573  0.00  0.00    +0.000 HD
BRANCH  21  24
ATOM     24  C   UNL     1      49.004   6.484  15.985  0.00  0.00    +0.000 A 
ATOM     25  C   UNL     1      49.899   6.916  16.954  0.00  0.00    +0.000 A 
ATOM     26  S   UNL     1      49.955   5.912  18.331  0.00  0.00    +0.000 S 
ATOM     27  C   UNL     1      48.814   4.843  17.662  0.00  0.00    +0.000 A 
ATOM     28  N   UNL     1      48.441   3.716  18.327  0.00  0.00    +0.000 NA
ATOM     29  C   UNL     1      47.600   2.974  17.687  0.00  0.00    +0.000 A 
ATOM     30  N   UNL     1      47.080   3.267  16.453  0.00  0.00    +0.000 N 
ATOM     31  C   UNL     1      47.367   4.433  15.780  0.00  0.00    +0.000 A 
ATOM     32  O   UNL     1      46.778   4.733  14.747  0.00  0.00    +0.000 OA
ATOM     33  C   UNL     1      48.362   5.268  16.425  0.00  0.00    +0.000 A 
ATOM     34  H   UNL     1      46.396   2.662  16.025  0.00  0.00    +0.000 HD
ENDBRANCH  21  24
ENDBRANCH  19  20
ENDBRANCH   6  19
TORSDOF 7
ENDMDL
MODEL 4
REMARK VINA RESULT:    -8.280      1.985      2.307
REMARK INTER + INTRA:         -12.817
REMARK INTER:                 -11.751
REMARK INTRA:                  -1.066
REMARK UNBOUND:                -1.148
REMARK  Name = 
REMARK  8 active torsions:
REMARK  status: ('A' for Active; 'I' for Inactive)
REMARK    1  A    between atoms: C_1  and  C_2
REMARK    2  A    between atoms: C_2  and  N_3
REMARK    3  A    between atoms: C_2  and  C_26
REMARK    4  A    between atoms: N_3  and  C_4
REMARK    5  A    between atoms: C_4  and  C_5
REMARK    6  A    between atoms: C_10  and  C_11
REMARK    7  A    between atoms: C_11  and  N_12
REMARK    8  A    between atoms: C_13  and  C_15
REMARK                            x       y       z     vdW  Elec       q    Type
REMARK                         _______ _______ _______ _____ _____    ______ ____
ROOT
ATOM      1  C   UNL     1      44.527   6.084  11.432  0.00  0.00    +0.000 A 
ATOM      2  C   UNL     1      44.310   7.466  11.418  0.00  0.00    +0.000 A 
ATOM      3  C   UNL     1      45.236   8.319  12.010  0.00  0.00    +0.000 A 
ATOM      4  F   UNL     1      45.030   9.642  11.975  0.00  0.00    +0.000 F 
ATOM      5  C   UNL     1      46.390   7.825  12.610  0.00  0.00    +0.000 A 
ATOM      6  C   UNL     1      46.635   6.448  12.618  0.00  0.00    +0.000 A 
ATOM      7  C   UNL     1      45.687   5.585  12.050  0.00  0.00    +0.000 A 
ENDROOT
BRANCH   1   8
ATOM      8  C   UNL     1      43.604   5.143  10.696  0.00  0.00    +0.000 C 
BRANCH   8   9
ATOM      9  N   UNL     1      44.203   4.593   9.481  0.00  0.00    +0.000 NA
ATOM     10  H   UNL     1      44.863   5.273   9.103  0.00  0.00    +0.000 HD
BRANCH   9  12
ATOM     11  C   UNL     1      44.021   2.199  10.234  0.00  0.00    +0.000 C 
ATOM     12  C   UNL     1      44.926   3.335   9.727  0.00  0.00    +0.000 C 
BRANCH  12  13
ATOM     13  C   UNL     1      45.652   2.867   8.465  0.00  0.00    +0.000 A 
ATOM     14  C   UNL     1      45.956   3.783   7.442  0.00  0.00    +0.000 A 
ATOM     15  C   UNL     1      46.724   3.393   6.340  0.00  0.00    +0.000 A 
ATOM     16  C   UNL     1      47.188   2.085   6.242  0.00  0.00    +0.000 A 
ATOM     17  C   UNL     1      46.863   1.156   7.223  0.00  0.00    +0.000 A 
ATOM     18  C   UNL     1      46.095   1.545   8.326  0.00  0.00    +0.000 A 
ENDBRANCH  12  13
ENDBRANCH   9  12
ENDBRANCH   8   9
ENDBRANCH   1   8
BRANCH   6  19
ATOM     19  C   UNL     1      47.897   5.893  13.219  0.00  0.00    +0.000 C 
BRANCH  19  20
ATOM     20  N   UNL     1      47.899   6.013  14.653  0.00  0.00    +0.000 N 
ATOM     21  C   UNL     1      48.953   6.563  15.335  0.00  0.00    +0.000 C 
ATOM     22  O   UNL     1      49.954   6.987  14.765  0.00  0.00    +0.000 OA
ATOM     23  H   UNL     1      47.177   5.511  15.160  0.00  0.00    +0.000 HD
BRANCH  21  24
ATOM     24  C   UNL     1      48.793   6.695  16.788  0.00  0.00    +0.000 A 
ATOM     25  C   UNL     1      48.659   7.960  17.344  0.00  0.00    +0.000 A 
ATOM     26  S   UNL     1      48.477   7.948  19.038  0.00  0.00    +0.000 S 
ATOM     27  C   UNL     1      48.611   6.253  19.093  0.00  0.00    +0.000 A 
ATOM     28  N   UNL     1      48.583   5.590  20.281  0.00  0.00    +0.000 NA
ATOM     29  C   UNL     1      48.736   4.313  20.180  0.00  0.00    +0.000 A 
ATOM     30  N   UNL     1      48.893   3.634  19.000  0.00  0.00    +0.000 N 
ATOM     31  C   UNL     1      48.848   4.254  17.772  0.00  0.00    +0.000 A 
ATOM     32  O   UNL     1      48.848   3.606  16.730  0.00  0.00    +0.000 OA
ATOM     33  C   UNL     1      48.748   5.700  17.833  0.00  0.00    +0.000 A 
ATOM     34  H   UNL     1      48.969   2.629  18.989  0.00  0.00    +0.000 HD
ENDBRANCH  21  24
ENDBRANCH  19  20
ENDBRANCH   6  19
TORSDOF 7
ENDMDL
MODEL 5
REMARK VINA RESULT:    -7.976      3.841      9.386
REMARK INTER + INTRA:         -12.388
REMARK INTER:                 -10.792
REMARK INTRA:                  -1.597
REMARK UNBOUND:                -1.148
REMARK  Name = 
REMARK  8 active torsions:
REMARK  status: ('A' for Active; 'I' for Inactive)
REMARK    1  A    between atoms: C_1  and  C_2
REMARK    2  A    between atoms: C_2  and  N_3
REMARK    3  A    between atoms: C_2  and  C_26
REMARK    4  A    between atoms: N_3  and  C_4
REMARK    5  A    between atoms: C_4  and  C_5
REMARK    6  A    between atoms: C_10  and  C_11
REMARK    7  A    between atoms: C_11  and  N_12
REMARK    8  A    between atoms: C_13  and  C_15
REMARK                            x       y       z     vdW  Elec       q    Type
REMARK                         _______ _______ _______ _____ _____    ______ ____
ROOT
ATOM      1  C   UNL     1      49.312   5.027  19.030  0.00  0.00    +0.000 A 
ATOM      2  C   UNL     1      48.531   3.870  18.946  0.00  0.00    +0.000 A 
ATOM      3  C   UNL     1      47.799   3.610  17.792  0.00  0.00    +0.000 A 
ATOM      4  F   UNL     1      47.069   2.490  17.713  0.00  0.00    +0.000 F 
ATOM      5  C   UNL     1      47.837   4.476  16.705  0.00  0.00    +0.000 A 
ATOM      6  C   UNL     1      48.626   5.630  16.760  0.00  0.00    +0.000 A 
ATOM      7  C   UNL     1      49.339   5.909  17.936  0.00  0.00    +0.000 A 
ENDROOT
BRANCH   1   8
ATOM      8  C   UNL     1      50.209   5.278  20.219  0.00  0.00    +0.000 C 
BRANCH   8   9
ATOM      9  N   UNL     1      51.381   4.403  20.241  0.00  0.00    +0.000 NA
ATOM     10  H   UNL     1      51.068   3.436  20.320  0.00  0.00    +0.000 HD
BRANCH   9  12
ATOM     11  C   UNL     1      53.487   5.342  19.234  0.00  0.00    +0.000 C 
ATOM     12  C   UNL     1      52.200   4.526  19.025  0.00  0.00    +0.000 C 
BRANCH  12  13
ATOM     13  C   UNL     1      52.568   3.148  18.473  0.00  0.00    +0.000 A 
ATOM     14  C   UNL     1      53.820   2.579  18.767  0.00  0.00    +0.000 A 
ATOM     15  C   UNL     1      54.121   1.272  18.369  0.00  0.00    +0.000 A 
ATOM     16  C   UNL     1      53.183   0.525  17.665  0.00  0.00    +0.000 A 
ATOM     17  C   UNL     1      51.956   1.085  17.329  0.00  0.00    +0.000 A 
ATOM     18  C   UNL     1      51.654   2.392  17.728  0.00  0.00    +0.000 A 
ENDBRANCH  12  13
ENDBRANCH   9  12
ENDBRANCH   8   9
ENDBRANCH   1   8
BRANCH   6  19
ATOM     19  C   UNL     1      48.720   6.558  15.582  0.00  0.00    +0.000 C 
BRANCH  19  20
ATOM     20  N   UNL     1      47.552   6.475  14.746  0.00  0.00    +0.000 N 
ATOM     21  C   UNL     1      47.631   6.154  13.416  0.00  0.00    +0.000 C 
ATOM     22  O   UNL     1      48.699   5.918  12.860  0.00  0.00    +0.000 OA
ATOM     23  H   UNL     1      46.685   6.841  15.126  0.00  0.00    +0.000 HD
BRANCH  21  24
ATOM     24  C   UNL     1      46.356   6.029  12.698  0.00  0.00    +0.000 A 
ATOM     25  C   UNL     1      45.789   7.157  12.120  0.00  0.00    +0.000 A 
ATOM     26  S   UNL     1      44.316   6.849  11.320  0.00  0.00    +0.000 S 
ATOM     27  C   UNL     1      44.365   5.205  11.752  0.00  0.00    +0.000 A 
ATOM     28  N   UNL     1      43.352   4.363  11.408  0.00  0.00    +0.000 NA
ATOM     29  C   UNL     1      43.498   3.154  11.835  0.00  0.00    +0.000 A 
ATOM     30  N   UNL     1      44.574   2.702  12.553  0.00  0.00    +0.000 N 
ATOM     31  C   UNL     1      45.657   3.496  12.854  0.00  0.00    +0.000 A 
ATOM     32  O   UNL     1      46.665   3.029  13.373  0.00  0.00    +0.000 OA
ATOM     33  C   UNL     1      45.510   4.884  12.458  0.00  0.00    +0.000 A 
ATOM     34  H   UNL     1      44.644   1.733  12.823  0.00  0.00    +0.000 HD
ENDBRANCH  21  24
ENDBRANCH  19  20
ENDBRANCH   6  19
TORSDOF 7
ENDMDL
MODEL 6
REMARK VINA RESULT:    -7.893      2.681      3.765
REMARK INTER + INTRA:         -12.271
REMARK INTER:                 -11.472
REMARK INTRA:                  -0.800
REMARK UNBOUND:                -1.148
REMARK  Name = 
REMARK  8 active torsions:
REMARK  status: ('A' for Active; 'I' for Inactive)
REMARK    1  A    between atoms: C_1  and  C_2
REMARK    2  A    between atoms: C_2  and  N_3
REMARK    3  A    between atoms: C_2  and  C_26
REMARK    4  A    between atoms: N_3  and  C_4
REMARK    5  A    between atoms: C_4  and  C_5
REMARK    6  A    between atoms: C_10  and  C_11
REMARK    7  A    between atoms: C_11  and  N_12
REMARK    8  A    between atoms: C_13  and  C_15
REMARK                            x       y       z     vdW  Elec       q    Type
REMARK                         _______ _______ _______ _____ _____    ______ ____
ROOT
ATOM      1  C   UNL     1      44.949   5.040  12.236  0.00  0.00    +0.000 A 
ATOM      2  C   UNL     1      44.395   6.239  11.777  0.00  0.00    +0.000 A 
ATOM      3  C   UNL     1      45.026   7.447  12.058  0.00  0.00    +0.000 A 
ATOM      4  F   UNL     1      44.497   8.589  11.598  0.00  0.00    +0.000 F 
ATOM      5  C   UNL     1      46.213   7.488  12.781  0.00  0.00    +0.000 A 
ATOM      6  C   UNL     1      46.794   6.299  13.233  0.00  0.00    +0.000 A 
ATOM      7  C   UNL     1      46.142   5.084  12.978  0.00  0.00    +0.000 A 
ENDROOT
BRANCH   1   8
ATOM      8  C   UNL     1      44.355   3.707  11.847  0.00  0.00    +0.000 C 
BRANCH   8   9
ATOM      9  N   UNL     1      45.178   2.977  10.884  0.00  0.00    +0.000 NA
ATOM     10  H   UNL     1      45.281   2.014  11.202  0.00  0.00    +0.000 HD
BRANCH   9  12
ATOM     11  C   UNL     1      43.920   4.287   9.141  0.00  0.00    +0.000 C 
ATOM     12  C   UNL     1      44.587   2.959   9.536  0.00  0.00    +0.000 C 
BRANCH  12  13
ATOM     13  C   UNL     1      45.636   2.596   8.484  0.00  0.00    +0.000 A 
ATOM     14  C   UNL     1      46.100   1.273   8.374  0.00  0.00    +0.000 A 
ATOM     15  C   UNL     1      46.967   0.904   7.341  0.00  0.00    +0.000 A 
ATOM     16  C   UNL     1      47.389   1.852   6.415  0.00  0.00    +0.000 A 
ATOM     17  C   UNL     1      46.974   3.174   6.532  0.00  0.00    +0.000 A 
ATOM     18  C   UNL     1      46.106   3.542   7.565  0.00  0.00    +0.000 A 
ENDBRANCH  12  13
ENDBRANCH   9  12
ENDBRANCH   8   9
ENDBRANCH   1   8
BRANCH   6  19
ATOM     19  C   UNL     1      48.101   6.313  13.977  0.00  0.00    +0.000 C 
BRANCH  19  20
ATOM     20  N   UNL     1      47.901   6.381  15.400  0.00  0.00    +0.000 N 
ATOM     21  C   UNL     1      48.942   6.282  16.285  0.00  0.00    +0.000 C 
ATOM     22  O   UNL     1      50.104   6.132  15.920  0.00  0.00    +0.000 OA
ATOM     23  H   UNL     1      46.946   6.320  15.736  0.00  0.00    +0.000 HD
BRANCH  21  24
ATOM     24  C   UNL     1      48.608   6.445  17.706  0.00  0.00    +0.000 A 
ATOM     25  C   UNL     1      48.723   5.355  18.559  0.00  0.00    +0.000 A 
ATOM     26  S   UNL     1      48.305   5.703  20.174  0.00  0.00    +0.000 S 
ATOM     27  C   UNL     1      47.918   7.312  19.782  0.00  0.00    +0.000 A 
ATOM     28  N   UNL     1      47.439   8.164  20.729  0.00  0.00    +0.000 NA
ATOM     29  C   UNL     1      47.147   9.341  20.287  0.00  0.00    +0.000 A 
ATOM     30  N   UNL     1      47.311   9.752  18.990  0.00  0.00    +0.000 N 
ATOM     31  C   UNL     1      47.866   8.951  18.018  0.00  0.00    +0.000 A 
ATOM     32  O   UNL     1      48.132   9.391  16.904  0.00  0.00    +0.000 OA
ATOM     33  C   UNL     1      48.146   7.594  18.447  0.00  0.00    +0.000 A 
ATOM     34  H   UNL     1      47.100  10.700  18.718  0.00  0.00    +0.000 HD
ENDBRANCH  21  24
ENDBRANCH  19  20
ENDBRANCH   6  19
TORSDOF 7
ENDMDL
MODEL 7
REMARK VINA RESULT:    -7.885      3.916      9.875
REMARK INTER + INTRA:         -12.260
REMARK INTER:                 -10.065
REMARK INTRA:                  -2.195
REMARK UNBOUND:                -1.148
REMARK  Name = 
REMARK  8 active torsions:
REMARK  status: ('A' for Active; 'I' for Inactive)
REMARK    1  A    between atoms: C_1  and  C_2
REMARK    2  A    between atoms: C_2  and  N_3
REMARK    3  A    between atoms: C_2  and  C_26
REMARK    4  A    between atoms: N_3  and  C_4
REMARK    5  A    between atoms: C_4  and  C_5
REMARK    6  A    between atoms: C_10  and  C_11
REMARK    7  A    between atoms: C_11  and  N_12
REMARK    8  A    between atoms: C_13  and  C_15
REMARK                            x       y       z     vdW  Elec       q    Type
REMARK                         _______ _______ _______ _____ _____    ______ ____
ROOT
ATOM      1  C   UNL     1      49.887   4.318  18.007  0.00  0.00    +0.000 A 
ATOM      2  C   UNL     1      48.902   3.353  18.239  0.00  0.00    +0.000 A 
ATOM      3  C   UNL     1      47.728   3.369  17.492  0.00  0.00    +0.000 A 
ATOM      4  F   UNL     1      46.798   2.428  17.707  0.00  0.00    +0.000 F 
ATOM      5  C   UNL     1      47.516   4.323  16.503  0.00  0.00    +0.000 A 
ATOM      6  C   UNL     1      48.496   5.286  16.243  0.00  0.00    +0.000 A 
ATOM      7  C   UNL     1      49.666   5.291  17.017  0.00  0.00    +0.000 A 
ENDROOT
BRANCH   1   8
ATOM      8  C   UNL     1      51.219   4.258  18.717  0.00  0.00    +0.000 C 
BRANCH   8   9
ATOM      9  N   UNL     1      51.095   4.371  20.170  0.00  0.00    +0.000 NA
ATOM     10  H   UNL     1      51.830   3.816  20.607  0.00  0.00    +0.000 HD
BRANCH   9  12
ATOM     11  C   UNL     1      52.338   6.546  19.935  0.00  0.00    +0.000 C 
ATOM     12  C   UNL     1      51.221   5.759  20.641  0.00  0.00    +0.000 C 
BRANCH  12  13
ATOM     13  C   UNL     1      49.901   6.513  20.477  0.00  0.00    +0.000 A 
ATOM     14  C   UNL     1      49.861   7.723  19.760  0.00  0.00    +0.000 A 
ATOM     15  C   UNL     1      48.642   8.359  19.502  0.00  0.00    +0.000 A 
ATOM     16  C   UNL     1      47.454   7.803  19.964  0.00  0.00    +0.000 A 
ATOM     17  C   UNL     1      47.478   6.630  20.710  0.00  0.00    +0.000 A 
ATOM     18  C   UNL     1      48.697   5.993  20.969  0.00  0.00    +0.000 A 
ENDBRANCH  12  13
ENDBRANCH   9  12
ENDBRANCH   8   9
ENDBRANCH   1   8
BRANCH   6  19
ATOM     19  C   UNL     1      48.311   6.300  15.148  0.00  0.00    +0.000 C 
BRANCH  19  20
ATOM     20  N   UNL     1      47.107   6.058  14.399  0.00  0.00    +0.000 N 
ATOM     21  C   UNL     1      46.975   6.442  13.091  0.00  0.00    +0.000 C 
ATOM     22  O   UNL     1      47.874   7.012  12.480  0.00  0.00    +0.000 OA
ATOM     23  H   UNL     1      46.289   5.760  14.922  0.00  0.00    +0.000 HD
BRANCH  21  24
ATOM     24  C   UNL     1      45.722   6.066  12.423  0.00  0.00    +0.000 A 
ATOM     25  C   UNL     1      44.960   7.050  11.806  0.00  0.00    +0.000 A 
ATOM     26  S   UNL     1      43.541   6.457  11.072  0.00  0.00    +0.000 S 
ATOM     27  C   UNL     1      43.875   4.870  11.588  0.00  0.00    +0.000 A 
ATOM     28  N   UNL     1      43.009   3.854  11.322  0.00  0.00    +0.000 NA
ATOM     29  C   UNL     1      43.366   2.712  11.806  0.00  0.00    +0.000 A 
ATOM     30  N   UNL     1      44.519   2.487  12.512  0.00  0.00    +0.000 N 
ATOM     31  C   UNL     1      45.461   3.466  12.734  0.00  0.00    +0.000 A 
ATOM     32  O   UNL     1      46.545   3.203  13.243  0.00  0.00    +0.000 OA
ATOM     33  C   UNL     1      45.075   4.785  12.271  0.00  0.00    +0.000 A 
ATOM     34  H   UNL     1      44.757   1.560  12.829  0.00  0.00    +0.000 HD
ENDBRANCH  21  24
ENDBRANCH  19  20
ENDBRANCH   6  19
TORSDOF 7
ENDMDL
MODEL 8
REMARK VINA RESULT:    -7.864      4.314      5.352
REMARK INTER + INTRA:         -12.230
REMARK INTER:                 -10.830
REMARK INTRA:                  -1.400
REMARK UNBOUND:                -1.148
REMARK  Name = 
REMARK  8 active torsions:
REMARK  status: ('A' for Active; 'I' for Inactive)
REMARK    1  A    between atoms: C_1  and  C_2
REMARK    2  A    between atoms: C_2  and  N_3
REMARK    3  A    between atoms: C_2  and  C_26
REMARK    4  A    between atoms: N_3  and  C_4
REMARK    5  A    between atoms: C_4  and  C_5
REMARK    6  A    between atoms: C_10  and  C_11
REMARK    7  A    between atoms: C_11  and  N_12
REMARK    8  A    between atoms: C_13  and  C_15
REMARK                            x       y       z     vdW  Elec       q    Type
REMARK                         _______ _______ _______ _____ _____    ______ ____
ROOT
ATOM      1  C   UNL     1      45.041   4.086  12.058  0.00  0.00    +0.000 A 
ATOM      2  C   UNL     1      45.937   3.479  12.944  0.00  0.00    +0.000 A 
ATOM      3  C   UNL     1      46.741   4.264  13.764  0.00  0.00    +0.000 A 
ATOM      4  F   UNL     1      47.582   3.673  14.623  0.00  0.00    +0.000 F 
ATOM      5  C   UNL     1      46.665   5.652  13.731  0.00  0.00    +0.000 A 
ATOM      6  C   UNL     1      45.763   6.280  12.865  0.00  0.00    +0.000 A 
ATOM      7  C   UNL     1      44.975   5.489  12.016  0.00  0.00    +0.000 A 
ENDROOT
BRANCH   1   8
ATOM      8  C   UNL     1      44.072   3.263  11.242  0.00  0.00    +0.000 C 
BRANCH   8   9
ATOM      9  N   UNL     1      44.740   2.398  10.271  0.00  0.00    +0.000 NA
ATOM     10  H   UNL     1      44.386   1.447  10.379  0.00  0.00    +0.000 HD
BRANCH   9  12
ATOM     11  C   UNL     1      44.123   4.307   8.752  0.00  0.00    +0.000 C 
ATOM     12  C   UNL     1      44.507   2.823   8.882  0.00  0.00    +0.000 C 
BRANCH  12  13
ATOM     13  C   UNL     1      45.735   2.549   8.013  0.00  0.00    +0.000 A 
ATOM     14  C   UNL     1      46.355   1.286   8.042  0.00  0.00    +0.000 A 
ATOM     15  C   UNL     1      47.403   0.985   7.166  0.00  0.00    +0.000 A 
ATOM     16  C   UNL     1      47.850   1.942   6.261  0.00  0.00    +0.000 A 
ATOM     17  C   UNL     1      47.277   3.208   6.245  0.00  0.00    +0.000 A 
ATOM     18  C   UNL     1      46.229   3.510   7.121  0.00  0.00    +0.000 A 
ENDBRANCH  12  13
ENDBRANCH   9  12
ENDBRANCH   8   9
ENDBRANCH   1   8
BRANCH   6  19
ATOM     19  C   UNL     1      45.629   7.777  12.844  0.00  0.00    +0.000 C 
BRANCH  19  20
ATOM     20  N   UNL     1      46.823   8.410  12.351  0.00  0.00    +0.000 N 
ATOM     21  C   UNL     1      47.649   9.138  13.166  0.00  0.00    +0.000 C 
ATOM     22  O   UNL     1      47.423   9.292  14.362  0.00  0.00    +0.000 OA
ATOM     23  H   UNL     1      46.939   8.456  11.344  0.00  0.00    +0.000 HD
BRANCH  21  24
ATOM     24  C   UNL     1      48.874   9.665  12.551  0.00  0.00    +0.000 A 
ATOM     25  C   UNL     1      49.104  11.035  12.562  0.00  0.00    +0.000 A 
ATOM     26  S   UNL     1      50.566  11.490  11.815  0.00  0.00    +0.000 S 
ATOM     27  C   UNL     1      50.925   9.876  11.416  0.00  0.00    +0.000 A 
ATOM     28  N   UNL     1      52.047   9.565  10.710  0.00  0.00    +0.000 NA
ATOM     29  C   UNL     1      52.174   8.310  10.440  0.00  0.00    +0.000 A 
ATOM     30  N   UNL     1      51.296   7.332  10.831  0.00  0.00    +0.000 N 
ATOM     31  C   UNL     1      50.193   7.589  11.612  0.00  0.00    +0.000 A 
ATOM     32  O   UNL     1      49.506   6.680  12.064  0.00  0.00    +0.000 OA
ATOM     33  C   UNL     1      49.966   8.996  11.884  0.00  0.00    +0.000 A 
ATOM     34  H   UNL     1      51.476   6.363  10.620  0.00  0.00    +0.000 HD
ENDBRANCH  21  24
ENDBRANCH  19  20
ENDBRANCH   6  19
TORSDOF 7
ENDMDL
MODEL 9
REMARK VINA RESULT:    -7.817      4.243      9.004
REMARK INTER + INTRA:         -12.164
REMARK INTER:                  -9.688
REMARK INTRA:                  -2.476
REMARK UNBOUND:                -1.148
REMARK  Name = 
REMARK  8 active torsions:
REMARK  status: ('A' for Active; 'I' for Inactive)
REMARK    1  A    between atoms: C_1  and  C_2
REMARK    2  A    between atoms: C_2  and  N_3
REMARK    3  A    between atoms: C_2  and  C_26
REMARK    4  A    between atoms: N_3  and  C_4
REMARK    5  A    between atoms: C_4  and  C_5
REMARK    6  A    between atoms: C_10  and  C_11
REMARK    7  A    between atoms: C_11  and  N_12
REMARK    8  A    between atoms: C_13  and  C_15
REMARK                            x       y       z     vdW  Elec       q    Type
REMARK                         _______ _______ _______ _____ _____    ______ ____
ROOT
ATOM      1  C   UNL     1      48.291   5.898  19.209  0.00  0.00    +0.000 A 
ATOM      2  C   UNL     1      49.591   5.502  19.538  0.00  0.00    +0.000 A 
ATOM      3  C   UNL     1      50.175   4.425  18.879  0.00  0.00    +0.000 A 
ATOM      4  F   UNL     1      51.428   4.065  19.188  0.00  0.00    +0.000 F 
ATOM      5  C   UNL     1      49.494   3.735  17.883  0.00  0.00    +0.000 A 
ATOM      6  C   UNL     1      48.200   4.126  17.525  0.00  0.00    +0.000 A 
ATOM      7  C   UNL     1      47.598   5.192  18.211  0.00  0.00    +0.000 A 
ENDROOT
BRANCH   1   8
ATOM      8  C   UNL     1      47.675   7.134  19.821  0.00  0.00    +0.000 C 
BRANCH   8   9
ATOM      9  N   UNL     1      47.119   8.046  18.821  0.00  0.00    +0.000 NA
ATOM     10  H   UNL     1      46.322   8.533  19.228  0.00  0.00    +0.000 HD
BRANCH   9  12
ATOM     11  C   UNL     1      48.879   9.703  19.521  0.00  0.00    +0.000 C 
ATOM     12  C   UNL     1      48.095   9.051  18.370  0.00  0.00    +0.000 C 
BRANCH  12  13
ATOM     13  C   UNL     1      49.086   8.442  17.376  0.00  0.00    +0.000 A 
ATOM     14  C   UNL     1      50.460   8.413  17.674  0.00  0.00    +0.000 A 
ATOM     15  C   UNL     1      51.360   7.754  16.830  0.00  0.00    +0.000 A 
ATOM     16  C   UNL     1      50.900   7.127  15.676  0.00  0.00    +0.000 A 
ATOM     17  C   UNL     1      49.551   7.180  15.344  0.00  0.00    +0.000 A 
ATOM     18  C   UNL     1      48.651   7.839  16.188  0.00  0.00    +0.000 A 
ENDBRANCH  12  13
ENDBRANCH   9  12
ENDBRANCH   8   9
ENDBRANCH   1   8
BRANCH   6  19
ATOM     19  C   UNL     1      47.460   3.427  16.419  0.00  0.00    +0.000 C 
BRANCH  19  20
ATOM     20  N   UNL     1      46.816   4.363  15.536  0.00  0.00    +0.000 N 
ATOM     21  C   UNL     1      46.875   4.234  14.173  0.00  0.00    +0.000 C 
ATOM     22  O   UNL     1      47.476   3.315  13.625  0.00  0.00    +0.000 OA
ATOM     23  H   UNL     1      46.473   5.225  15.947  0.00  0.00    +0.000 HD
BRANCH  21  24
ATOM     24  C   UNL     1      46.110   5.214  13.391  0.00  0.00    +0.000 A 
ATOM     25  C   UNL     1      46.613   6.499  13.236  0.00  0.00    +0.000 A 
ATOM     26  S   UNL     1      45.616   7.517  12.301  0.00  0.00    +0.000 S 
ATOM     27  C   UNL     1      44.457   6.287  12.104  0.00  0.00    +0.000 A 
ATOM     28  N   UNL     1      43.302   6.520  11.423  0.00  0.00    +0.000 NA
ATOM     29  C   UNL     1      42.495   5.514  11.386  0.00  0.00    +0.000 A 
ATOM     30  N   UNL     1      42.745   4.289  11.946  0.00  0.00    +0.000 N 
ATOM     31  C   UNL     1      43.932   3.984  12.574  0.00  0.00    +0.000 A 
ATOM     32  O   UNL     1      44.184   2.841  12.939  0.00  0.00    +0.000 OA
ATOM     33  C   UNL     1      44.845   5.103  12.705  0.00  0.00    +0.000 A 
ATOM     34  H   UNL     1      42.087   3.531  11.846  0.00  0.00    +0.000 HD
ENDBRANCH  21  24
ENDBRANCH  19  20
ENDBRANCH   6  19
TORSDOF 7
ENDMDL
