MODEL 1
REMARK VINA RESULT:    -9.201      0.000      0.000
REMARK INTER + INTRA:         -12.647
REMARK INTER:                 -11.891
REMARK INTRA:                  -0.756
REMARK UNBOUND:                -0.756
REMARK  Name = 
REMARK  5 active torsions:
REMARK  status: ('A' for Active; 'I' for Inactive)
REMARK    1  A    between atoms: C_2  and  C_4
REMARK    2  A    between atoms: N_8  and  C_9
REMARK    3  A    between atoms: C_9  and  C_10
REMARK    4  A    between atoms: C_12  and  C_13
REMARK    5  A    between atoms: C_17  and  C_18
REMARK                            x       y       z     vdW  Elec       q    Type
REMARK                         _______ _______ _______ _____ _____    ______ ____
ROOT
ATOM      1  C   UNL     1      43.897   4.817  11.394  0.00  0.00    +0.000 C 
ATOM      2  C   UNL     1      42.605   5.123  12.147  0.00  0.00    +0.000 C 
ATOM      3  C   UNL     1      43.030   6.008  11.022  0.00  0.00    +0.000 C 
ENDROOT
BRANCH   1   8
ATOM      4  C   UNL     1      46.435   2.633   7.536  0.00  0.00    +0.000 A 
ATOM      5  C   UNL     1      45.922   1.696   8.397  0.00  0.00    +0.000 A 
ATOM      6  N   UNL     1      45.121   2.003   9.440  0.00  0.00    +0.000 NA
ATOM      7  C   UNL     1      44.847   3.304   9.643  0.00  0.00    +0.000 A 
ATOM      8  N   UNL     1      43.896   3.565  10.624  0.00  0.00    +0.000 N 
ATOM      9  N   UNL     1      45.373   4.296   8.904  0.00  0.00    +0.000 NA
ATOM     10  C   UNL     1      46.153   3.939   7.857  0.00  0.00    +0.000 A 
ATOM     11  H   UNL     1      43.767   2.710  11.156  0.00  0.00    +0.000 HD
BRANCH   4  13
ATOM     12  N   UNL     1      47.182   3.180   5.297  0.00  0.00    +0.000 N 
ATOM     13  C   UNL     1      47.226   2.304   6.345  0.00  0.00    +0.000 C 
ATOM     14  O   UNL     1      47.940   1.310   6.316  0.00  0.00    +0.000 OA
ATOM     15  H   UNL     1      47.831   3.000   4.538  0.00  0.00    +0.000 HD
ATOM     16  H   UNL     1      46.832   4.125   5.378  0.00  0.00    +0.000 HD
ENDBRANCH   4  13
ENDBRANCH   1   8
BRANCH   1  17
ATOM     17  C   UNL     1      45.208   5.098  12.137  0.00  0.00    +0.000 A 
ATOM     18  C   UNL     1      46.094   6.080  11.679  0.00  0.00    +0.000 A 
ATOM     19  C   UNL     1      47.211   6.457  12.439  0.00  0.00    +0.000 A 
ATOM     20  C   UNL     1      47.417   5.754  13.634  0.00  0.00    +0.000 A 
ATOM     21  C   UNL     1      46.540   4.749  13.997  0.00  0.00    +0.000 A 
ATOM     22  N   UNL     1      45.456   4.408  13.281  0.00  0.00    +0.000 NA
BRANCH  19  23
ATOM     23  C   UNL     1      48.083   7.596  12.058  0.00  0.00    +0.000 A 
ATOM     24  C   UNL     1      47.660   8.930  12.204  0.00  0.00    +0.000 A 
ATOM     25  C   UNL     1      48.521  10.005  11.955  0.00  0.00    +0.000 A 
ATOM     26  C   UNL     1      49.839   9.774  11.575  0.00  0.00    +0.000 A 
ATOM     27  C   UNL     1      50.299   8.463  11.410  0.00  0.00    +0.000 A 
ATOM     28  C   UNL     1      49.405   7.395  11.617  0.00  0.00    +0.000 A 
BRANCH  27  29
ATOM     29  C   UNL     1      51.737   8.169  11.066  0.00  0.00    +0.000 C 
ATOM     30  F   UNL     1      52.559   8.108  12.149  0.00  0.00    +0.000 F 
ATOM     31  F   UNL     1      51.876   6.974  10.426  0.00  0.00    +0.000 F 
ATOM     32  F   UNL     1      52.279   9.101  10.234  0.00  0.00    +0.000 F 
ENDBRANCH  27  29
ENDBRANCH  19  23
ENDBRANCH   1  17
TORSDOF 5
ENDMDL
MODEL 2
REMARK VINA RESULT:    -8.715      2.063      2.508
REMARK INTER + INTRA:         -12.018
REMARK INTER:                 -11.117
REMARK INTRA:                  -0.901
REMARK UNBOUND:                -0.756
REMARK  Name = 
REMARK  5 active torsions:
REMARK  status: ('A' for Active; 'I' for Inactive)
REMARK    1  A    between atoms: C_2  and  C_4
REMARK    2  A    between atoms: N_8  and  C_9
REMARK    3  A    between atoms: C_9  and  C_10
REMARK    4  A    between atoms: C_12  and  C_13
REMARK    5  A    between atoms: C_17  and  C_18
REMARK                            x       y       z     vdW  Elec       q    Type
REMARK                         _______ _______ _______ _____ _____    ______ ____
ROOT
ATOM      1  C   UNL     1      43.950   4.720  11.346  0.00  0.00    +0.000 C 
ATOM      2  C   UNL     1      42.640   5.088  12.039  0.00  0.00    +0.000 C 
ATOM      3  C   UNL     1      43.213   6.005  11.008  0.00  0.00    +0.000 C 
ENDROOT
BRANCH   1   8
ATOM      4  C   UNL     1      46.504   2.620   7.451  0.00  0.00    +0.000 A 
ATOM      5  C   UNL     1      45.885   1.668   8.222  0.00  0.00    +0.000 A 
ATOM      6  N   UNL     1      45.060   1.961   9.249  0.00  0.00    +0.000 NA
ATOM      7  C   UNL     1      44.871   3.262   9.532  0.00  0.00    +0.000 A 
ATOM      8  N   UNL     1      43.896   3.527  10.490  0.00  0.00    +0.000 N 
ATOM      9  N   UNL     1      45.500   4.261   8.888  0.00  0.00    +0.000 NA
ATOM     10  C   UNL     1      46.300   3.919   7.853  0.00  0.00    +0.000 A 
ATOM     11  H   UNL     1      43.682   2.649  10.953  0.00  0.00    +0.000 HD
BRANCH   4  13
ATOM     12  N   UNL     1      47.110   3.057   5.146  0.00  0.00    +0.000 N 
ATOM     13  C   UNL     1      47.324   2.315   6.274  0.00  0.00    +0.000 C 
ATOM     14  O   UNL     1      48.203   1.464   6.321  0.00  0.00    +0.000 OA
ATOM     15  H   UNL     1      47.770   2.916   4.389  0.00  0.00    +0.000 HD
ATOM     16  H   UNL     1      46.598   3.929   5.145  0.00  0.00    +0.000 HD
ENDBRANCH   4  13
ENDBRANCH   1   8
BRANCH   1  17
ATOM     17  C   UNL     1      45.227   4.834  12.186  0.00  0.00    +0.000 A 
ATOM     18  C   UNL     1      46.079   5.935  12.046  0.00  0.00    +0.000 A 
ATOM     19  C   UNL     1      47.158   6.130  12.921  0.00  0.00    +0.000 A 
ATOM     20  C   UNL     1      47.364   5.135  13.886  0.00  0.00    +0.000 A 
ATOM     21  C   UNL     1      46.525   4.038  13.929  0.00  0.00    +0.000 A 
ATOM     22  N   UNL     1      45.476   3.867  13.107  0.00  0.00    +0.000 NA
BRANCH  19  23
ATOM     23  C   UNL     1      47.988   7.362  12.897  0.00  0.00    +0.000 A 
ATOM     24  C   UNL     1      48.475   7.900  11.692  0.00  0.00    +0.000 A 
ATOM     25  C   UNL     1      49.158   9.121  11.656  0.00  0.00    +0.000 A 
ATOM     26  C   UNL     1      49.350   9.850  12.824  0.00  0.00    +0.000 A 
ATOM     27  C   UNL     1      48.889   9.349  14.046  0.00  0.00    +0.000 A 
ATOM     28  C   UNL     1      48.248   8.095  14.071  0.00  0.00    +0.000 A 
BRANCH  27  29
ATOM     29  C   UNL     1      49.018  10.139  15.323  0.00  0.00    +0.000 C 
ATOM     30  F   UNL     1      48.828  11.478  15.161  0.00  0.00    +0.000 F 
ATOM     31  F   UNL     1      48.112   9.747  16.262  0.00  0.00    +0.000 F 
ATOM     32  F   UNL     1      50.241  10.000  15.906  0.00  0.00    +0.000 F 
ENDBRANCH  27  29
ENDBRANCH  19  23
ENDBRANCH   1  17
TORSDOF 5
ENDMDL
MODEL 3
REMARK VINA RESULT:    -8.421      3.367      4.925
REMARK INTER + INTRA:         -11.639
REMARK INTER:                 -10.969
REMARK INTRA:                  -0.670
REMARK UNBOUND:                -0.756
REMARK  Name = 
REMARK  5 active torsions:
REMARK  status: ('A' for Active; 'I' for Inactive)
REMARK    1  A    between atoms: C_2  and  C_4
REMARK    2  A    between atoms: N_8  and  C_9
REMARK    3  A    between atoms: C_9  and  C_10
REMARK    4  A    between atoms: C_12  and  C_13
REMARK    5  A    between atoms: C_17  and  C_18
REMARK                            x       y       z     vdW  Elec       q    Type
REMARK                         _______ _______ _______ _____ _____    ______ ____
ROOT
ATOM      1  C   UNL     1      43.932   4.973  11.451  0.00  0.00    +0.000 C 
ATOM      2  C   UNL     1      42.627   5.255  12.192  0.00  0.00    +0.000 C 
ATOM      3  C   UNL     1      42.992   6.079  11.002  0.00  0.00    +0.000 C 
ENDROOT
BRANCH   1   8
ATOM      4  C   UNL     1      46.432   2.732   7.601  0.00  0.00    +0.000 A 
ATOM      5  C   UNL     1      46.060   1.823   8.559  0.00  0.00    +0.000 A 
ATOM      6  N   UNL     1      45.297   2.136   9.627  0.00  0.00    +0.000 NA
ATOM      7  C   UNL     1      44.915   3.419   9.754  0.00  0.00    +0.000 A 
ATOM      8  N   UNL     1      44.003   3.670  10.774  0.00  0.00    +0.000 N 
ATOM      9  N   UNL     1      45.301   4.395   8.913  0.00  0.00    +0.000 NA
ATOM     10  C   UNL     1      46.048   4.029   7.846  0.00  0.00    +0.000 A 
ATOM     11  H   UNL     1      43.986   2.850  11.373  0.00  0.00    +0.000 HD
BRANCH   4  13
ATOM     12  N   UNL     1      47.095   3.242   5.326  0.00  0.00    +0.000 N 
ATOM     13  C   UNL     1      47.179   2.384   6.387  0.00  0.00    +0.000 C 
ATOM     14  O   UNL     1      47.893   1.390   6.348  0.00  0.00    +0.000 OA
ATOM     15  H   UNL     1      47.716   3.050   4.547  0.00  0.00    +0.000 HD
ATOM     16  H   UNL     1      46.746   4.188   5.405  0.00  0.00    +0.000 HD
ENDBRANCH   4  13
ENDBRANCH   1   8
BRANCH   1  17
ATOM     17  C   UNL     1      45.227   5.385  12.159  0.00  0.00    +0.000 A 
ATOM     18  C   UNL     1      45.569   4.836  13.401  0.00  0.00    +0.000 A 
ATOM     19  C   UNL     1      46.824   5.081  13.977  0.00  0.00    +0.000 A 
ATOM     20  C   UNL     1      47.674   5.947  13.276  0.00  0.00    +0.000 A 
ATOM     21  C   UNL     1      47.249   6.509  12.087  0.00  0.00    +0.000 A 
ATOM     22  N   UNL     1      46.057   6.251  11.523  0.00  0.00    +0.000 NA
BRANCH  19  23
ATOM     23  C   UNL     1      47.276   4.395  15.215  0.00  0.00    +0.000 A 
ATOM     24  C   UNL     1      47.719   3.060  15.198  0.00  0.00    +0.000 A 
ATOM     25  C   UNL     1      48.254   2.449  16.339  0.00  0.00    +0.000 A 
ATOM     26  C   UNL     1      48.383   3.168  17.523  0.00  0.00    +0.000 A 
ATOM     27  C   UNL     1      47.948   4.496  17.585  0.00  0.00    +0.000 A 
ATOM     28  C   UNL     1      47.367   5.079  16.443  0.00  0.00    +0.000 A 
BRANCH  27  29
ATOM     29  C   UNL     1      48.131   5.328  18.829  0.00  0.00    +0.000 C 
ATOM     30  F   UNL     1      48.850   4.707  19.804  0.00  0.00    +0.000 F 
ATOM     31  F   UNL     1      48.787   6.495  18.571  0.00  0.00    +0.000 F 
ATOM     32  F   UNL     1      46.949   5.685  19.402  0.00  0.00    +0.000 F 
ENDBRANCH  27  29
ENDBRANCH  19  23
ENDBRANCH   1  17
TORSDOF 5
ENDMDL
MODEL 4
REMARK VINA RESULT:    -7.596      3.534      4.604
REMARK INTER + INTRA:         -10.572
REMARK INTER:                 -10.294
REMARK INTRA:                  -0.278
REMARK UNBOUND:                -0.756
REMARK  Name = 
REMARK  5 active torsions:
REMARK  status: ('A' for Active; 'I' for Inactive)
REMARK    1  A    between atoms: C_2  and  C_4
REMARK    2  A    between atoms: N_8  and  C_9
REMARK    3  A    between atoms: C_9  and  C_10
REMARK    4  A    between atoms: C_12  and  C_13
REMARK    5  A    between atoms: C_17  and  C_18
REMARK                            x       y       z     vdW  Elec       q    Type
REMARK                         _______ _______ _______ _____ _____    ______ ____
ROOT
ATOM      1  C   UNL     1      43.822   5.051  11.689  0.00  0.00    +0.000 C 
ATOM      2  C   UNL     1      42.714   5.189  12.730  0.00  0.00    +0.000 C 
ATOM      3  C   UNL     1      42.621   5.948  11.448  0.00  0.00    +0.000 C 
ENDROOT
BRANCH   1   8
ATOM      4  C   UNL     1      46.086   2.817   7.691  0.00  0.00    +0.000 A 
ATOM      5  C   UNL     1      45.924   1.941   8.734  0.00  0.00    +0.000 A 
ATOM      6  N   UNL     1      45.260   2.247   9.869  0.00  0.00    +0.000 NA
ATOM      7  C   UNL     1      44.762   3.492   9.972  0.00  0.00    +0.000 A 
ATOM      8  N   UNL     1      43.952   3.719  11.080  0.00  0.00    +0.000 N 
ATOM      9  N   UNL     1      44.944   4.444   9.039  0.00  0.00    +0.000 NA
ATOM     10  C   UNL     1      45.598   4.083   7.910  0.00  0.00    +0.000 A 
ATOM     11  H   UNL     1      44.091   2.943  11.720  0.00  0.00    +0.000 HD
BRANCH   4  13
ATOM     12  N   UNL     1      47.258   1.213   6.304  0.00  0.00    +0.000 N 
ATOM     13  C   UNL     1      46.721   2.465   6.416  0.00  0.00    +0.000 C 
ATOM     14  O   UNL     1      46.720   3.245   5.473  0.00  0.00    +0.000 OA
ATOM     15  H   UNL     1      47.578   0.947   5.379  0.00  0.00    +0.000 HD
ATOM     16  H   UNL     1      47.047   0.460   6.945  0.00  0.00    +0.000 HD
ENDBRANCH   4  13
ENDBRANCH   1   8
BRANCH   1  17
ATOM     17  C   UNL     1      45.159   5.726  12.015  0.00  0.00    +0.000 A 
ATOM     18  C   UNL     1      45.782   5.519  13.252  0.00  0.00    +0.000 A 
ATOM     19  C   UNL     1      47.078   5.997  13.497  0.00  0.00    +0.000 A 
ATOM     20  C   UNL     1      47.673   6.739  12.468  0.00  0.00    +0.000 A 
ATOM     21  C   UNL     1      46.978   6.963  11.295  0.00  0.00    +0.000 A 
ATOM     22  N   UNL     1      45.748   6.481  11.052  0.00  0.00    +0.000 NA
BRANCH  19  23
ATOM     23  C   UNL     1      47.824   5.666  14.738  0.00  0.00    +0.000 A 
ATOM     24  C   UNL     1      48.682   6.597  15.353  0.00  0.00    +0.000 A 
ATOM     25  C   UNL     1      49.296   6.329  16.582  0.00  0.00    +0.000 A 
ATOM     26  C   UNL     1      49.048   5.130  17.242  0.00  0.00    +0.000 A 
ATOM     27  C   UNL     1      48.208   4.173  16.662  0.00  0.00    +0.000 A 
ATOM     28  C   UNL     1      47.638   4.439  15.402  0.00  0.00    +0.000 A 
BRANCH  27  29
ATOM     29  C   UNL     1      47.861   2.891  17.376  0.00  0.00    +0.000 C 
ATOM     30  F   UNL     1      48.372   2.809  18.636  0.00  0.00    +0.000 F 
ATOM     31  F   UNL     1      46.515   2.727  17.509  0.00  0.00    +0.000 F 
ATOM     32  F   UNL     1      48.306   1.786  16.717  0.00  0.00    +0.000 F 
ENDBRANCH  27  29
ENDBRANCH  19  23
ENDBRANCH   1  17
TORSDOF 5
ENDMDL
MODEL 5
REMARK VINA RESULT:    -7.590      5.121      8.553
REMARK INTER + INTRA:         -10.564
REMARK INTER:                  -9.617
REMARK INTRA:                  -0.947
REMARK UNBOUND:                -0.756
REMARK  Name = 
REMARK  5 active torsions:
REMARK  status: ('A' for Active; 'I' for Inactive)
REMARK    1  A    between atoms: C_2  and  C_4
REMARK    2  A    between atoms: N_8  and  C_9
REMARK    3  A    between atoms: C_9  and  C_10
REMARK    4  A    between atoms: C_12  and  C_13
REMARK    5  A    between atoms: C_17  and  C_18
REMARK                            x       y       z     vdW  Elec       q    Type
REMARK                         _______ _______ _______ _____ _____    ______ ____
ROOT
ATOM      1  C   UNL     1      49.245   8.027  12.587  0.00  0.00    +0.000 C 
ATOM      2  C   UNL     1      50.205   8.207  11.414  0.00  0.00    +0.000 C 
ATOM      3  C   UNL     1      49.939   9.354  12.332  0.00  0.00    +0.000 C 
ENDROOT
BRANCH   1   8
ATOM      4  C   UNL     1      48.641   7.210  17.594  0.00  0.00    +0.000 A 
ATOM      5  C   UNL     1      48.899   6.044  16.919  0.00  0.00    +0.000 A 
ATOM      6  N   UNL     1      49.203   5.994  15.605  0.00  0.00    +0.000 NA
ATOM      7  C   UNL     1      49.219   7.160  14.934  0.00  0.00    +0.000 A 
ATOM      8  N   UNL     1      49.688   7.087  13.626  0.00  0.00    +0.000 N 
ATOM      9  N   UNL     1      48.897   8.341  15.491  0.00  0.00    +0.000 NA
ATOM     10  C   UNL     1      48.621   8.343  16.815  0.00  0.00    +0.000 A 
ATOM     11  H   UNL     1      49.709   6.106  13.367  0.00  0.00    +0.000 HD
BRANCH   4  13
ATOM     12  N   UNL     1      47.471   6.442  19.572  0.00  0.00    +0.000 N 
ATOM     13  C   UNL     1      48.406   7.285  19.040  0.00  0.00    +0.000 C 
ATOM     14  O   UNL     1      49.063   8.038  19.748  0.00  0.00    +0.000 OA
ATOM     15  H   UNL     1      47.415   6.421  20.584  0.00  0.00    +0.000 HD
ATOM     16  H   UNL     1      47.109   5.635  19.081  0.00  0.00    +0.000 HD
ENDBRANCH   4  13
ENDBRANCH   1   8
BRANCH   1  17
ATOM     17  C   UNL     1      47.754   7.929  12.245  0.00  0.00    +0.000 A 
ATOM     18  C   UNL     1      47.165   6.690  11.964  0.00  0.00    +0.000 A 
ATOM     19  C   UNL     1      45.776   6.569  11.813  0.00  0.00    +0.000 A 
ATOM     20  C   UNL     1      45.034   7.755  11.894  0.00  0.00    +0.000 A 
ATOM     21  C   UNL     1      45.684   8.956  12.108  0.00  0.00    +0.000 A 
ATOM     22  N   UNL     1      47.012   9.066  12.280  0.00  0.00    +0.000 NA
BRANCH  19  23
ATOM     23  C   UNL     1      45.105   5.251  11.667  0.00  0.00    +0.000 A 
ATOM     24  C   UNL     1      44.127   4.816  12.579  0.00  0.00    +0.000 A 
ATOM     25  C   UNL     1      43.412   3.629  12.380  0.00  0.00    +0.000 A 
ATOM     26  C   UNL     1      43.640   2.857  11.245  0.00  0.00    +0.000 A 
ATOM     27  C   UNL     1      44.609   3.249  10.316  0.00  0.00    +0.000 A 
ATOM     28  C   UNL     1      45.353   4.420  10.558  0.00  0.00    +0.000 A 
BRANCH  27  29
ATOM     29  C   UNL     1      44.839   2.476   9.042  0.00  0.00    +0.000 C 
ATOM     30  F   UNL     1      46.153   2.250   8.766  0.00  0.00    +0.000 F 
ATOM     31  F   UNL     1      44.250   1.247   9.076  0.00  0.00    +0.000 F 
ATOM     32  F   UNL     1      44.326   3.103   7.948  0.00  0.00    +0.000 F 
ENDBRANCH  27  29
ENDBRANCH  19  23
ENDBRANCH   1  17
TORSDOF 5
ENDMDL
MODEL 6
REMARK VINA RESULT:    -7.553      6.075      8.715
REMARK INTER + INTRA:         -10.517
REMARK INTER:                  -9.702
REMARK INTRA:                  -0.815
REMARK UNBOUND:                -0.756
REMARK  Name = 
REMARK  5 active torsions:
REMARK  status: ('A' for Active; 'I' for Inactive)
REMARK    1  A    between atoms: C_2  and  C_4
REMARK    2  A    between atoms: N_8  and  C_9
REMARK    3  A    between atoms: C_9  and  C_10
REMARK    4  A    between atoms: C_12  and  C_13
REMARK    5  A    between atoms: C_17  and  C_18
REMARK                            x       y       z     vdW  Elec       q    Type
REMARK                         _______ _______ _______ _____ _____    ______ ____
ROOT
ATOM      1  C   UNL     1      48.465   4.960  17.610  0.00  0.00    +0.000 C 
ATOM      2  C   UNL     1      47.309   5.459  18.474  0.00  0.00    +0.000 C 
ATOM      3  C   UNL     1      47.228   4.108  17.842  0.00  0.00    +0.000 C 
ENDROOT
BRANCH   1   8
ATOM      4  C   UNL     1      52.351   1.644  17.643  0.00  0.00    +0.000 A 
ATOM      5  C   UNL     1      52.747   2.891  18.057  0.00  0.00    +0.000 A 
ATOM      6  N   UNL     1      51.895   3.921  18.241  0.00  0.00    +0.000 NA
ATOM      7  C   UNL     1      50.596   3.699  17.970  0.00  0.00    +0.000 A 
ATOM      8  N   UNL     1      49.730   4.731  18.321  0.00  0.00    +0.000 N 
ATOM      9  N   UNL     1      50.129   2.538  17.479  0.00  0.00    +0.000 NA
ATOM     10  C   UNL     1      51.017   1.528  17.332  0.00  0.00    +0.000 A 
ATOM     11  H   UNL     1      50.298   5.551  18.506  0.00  0.00    +0.000 HD
BRANCH   4  13
ATOM     12  N   UNL     1      53.077  -0.534  18.418  0.00  0.00    +0.000 N 
ATOM     13  C   UNL     1      53.254   0.493  17.533  0.00  0.00    +0.000 C 
ATOM     14  O   UNL     1      54.096   0.433  16.647  0.00  0.00    +0.000 OA
ATOM     15  H   UNL     1      53.625  -1.370  18.246  0.00  0.00    +0.000 HD
ATOM     16  H   UNL     1      52.242  -0.646  18.977  0.00  0.00    +0.000 HD
ENDBRANCH   4  13
ENDBRANCH   1   8
BRANCH   1  17
ATOM     17  C   UNL     1      48.627   5.616  16.234  0.00  0.00    +0.000 A 
ATOM     18  C   UNL     1      47.711   5.359  15.207  0.00  0.00    +0.000 A 
ATOM     19  C   UNL     1      47.756   6.078  14.003  0.00  0.00    +0.000 A 
ATOM     20  C   UNL     1      48.797   7.007  13.870  0.00  0.00    +0.000 A 
ATOM     21  C   UNL     1      49.708   7.165  14.897  0.00  0.00    +0.000 A 
ATOM     22  N   UNL     1      49.647   6.496  16.060  0.00  0.00    +0.000 NA
BRANCH  19  23
ATOM     23  C   UNL     1      46.711   5.939  12.956  0.00  0.00    +0.000 A 
ATOM     24  C   UNL     1      46.888   6.464  11.663  0.00  0.00    +0.000 A 
ATOM     25  C   UNL     1      45.958   6.234  10.643  0.00  0.00    +0.000 A 
ATOM     26  C   UNL     1      44.834   5.450  10.884  0.00  0.00    +0.000 A 
ATOM     27  C   UNL     1      44.614   4.916  12.158  0.00  0.00    +0.000 A 
ATOM     28  C   UNL     1      45.536   5.198  13.185  0.00  0.00    +0.000 A 
BRANCH  27  29
ATOM     29  C   UNL     1      43.445   4.007  12.441  0.00  0.00    +0.000 C 
ATOM     30  F   UNL     1      43.806   2.741  12.791  0.00  0.00    +0.000 F 
ATOM     31  F   UNL     1      42.674   4.470  13.466  0.00  0.00    +0.000 F 
ATOM     32  F   UNL     1      42.608   3.880  11.375  0.00  0.00    +0.000 F 
ENDBRANCH  27  29
ENDBRANCH  19  23
ENDBRANCH   1  17
TORSDOF 5
ENDMDL
MODEL 7
REMARK VINA RESULT:    -7.552      5.617      8.466
REMARK INTER + INTRA:         -10.516
REMARK INTER:                 -10.003
REMARK INTRA:                  -0.512
REMARK UNBOUND:                -0.756
REMARK  Name = 
REMARK  5 active torsions:
REMARK  status: ('A' for Active; 'I' for Inactive)
REMARK    1  A    between atoms: C_2  and  C_4
REMARK    2  A    between atoms: N_8  and  C_9
REMARK    3  A    between atoms: C_9  and  C_10
REMARK    4  A    between atoms: C_12  and  C_13
REMARK    5  A    between atoms: C_17  and  C_18
REMARK                            x       y       z     vdW  Elec       q    Type
REMARK                         _______ _______ _______ _____ _____    ______ ____
ROOT
ATOM      1  C   UNL     1      48.122   4.544  17.118  0.00  0.00    +0.000 C 
ATOM      2  C   UNL     1      46.964   4.781  18.085  0.00  0.00    +0.000 C 
ATOM      3  C   UNL     1      47.160   3.427  17.485  0.00  0.00    +0.000 C 
ENDROOT
BRANCH   1   8
ATOM      4  C   UNL     1      52.408   1.800  17.558  0.00  0.00    +0.000 A 
ATOM      5  C   UNL     1      52.667   3.147  17.573  0.00  0.00    +0.000 A 
ATOM      6  N   UNL     1      51.703   4.092  17.579  0.00  0.00    +0.000 NA
ATOM      7  C   UNL     1      50.427   3.667  17.538  0.00  0.00    +0.000 A 
ATOM      8  N   UNL     1      49.465   4.658  17.704  0.00  0.00    +0.000 N 
ATOM      9  N   UNL     1      50.079   2.372  17.436  0.00  0.00    +0.000 NA
ATOM     10  C   UNL     1      51.080   1.461  17.456  0.00  0.00    +0.000 A 
ATOM     11  H   UNL     1      49.930   5.553  17.593  0.00  0.00    +0.000 HD
BRANCH   4  13
ATOM     12  N   UNL     1      53.186  -0.319  18.442  0.00  0.00    +0.000 N 
ATOM     13  C   UNL     1      53.445   0.765  17.650  0.00  0.00    +0.000 C 
ATOM     14  O   UNL     1      54.478   0.848  16.999  0.00  0.00    +0.000 OA
ATOM     15  H   UNL     1      53.857  -1.077  18.391  0.00  0.00    +0.000 HD
ATOM     16  H   UNL     1      52.260  -0.554  18.774  0.00  0.00    +0.000 HD
ENDBRANCH   4  13
ENDBRANCH   1   8
BRANCH   1  17
ATOM     17  C   UNL     1      47.990   5.165  15.724  0.00  0.00    +0.000 A 
ATOM     18  C   UNL     1      46.983   4.746  14.846  0.00  0.00    +0.000 A 
ATOM     19  C   UNL     1      46.752   5.419  13.637  0.00  0.00    +0.000 A 
ATOM     20  C   UNL     1      47.620   6.478  13.338  0.00  0.00    +0.000 A 
ATOM     21  C   UNL     1      48.637   6.799  14.217  0.00  0.00    +0.000 A 
ATOM     22  N   UNL     1      48.839   6.171  15.387  0.00  0.00    +0.000 NA
BRANCH  19  23
ATOM     23  C   UNL     1      45.599   5.098  12.758  0.00  0.00    +0.000 A 
ATOM     24  C   UNL     1      44.272   5.316  13.172  0.00  0.00    +0.000 A 
ATOM     25  C   UNL     1      43.191   5.123  12.304  0.00  0.00    +0.000 A 
ATOM     26  C   UNL     1      43.410   4.731  10.988  0.00  0.00    +0.000 A 
ATOM     27  C   UNL     1      44.713   4.495  10.537  0.00  0.00    +0.000 A 
ATOM     28  C   UNL     1      45.785   4.646  11.437  0.00  0.00    +0.000 A 
BRANCH  27  29
ATOM     29  C   UNL     1      44.997   4.134   9.101  0.00  0.00    +0.000 C 
ATOM     30  F   UNL     1      45.355   2.832   8.923  0.00  0.00    +0.000 F 
ATOM     31  F   UNL     1      43.914   4.335   8.298  0.00  0.00    +0.000 F 
ATOM     32  F   UNL     1      46.002   4.877   8.561  0.00  0.00    +0.000 F 
ENDBRANCH  27  29
ENDBRANCH  19  23
ENDBRANCH   1  17
TORSDOF 5
ENDMDL
MODEL 8
REMARK VINA RESULT:    -7.403      4.457      7.753
REMARK INTER + INTRA:         -10.323
REMARK INTER:                 -10.428
REMARK INTRA:                   0.105
REMARK UNBOUND:                -0.756
REMARK  Name = 
REMARK  5 active torsions:
REMARK  status: ('A' for Active; 'I' for Inactive)
REMARK    1  A    between atoms: C_2  and  C_4
REMARK    2  A    between atoms: N_8  and  C_9
REMARK    3  A    between atoms: C_9  and  C_10
REMARK    4  A    between atoms: C_12  and  C_13
REMARK    5  A    between atoms: C_17  and  C_18
REMARK                            x       y       z     vdW  Elec       q    Type
REMARK                         _______ _______ _______ _____ _____    ______ ____
ROOT
ATOM      1  C   UNL     1      48.858   8.184  13.234  0.00  0.00    +0.000 C 
ATOM      2  C   UNL     1      49.989   7.463  12.504  0.00  0.00    +0.000 C 
ATOM      3  C   UNL     1      49.925   8.955  12.475  0.00  0.00    +0.000 C 
ENDROOT
BRANCH   1   8
ATOM      4  C   UNL     1      48.057   4.624  16.809  0.00  0.00    +0.000 A 
ATOM      5  C   UNL     1      48.938   5.584  17.241  0.00  0.00    +0.000 A 
ATOM      6  N   UNL     1      49.239   6.692  16.530  0.00  0.00    +0.000 NA
ATOM      7  C   UNL     1      48.655   6.827  15.327  0.00  0.00    +0.000 A 
ATOM      8  N   UNL     1      48.866   8.051  14.698  0.00  0.00    +0.000 N 
ATOM      9  N   UNL     1      47.846   5.899  14.786  0.00  0.00    +0.000 NA
ATOM     10  C   UNL     1      47.557   4.817  15.544  0.00  0.00    +0.000 A 
ATOM     11  H   UNL     1      49.624   8.516  15.188  0.00  0.00    +0.000 HD
BRANCH   4  13
ATOM     12  N   UNL     1      48.436   3.129  18.678  0.00  0.00    +0.000 N 
ATOM     13  C   UNL     1      47.648   3.467  17.613  0.00  0.00    +0.000 C 
ATOM     14  O   UNL     1      46.612   2.863  17.369  0.00  0.00    +0.000 OA
ATOM     15  H   UNL     1      48.070   2.409  19.292  0.00  0.00    +0.000 HD
ATOM     16  H   UNL     1      49.134   3.747  19.070  0.00  0.00    +0.000 HD
ENDBRANCH   4  13
ENDBRANCH   1   8
BRANCH   1  17
ATOM     17  C   UNL     1      47.465   8.092  12.602  0.00  0.00    +0.000 A 
ATOM     18  C   UNL     1      47.066   6.940  11.914  0.00  0.00    +0.000 A 
ATOM     19  C   UNL     1      45.743   6.781  11.476  0.00  0.00    +0.000 A 
ATOM     20  C   UNL     1      44.876   7.857  11.709  0.00  0.00    +0.000 A 
ATOM     21  C   UNL     1      45.350   8.994  12.336  0.00  0.00    +0.000 A 
ATOM     22  N   UNL     1      46.610   9.133  12.779  0.00  0.00    +0.000 NA
BRANCH  19  23
ATOM     23  C   UNL     1      45.251   5.512  10.880  0.00  0.00    +0.000 A 
ATOM     24  C   UNL     1      44.126   4.842  11.396  0.00  0.00    +0.000 A 
ATOM     25  C   UNL     1      43.592   3.712  10.767  0.00  0.00    +0.000 A 
ATOM     26  C   UNL     1      44.156   3.235   9.588  0.00  0.00    +0.000 A 
ATOM     27  C   UNL     1      45.280   3.865   9.045  0.00  0.00    +0.000 A 
ATOM     28  C   UNL     1      45.834   4.972   9.718  0.00  0.00    +0.000 A 
BRANCH  27  29
ATOM     29  C   UNL     1      45.878   3.420   7.735  0.00  0.00    +0.000 C 
ATOM     30  F   UNL     1      46.828   4.267   7.249  0.00  0.00    +0.000 F 
ATOM     31  F   UNL     1      46.484   2.203   7.836  0.00  0.00    +0.000 F 
ATOM     32  F   UNL     1      44.948   3.292   6.749  0.00  0.00    +0.000 F 
ENDBRANCH  27  29
ENDBRANCH  19  23
ENDBRANCH   1  17
TORSDOF 5
ENDMDL
MODEL 9
REMARK VINA RESULT:    -7.046      4.107      5.891
REMARK INTER + INTRA:          -9.861
REMARK INTER:                  -8.892
REMARK INTRA:                  -0.969
REMARK UNBOUND:                -0.756
REMARK  Name = 
REMARK  5 active torsions:
REMARK  status: ('A' for Active; 'I' for Inactive)
REMARK    1  A    between atoms: C_2  and  C_4
REMARK    2  A    between atoms: N_8  and  C_9
REMARK    3  A    between atoms: C_9  and  C_10
REMARK    4  A    between atoms: C_12  and  C_13
REMARK    5  A    between atoms: C_17  and  C_18
REMARK                            x       y       z     vdW  Elec       q    Type
REMARK                         _______ _______ _______ _____ _____    ______ ____
ROOT
ATOM      1  C   UNL     1      45.802   8.969  12.197  0.00  0.00    +0.000 C 
ATOM      2  C   UNL     1      45.379  10.436  12.220  0.00  0.00    +0.000 C 
ATOM      3  C   UNL     1      45.522   9.730  10.912  0.00  0.00    +0.000 C 
ENDROOT
BRANCH   1   8
ATOM      4  C   UNL     1      44.203   4.158  11.569  0.00  0.00    +0.000 A 
ATOM      5  C   UNL     1      44.066   4.570  12.871  0.00  0.00    +0.000 A 
ATOM      6  N   UNL     1      44.315   5.831  13.283  0.00  0.00    +0.000 NA
ATOM      7  C   UNL     1      44.747   6.705  12.358  0.00  0.00    +0.000 A 
ATOM      8  N   UNL     1      44.840   8.026  12.786  0.00  0.00    +0.000 N 
ATOM      9  N   UNL     1      44.992   6.372  11.079  0.00  0.00    +0.000 NA
ATOM     10  C   UNL     1      44.707   5.102  10.707  0.00  0.00    +0.000 A 
ATOM     11  H   UNL     1      44.778   8.021  13.799  0.00  0.00    +0.000 HD
BRANCH   4  13
ATOM     12  N   UNL     1      44.566   2.303  10.051  0.00  0.00    +0.000 N 
ATOM     13  C   UNL     1      43.843   2.818  11.092  0.00  0.00    +0.000 C 
ATOM     14  O   UNL     1      42.965   2.167  11.642  0.00  0.00    +0.000 OA
ATOM     15  H   UNL     1      44.385   1.332   9.822  0.00  0.00    +0.000 HD
ATOM     16  H   UNL     1      45.454   2.683   9.752  0.00  0.00    +0.000 HD
ENDBRANCH   4  13
ENDBRANCH   1   8
BRANCH   1  17
ATOM     17  C   UNL     1      47.265   8.671  12.541  0.00  0.00    +0.000 A 
ATOM     18  C   UNL     1      47.602   8.031  13.740  0.00  0.00    +0.000 A 
ATOM     19  C   UNL     1      48.916   7.608  13.989  0.00  0.00    +0.000 A 
ATOM     20  C   UNL     1      49.867   7.920  13.008  0.00  0.00    +0.000 A 
ATOM     21  C   UNL     1      49.481   8.613  11.876  0.00  0.00    +0.000 A 
ATOM     22  N   UNL     1      48.217   8.993  11.627  0.00  0.00    +0.000 NA
BRANCH  19  23
ATOM     23  C   UNL     1      49.277   6.794  15.177  0.00  0.00    +0.000 A 
ATOM     24  C   UNL     1      50.525   6.928  15.813  0.00  0.00    +0.000 A 
ATOM     25  C   UNL     1      50.822   6.248  16.999  0.00  0.00    +0.000 A 
ATOM     26  C   UNL     1      49.867   5.431  17.596  0.00  0.00    +0.000 A 
ATOM     27  C   UNL     1      48.617   5.262  16.994  0.00  0.00    +0.000 A 
ATOM     28  C   UNL     1      48.352   5.916  15.775  0.00  0.00    +0.000 A 
BRANCH  27  29
ATOM     29  C   UNL     1      47.533   4.440  17.643  0.00  0.00    +0.000 C 
ATOM     30  F   UNL     1      46.707   3.820  16.755  0.00  0.00    +0.000 F 
ATOM     31  F   UNL     1      48.042   3.450  18.430  0.00  0.00    +0.000 F 
ATOM     32  F   UNL     1      46.726   5.180  18.454  0.00  0.00    +0.000 F 
ENDBRANCH  27  29
ENDBRANCH  19  23
ENDBRANCH   1  17
TORSDOF 5
ENDMDL
