MODEL 1
REMARK VINA RESULT:    -9.260      0.000      0.000
REMARK INTER + INTRA:         -15.488
REMARK INTER:                 -14.132
REMARK INTRA:                  -1.357
REMARK UNBOUND:                -1.357
REMARK  Name = 
REMARK  9 active torsions:
REMARK  status: ('A' for Active; 'I' for Inactive)
REMARK    1  A    between atoms: C_2  and  C_3
REMARK    2  A    between atoms: C_2  and  O_17
REMARK    3  A    between atoms: C_3  and  N_4
REMARK    4  A    between atoms: C_5  and  C_7
REMARK    5  A    between atoms: O_17  and  C_18
REMARK    6  A    between atoms: C_18  and  C_19
REMARK    7  A    between atoms: C_22  and  C_23
REMARK    8  A    between atoms: C_23  and  N_24
REMARK    9  A    between atoms: C_25  and  C_27
REMARK                            x       y       z     vdW  Elec       q    Type
REMARK                         _______ _______ _______ _____ _____    ______ ____
ROOT
ATOM      1  O   UNL     1      47.468   3.865  15.598  0.00  0.00    +0.000 OA
ENDROOT
BRANCH   1   3
ATOM      2  O   UNL     1      46.413   2.928  17.412  0.00  0.00    +0.000 OA
ATOM      3  C   UNL     1      47.160   3.763  16.917  0.00  0.00    +0.000 C 
BRANCH   3   4
ATOM      4  C   UNL     1      47.937   4.786  17.728  0.00  0.00    +0.000 C 
BRANCH   4   5
ATOM      5  N   UNL     1      49.223   4.262  18.137  0.00  0.00    +0.000 N 
ATOM      6  C   UNL     1      50.379   4.639  17.499  0.00  0.00    +0.000 C 
ATOM      7  O   UNL     1      50.388   5.487  16.612  0.00  0.00    +0.000 OA
ATOM      8  H   UNL     1      49.215   3.404  18.683  0.00  0.00    +0.000 HD
BRANCH   6   9
ATOM      9  C   UNL     1      51.621   4.029  17.983  0.00  0.00    +0.000 A 
ATOM     10  C   UNL     1      52.583   4.819  18.599  0.00  0.00    +0.000 A 
ATOM     11  S   UNL     1      53.939   3.941  19.145  0.00  0.00    +0.000 S 
ATOM     12  C   UNL     1      53.311   2.484  18.530  0.00  0.00    +0.000 A 
ATOM     13  N   UNL     1      54.003   1.318  18.645  0.00  0.00    +0.000 NA
ATOM     14  C   UNL     1      53.425   0.300  18.099  0.00  0.00    +0.000 A 
ATOM     15  N   UNL     1      52.217   0.340  17.452  0.00  0.00    +0.000 N 
ATOM     16  C   UNL     1      51.463   1.485  17.351  0.00  0.00    +0.000 A 
ATOM     17  O   UNL     1      50.351   1.478  16.835  0.00  0.00    +0.000 OA
ATOM     18  C   UNL     1      52.078   2.662  17.931  0.00  0.00    +0.000 A 
ATOM     19  H   UNL     1      51.813  -0.497  17.057  0.00  0.00    +0.000 HD
ENDBRANCH   6   9
ENDBRANCH   4   5
ENDBRANCH   3   4
ENDBRANCH   1   3
BRANCH   1  20
ATOM     20  C   UNL     1      47.220   5.131  14.979  0.00  0.00    +0.000 C 
BRANCH  20  21
ATOM     21  C   UNL     1      46.364   4.906  13.758  0.00  0.00    +0.000 A 
ATOM     22  C   UNL     1      46.111   3.615  13.279  0.00  0.00    +0.000 A 
ATOM     23  C   UNL     1      45.309   3.420  12.151  0.00  0.00    +0.000 A 
ATOM     24  C   UNL     1      44.755   4.514  11.472  0.00  0.00    +0.000 A 
ATOM     25  C   UNL     1      44.999   5.805  11.957  0.00  0.00    +0.000 A 
ATOM     26  C   UNL     1      45.797   5.999  13.087  0.00  0.00    +0.000 A 
BRANCH  24  27
ATOM     27  C   UNL     1      43.894   4.308  10.252  0.00  0.00    +0.000 C 
BRANCH  27  28
ATOM     28  N   UNL     1      44.559   3.488   9.264  0.00  0.00    +0.000 N 
ATOM     29  C   UNL     1      45.559   4.020   8.484  0.00  0.00    +0.000 C 
ATOM     30  O   UNL     1      45.928   5.188   8.555  0.00  0.00    +0.000 OA
ATOM     31  H   UNL     1      44.452   2.486   9.337  0.00  0.00    +0.000 HD
BRANCH  29  32
ATOM     32  C   UNL     1      46.227   3.089   7.533  0.00  0.00    +0.000 A 
ATOM     33  C   UNL     1      46.630   3.506   6.265  0.00  0.00    +0.000 A 
ATOM     34  C   UNL     1      47.253   2.578   5.448  0.00  0.00    +0.000 A 
ATOM     35  N   UNL     1      47.491   1.301   5.809  0.00  0.00    +0.000 NA
ATOM     36  C   UNL     1      47.108   0.929   7.050  0.00  0.00    +0.000 A 
ATOM     37  C   UNL     1      46.482   1.781   7.944  0.00  0.00    +0.000 A 
ENDBRANCH  29  32
ENDBRANCH  27  28
ENDBRANCH  24  27
ENDBRANCH  20  21
ENDBRANCH   1  20
TORSDOF 9
ENDMDL
MODEL 2
REMARK VINA RESULT:    -8.816      1.228      2.233
REMARK INTER + INTRA:         -14.810
REMARK INTER:                 -13.554
REMARK INTRA:                  -1.256
REMARK UNBOUND:                -1.357
REMARK  Name = 
REMARK  9 active torsions:
REMARK  status: ('A' for Active; 'I' for Inactive)
REMARK    1  A    between atoms: C_2  and  C_3
REMARK    2  A    between atoms: C_2  and  O_17
REMARK    3  A    between atoms: C_3  and  N_4
REMARK    4  A    between atoms: C_5  and  C_7
REMARK    5  A    between atoms: O_17  and  C_18
REMARK    6  A    between atoms: C_18  and  C_19
REMARK    7  A    between atoms: C_22  and  C_23
REMARK    8  A    between atoms: C_23  and  N_24
REMARK    9  A    between atoms: C_25  and  C_27
REMARK                            x       y       z     vdW  Elec       q    Type
REMARK                         _______ _______ _______ _____ _____    ______ ____
ROOT
ATOM      1  O   UNL     1      46.994   3.879  15.753  0.00  0.00    +0.000 OA
ENDROOT
BRANCH   1   3
ATOM      2  O   UNL     1      46.864   5.002  17.753  0.00  0.00    +0.000 OA
ATOM      3  C   UNL     1      47.131   4.002  17.098  0.00  0.00    +0.000 C 
BRANCH   3   4
ATOM      4  C   UNL     1      47.592   2.690  17.710  0.00  0.00    +0.000 C 
BRANCH   4   5
ATOM      5  N   UNL     1      49.018   2.703  17.962  0.00  0.00    +0.000 N 
ATOM      6  C   UNL     1      49.898   2.117  17.086  0.00  0.00    +0.000 C 
ATOM      7  O   UNL     1      49.532   1.628  16.021  0.00  0.00    +0.000 OA
ATOM      8  H   UNL     1      49.311   2.875  18.920  0.00  0.00    +0.000 HD
BRANCH   6   9
ATOM      9  C   UNL     1      51.317   2.170  17.452  0.00  0.00    +0.000 A 
ATOM     10  C   UNL     1      52.022   0.990  17.649  0.00  0.00    +0.000 A 
ATOM     11  S   UNL     1      53.669   1.234  18.020  0.00  0.00    +0.000 S 
ATOM     12  C   UNL     1      53.483   2.925  17.980  0.00  0.00    +0.000 A 
ATOM     13  N   UNL     1      54.532   3.752  18.238  0.00  0.00    +0.000 NA
ATOM     14  C   UNL     1      54.237   5.010  18.213  0.00  0.00    +0.000 A 
ATOM     15  N   UNL     1      52.991   5.516  17.949  0.00  0.00    +0.000 N 
ATOM     16  C   UNL     1      51.914   4.721  17.638  0.00  0.00    +0.000 A 
ATOM     17  O   UNL     1      50.829   5.201  17.331  0.00  0.00    +0.000 OA
ATOM     18  C   UNL     1      52.187   3.298  17.674  0.00  0.00    +0.000 A 
ATOM     19  H   UNL     1      52.831   6.512  17.931  0.00  0.00    +0.000 HD
ENDBRANCH   6   9
ENDBRANCH   4   5
ENDBRANCH   3   4
ENDBRANCH   1   3
BRANCH   1  20
ATOM     20  C   UNL     1      47.086   5.084  14.986  0.00  0.00    +0.000 C 
BRANCH  20  21
ATOM     21  C   UNL     1      46.253   4.922  13.740  0.00  0.00    +0.000 A 
ATOM     22  C   UNL     1      45.756   6.035  13.051  0.00  0.00    +0.000 A 
ATOM     23  C   UNL     1      44.991   5.870  11.893  0.00  0.00    +0.000 A 
ATOM     24  C   UNL     1      44.698   4.588  11.407  0.00  0.00    +0.000 A 
ATOM     25  C   UNL     1      45.204   3.475  12.091  0.00  0.00    +0.000 A 
ATOM     26  C   UNL     1      45.972   3.640  13.246  0.00  0.00    +0.000 A 
BRANCH  24  27
ATOM     27  C   UNL     1      43.869   4.406  10.162  0.00  0.00    +0.000 C 
BRANCH  27  28
ATOM     28  N   UNL     1      44.542   3.571   9.192  0.00  0.00    +0.000 N 
ATOM     29  C   UNL     1      45.595   4.071   8.461  0.00  0.00    +0.000 C 
ATOM     30  O   UNL     1      46.005   5.223   8.562  0.00  0.00    +0.000 OA
ATOM     31  H   UNL     1      44.393   2.573   9.248  0.00  0.00    +0.000 HD
BRANCH  29  32
ATOM     32  C   UNL     1      46.265   3.126   7.526  0.00  0.00    +0.000 A 
ATOM     33  C   UNL     1      46.681   3.524   6.257  0.00  0.00    +0.000 A 
ATOM     34  C   UNL     1      47.306   2.583   5.457  0.00  0.00    +0.000 A 
ATOM     35  N   UNL     1      47.532   1.309   5.835  0.00  0.00    +0.000 NA
ATOM     36  C   UNL     1      47.136   0.954   7.077  0.00  0.00    +0.000 A 
ATOM     37  C   UNL     1      46.508   1.820   7.955  0.00  0.00    +0.000 A 
ENDBRANCH  29  32
ENDBRANCH  27  28
ENDBRANCH  24  27
ENDBRANCH  20  21
ENDBRANCH   1  20
TORSDOF 9
ENDMDL
MODEL 3
REMARK VINA RESULT:    -8.367      1.161      1.536
REMARK INTER + INTRA:         -14.126
REMARK INTER:                 -12.953
REMARK INTRA:                  -1.173
REMARK UNBOUND:                -1.357
REMARK  Name = 
REMARK  9 active torsions:
REMARK  status: ('A' for Active; 'I' for Inactive)
REMARK    1  A    between atoms: C_2  and  C_3
REMARK    2  A    between atoms: C_2  and  O_17
REMARK    3  A    between atoms: C_3  and  N_4
REMARK    4  A    between atoms: C_5  and  C_7
REMARK    5  A    between atoms: O_17  and  C_18
REMARK    6  A    between atoms: C_18  and  C_19
REMARK    7  A    between atoms: C_22  and  C_23
REMARK    8  A    between atoms: C_23  and  N_24
REMARK    9  A    between atoms: C_25  and  C_27
REMARK                            x       y       z     vdW  Elec       q    Type
REMARK                         _______ _______ _______ _____ _____    ______ ____
ROOT
ATOM      1  O   UNL     1      48.218   5.360  14.554  0.00  0.00    +0.000 OA
ENDROOT
BRANCH   1   3
ATOM      2  O   UNL     1      48.736   7.567  14.176  0.00  0.00    +0.000 OA
ATOM      3  C   UNL     1      48.589   6.611  14.929  0.00  0.00    +0.000 C 
BRANCH   3   4
ATOM      4  C   UNL     1      48.724   6.698  16.440  0.00  0.00    +0.000 C 
BRANCH   4   5
ATOM      5  N   UNL     1      49.875   5.954  16.906  0.00  0.00    +0.000 N 
ATOM      6  C   UNL     1      49.743   4.954  17.838  0.00  0.00    +0.000 C 
ATOM      7  O   UNL     1      48.648   4.594  18.259  0.00  0.00    +0.000 OA
ATOM      8  H   UNL     1      50.786   6.384  16.764  0.00  0.00    +0.000 HD
BRANCH   6   9
ATOM      9  C   UNL     1      50.978   4.282  18.254  0.00  0.00    +0.000 A 
ATOM     10  C   UNL     1      51.895   4.957  19.049  0.00  0.00    +0.000 A 
ATOM     11  S   UNL     1      53.248   4.013  19.481  0.00  0.00    +0.000 S 
ATOM     12  C   UNL     1      52.680   2.687  18.578  0.00  0.00    +0.000 A 
ATOM     13  N   UNL     1      53.392   1.532  18.504  0.00  0.00    +0.000 NA
ATOM     14  C   UNL     1      52.861   0.625  17.752  0.00  0.00    +0.000 A 
ATOM     15  N   UNL     1      51.680   0.768  17.070  0.00  0.00    +0.000 N 
ATOM     16  C   UNL     1      50.905   1.900  17.152  0.00  0.00    +0.000 A 
ATOM     17  O   UNL     1      49.816   1.974  16.594  0.00  0.00    +0.000 OA
ATOM     18  C   UNL     1      51.468   2.957  17.968  0.00  0.00    +0.000 A 
ATOM     19  H   UNL     1      51.313   0.014  16.509  0.00  0.00    +0.000 HD
ENDBRANCH   6   9
ENDBRANCH   4   5
ENDBRANCH   3   4
ENDBRANCH   1   3
BRANCH   1  20
ATOM     20  C   UNL     1      46.890   4.954  14.899  0.00  0.00    +0.000 C 
BRANCH  20  21
ATOM     21  C   UNL     1      46.108   4.749  13.626  0.00  0.00    +0.000 A 
ATOM     22  C   UNL     1      45.897   3.466  13.105  0.00  0.00    +0.000 A 
ATOM     23  C   UNL     1      45.164   3.290  11.928  0.00  0.00    +0.000 A 
ATOM     24  C   UNL     1      44.638   4.394  11.242  0.00  0.00    +0.000 A 
ATOM     25  C   UNL     1      44.840   5.675  11.769  0.00  0.00    +0.000 A 
ATOM     26  C   UNL     1      45.570   5.851  12.948  0.00  0.00    +0.000 A 
BRANCH  24  27
ATOM     27  C   UNL     1      43.852   4.207   9.970  0.00  0.00    +0.000 C 
BRANCH  27  28
ATOM     28  N   UNL     1      44.597   3.449   8.990  0.00  0.00    +0.000 N 
ATOM     29  C   UNL     1      45.660   4.024   8.334  0.00  0.00    +0.000 C 
ATOM     30  O   UNL     1      46.023   5.182   8.513  0.00  0.00    +0.000 OA
ATOM     31  H   UNL     1      44.482   2.445   8.988  0.00  0.00    +0.000 HD
BRANCH  29  32
ATOM     32  C   UNL     1      46.405   3.153   7.384  0.00  0.00    +0.000 A 
ATOM     33  C   UNL     1      46.795   3.611   6.126  0.00  0.00    +0.000 A 
ATOM     34  C   UNL     1      47.494   2.738   5.309  0.00  0.00    +0.000 A 
ATOM     35  N   UNL     1      47.815   1.477   5.661  0.00  0.00    +0.000 NA
ATOM     36  C   UNL     1      47.442   1.065   6.892  0.00  0.00    +0.000 A 
ATOM     37  C   UNL     1      46.745   1.861   7.785  0.00  0.00    +0.000 A 
ENDBRANCH  29  32
ENDBRANCH  27  28
ENDBRANCH  24  27
ENDBRANCH  20  21
ENDBRANCH   1  20
TORSDOF 9
ENDMDL
MODEL 4
REMARK VINA RESULT:    -8.073      2.207      3.796
REMARK INTER + INTRA:         -13.677
REMARK INTER:                 -12.237
REMARK INTRA:                  -1.440
REMARK UNBOUND:                -1.357
REMARK  Name = 
REMARK  9 active torsions:
REMARK  status: ('A' for Active; 'I' for Inactive)
REMARK    1  A    between atoms: C_2  and  C_3
REMARK    2  A    between atoms: C_2  and  O_17
REMARK    3  A    between atoms: C_3  and  N_4
REMARK    4  A    between atoms: C_5  and  C_7
REMARK    5  A    between atoms: O_17  and  C_18
REMARK    6  A    between atoms: C_18  and  C_19
REMARK    7  A    between atoms: C_22  and  C_23
REMARK    8  A    between atoms: C_23  and  N_24
REMARK    9  A    between atoms: C_25  and  C_27
REMARK                            x       y       z     vdW  Elec       q    Type
REMARK                         _______ _______ _______ _____ _____    ______ ____
ROOT
ATOM      1  O   UNL     1      47.879   3.765  15.548  0.00  0.00    +0.000 OA
ENDROOT
BRANCH   1   3
ATOM      2  O   UNL     1      46.427   3.226  17.246  0.00  0.00    +0.000 OA
ATOM      3  C   UNL     1      47.563   3.365  16.806  0.00  0.00    +0.000 C 
BRANCH   3   4
ATOM      4  C   UNL     1      48.819   3.031  17.593  0.00  0.00    +0.000 C 
BRANCH   4   5
ATOM      5  N   UNL     1      49.235   4.148  18.414  0.00  0.00    +0.000 N 
ATOM      6  C   UNL     1      50.291   4.945  18.045  0.00  0.00    +0.000 C 
ATOM      7  O   UNL     1      50.878   4.799  16.977  0.00  0.00    +0.000 OA
ATOM      8  H   UNL     1      48.937   4.138  19.386  0.00  0.00    +0.000 HD
BRANCH   6   9
ATOM      9  C   UNL     1      50.640   6.034  18.963  0.00  0.00    +0.000 A 
ATOM     10  C   UNL     1      51.940   6.146  19.437  0.00  0.00    +0.000 A 
ATOM     11  S   UNL     1      52.182   7.495  20.451  0.00  0.00    +0.000 S 
ATOM     12  C   UNL     1      50.545   7.946  20.333  0.00  0.00    +0.000 A 
ATOM     13  N   UNL     1      50.068   9.032  20.997  0.00  0.00    +0.000 NA
ATOM     14  C   UNL     1      48.800   9.232  20.848  0.00  0.00    +0.000 A 
ATOM     15  N   UNL     1      47.967   8.447  20.093  0.00  0.00    +0.000 N 
ATOM     16  C   UNL     1      48.414   7.368  19.369  0.00  0.00    +0.000 A 
ATOM     17  O   UNL     1      47.665   6.728  18.641  0.00  0.00    +0.000 OA
ATOM     18  C   UNL     1      49.829   7.088  19.520  0.00  0.00    +0.000 A 
ATOM     19  H   UNL     1      46.986   8.667  20.008  0.00  0.00    +0.000 HD
ENDBRANCH   6   9
ENDBRANCH   4   5
ENDBRANCH   3   4
ENDBRANCH   1   3
BRANCH   1  20
ATOM     20  C   UNL     1      47.395   5.049  15.142  0.00  0.00    +0.000 C 
BRANCH  20  21
ATOM     21  C   UNL     1      46.512   4.866  13.933  0.00  0.00    +0.000 A 
ATOM     22  C   UNL     1      45.966   5.967  13.262  0.00  0.00    +0.000 A 
ATOM     23  C   UNL     1      45.156   5.783  12.138  0.00  0.00    +0.000 A 
ATOM     24  C   UNL     1      44.864   4.493  11.671  0.00  0.00    +0.000 A 
ATOM     25  C   UNL     1      45.419   3.393  12.337  0.00  0.00    +0.000 A 
ATOM     26  C   UNL     1      46.233   3.577  13.457  0.00  0.00    +0.000 A 
BRANCH  24  27
ATOM     27  C   UNL     1      43.987   4.291  10.463  0.00  0.00    +0.000 C 
BRANCH  27  28
ATOM     28  N   UNL     1      44.628   3.455   9.473  0.00  0.00    +0.000 N 
ATOM     29  C   UNL     1      45.566   3.989   8.620  0.00  0.00    +0.000 C 
ATOM     30  O   UNL     1      45.895   5.171   8.626  0.00  0.00    +0.000 OA
ATOM     31  H   UNL     1      44.561   2.453   9.591  0.00  0.00    +0.000 HD
BRANCH  29  32
ATOM     32  C   UNL     1      46.216   3.044   7.671  0.00  0.00    +0.000 A 
ATOM     33  C   UNL     1      46.681   3.464   6.426  0.00  0.00    +0.000 A 
ATOM     34  C   UNL     1      47.282   2.521   5.609  0.00  0.00    +0.000 A 
ATOM     35  N   UNL     1      47.443   1.227   5.951  0.00  0.00    +0.000 NA
ATOM     36  C   UNL     1      47.001   0.851   7.171  0.00  0.00    +0.000 A 
ATOM     37  C   UNL     1      46.390   1.716   8.062  0.00  0.00    +0.000 A 
ENDBRANCH  29  32
ENDBRANCH  27  28
ENDBRANCH  24  27
ENDBRANCH  20  21
ENDBRANCH   1  20
TORSDOF 9
ENDMDL
MODEL 5
REMARK VINA RESULT:    -8.033      3.135      4.342
REMARK INTER + INTRA:         -13.616
REMARK INTER:                 -12.407
REMARK INTRA:                  -1.209
REMARK UNBOUND:                -1.357
REMARK  Name = 
REMARK  9 active torsions:
REMARK  status: ('A' for Active; 'I' for Inactive)
REMARK    1  A    between atoms: C_2  and  C_3
REMARK    2  A    between atoms: C_2  and  O_17
REMARK    3  A    between atoms: C_3  and  N_4
REMARK    4  A    between atoms: C_5  and  C_7
REMARK    5  A    between atoms: O_17  and  C_18
REMARK    6  A    between atoms: C_18  and  C_19
REMARK    7  A    between atoms: C_22  and  C_23
REMARK    8  A    between atoms: C_23  and  N_24
REMARK    9  A    between atoms: C_25  and  C_27
REMARK                            x       y       z     vdW  Elec       q    Type
REMARK                         _______ _______ _______ _____ _____    ______ ____
ROOT
ATOM      1  O   UNL     1      46.275   8.893  13.227  0.00  0.00    +0.000 OA
ENDROOT
BRANCH   1   3
ATOM      2  O   UNL     1      47.461  10.702  12.451  0.00  0.00    +0.000 OA
ATOM      3  C   UNL     1      47.408   9.557  12.884  0.00  0.00    +0.000 C 
BRANCH   3   4
ATOM      4  C   UNL     1      48.635   8.711  13.183  0.00  0.00    +0.000 C 
BRANCH   4   5
ATOM      5  N   UNL     1      48.477   7.982  14.424  0.00  0.00    +0.000 N 
ATOM      6  C   UNL     1      49.541   7.344  15.012  0.00  0.00    +0.000 C 
ATOM      7  O   UNL     1      50.681   7.424  14.563  0.00  0.00    +0.000 OA
ATOM      8  H   UNL     1      47.532   7.703  14.674  0.00  0.00    +0.000 HD
BRANCH   6   9
ATOM      9  C   UNL     1      49.262   6.617  16.255  0.00  0.00    +0.000 A 
ATOM     10  C   UNL     1      49.792   7.074  17.454  0.00  0.00    +0.000 A 
ATOM     11  S   UNL     1      49.327   6.142  18.804  0.00  0.00    +0.000 S 
ATOM     12  C   UNL     1      48.444   5.066  17.825  0.00  0.00    +0.000 A 
ATOM     13  N   UNL     1      47.798   3.997  18.363  0.00  0.00    +0.000 NA
ATOM     14  C   UNL     1      47.202   3.244  17.499  0.00  0.00    +0.000 A 
ATOM     15  N   UNL     1      47.190   3.465  16.146  0.00  0.00    +0.000 N 
ATOM     16  C   UNL     1      47.790   4.556  15.563  0.00  0.00    +0.000 A 
ATOM     17  O   UNL     1      47.700   4.772  14.360  0.00  0.00    +0.000 OA
ATOM     18  C   UNL     1      48.491   5.422  16.490  0.00  0.00    +0.000 A 
ATOM     19  H   UNL     1      46.693   2.843  15.525  0.00  0.00    +0.000 HD
ENDBRANCH   6   9
ENDBRANCH   4   5
ENDBRANCH   3   4
ENDBRANCH   1   3
BRANCH   1  20
ATOM     20  C   UNL     1      45.225   8.872  12.255  0.00  0.00    +0.000 C 
BRANCH  20  21
ATOM     21  C   UNL     1      44.873   7.435  11.964  0.00  0.00    +0.000 A 
ATOM     22  C   UNL     1      45.807   6.409  12.153  0.00  0.00    +0.000 A 
ATOM     23  C   UNL     1      45.464   5.079  11.886  0.00  0.00    +0.000 A 
ATOM     24  C   UNL     1      44.186   4.752  11.412  0.00  0.00    +0.000 A 
ATOM     25  C   UNL     1      43.250   5.778  11.232  0.00  0.00    +0.000 A 
ATOM     26  C   UNL     1      43.590   7.106  11.503  0.00  0.00    +0.000 A 
BRANCH  24  27
ATOM     27  C   UNL     1      43.816   3.322  11.118  0.00  0.00    +0.000 C 
BRANCH  27  28
ATOM     28  N   UNL     1      44.777   2.693  10.239  0.00  0.00    +0.000 N 
ATOM     29  C   UNL     1      44.900   3.114   8.935  0.00  0.00    +0.000 C 
ATOM     30  O   UNL     1      44.215   4.003   8.441  0.00  0.00    +0.000 OA
ATOM     31  H   UNL     1      45.506   2.135  10.663  0.00  0.00    +0.000 HD
BRANCH  29  32
ATOM     32  C   UNL     1      45.953   2.450   8.119  0.00  0.00    +0.000 A 
ATOM     33  C   UNL     1      46.146   1.070   8.158  0.00  0.00    +0.000 A 
ATOM     34  C   UNL     1      47.141   0.533   7.358  0.00  0.00    +0.000 A 
ATOM     35  N   UNL     1      47.929   1.269   6.547  0.00  0.00    +0.000 NA
ATOM     36  C   UNL     1      47.708   2.601   6.514  0.00  0.00    +0.000 A 
ATOM     37  C   UNL     1      46.736   3.233   7.271  0.00  0.00    +0.000 A 
ENDBRANCH  29  32
ENDBRANCH  27  28
ENDBRANCH  24  27
ENDBRANCH  20  21
ENDBRANCH   1  20
TORSDOF 9
ENDMDL
MODEL 6
REMARK VINA RESULT:    -7.866      2.759      3.884
REMARK INTER + INTRA:         -13.362
REMARK INTER:                 -11.993
REMARK INTRA:                  -1.368
REMARK UNBOUND:                -1.357
REMARK  Name = 
REMARK  9 active torsions:
REMARK  status: ('A' for Active; 'I' for Inactive)
REMARK    1  A    between atoms: C_2  and  C_3
REMARK    2  A    between atoms: C_2  and  O_17
REMARK    3  A    between atoms: C_3  and  N_4
REMARK    4  A    between atoms: C_5  and  C_7
REMARK    5  A    between atoms: O_17  and  C_18
REMARK    6  A    between atoms: C_18  and  C_19
REMARK    7  A    between atoms: C_22  and  C_23
REMARK    8  A    between atoms: C_23  and  N_24
REMARK    9  A    between atoms: C_25  and  C_27
REMARK                            x       y       z     vdW  Elec       q    Type
REMARK                         _______ _______ _______ _____ _____    ______ ____
ROOT
ATOM      1  O   UNL     1      47.381   8.813  13.753  0.00  0.00    +0.000 OA
ENDROOT
BRANCH   1   3
ATOM      2  O   UNL     1      49.289   8.966  12.481  0.00  0.00    +0.000 OA
ATOM      3  C   UNL     1      48.714   8.990  13.563  0.00  0.00    +0.000 C 
BRANCH   3   4
ATOM      4  C   UNL     1      49.404   9.307  14.879  0.00  0.00    +0.000 C 
BRANCH   4   5
ATOM      5  N   UNL     1      49.236   8.228  15.830  0.00  0.00    +0.000 N 
ATOM      6  C   UNL     1      50.195   7.257  15.978  0.00  0.00    +0.000 C 
ATOM      7  O   UNL     1      51.263   7.296  15.374  0.00  0.00    +0.000 OA
ATOM      8  H   UNL     1      48.289   8.043  16.150  0.00  0.00    +0.000 HD
BRANCH   6   9
ATOM      9  C   UNL     1      49.910   6.201  16.954  0.00  0.00    +0.000 A 
ATOM     10  C   UNL     1      50.671   6.110  18.112  0.00  0.00    +0.000 A 
ATOM     11  S   UNL     1      50.173   4.859  19.159  0.00  0.00    +0.000 S 
ATOM     12  C   UNL     1      48.957   4.363  18.076  0.00  0.00    +0.000 A 
ATOM     13  N   UNL     1      48.156   3.302  18.360  0.00  0.00    +0.000 NA
ATOM     14  C   UNL     1      47.304   3.015  17.431  0.00  0.00    +0.000 A 
ATOM     15  N   UNL     1      47.179   3.694  16.247  0.00  0.00    +0.000 N 
ATOM     16  C   UNL     1      47.936   4.799  15.938  0.00  0.00    +0.000 A 
ATOM     17  O   UNL     1      47.753   5.435  14.907  0.00  0.00    +0.000 OA
ATOM     18  C   UNL     1      48.923   5.151  16.940  0.00  0.00    +0.000 A 
ATOM     19  H   UNL     1      46.483   3.425  15.568  0.00  0.00    +0.000 HD
ENDBRANCH   6   9
ENDBRANCH   4   5
ENDBRANCH   3   4
ENDBRANCH   1   3
BRANCH   1  20
ATOM     20  C   UNL     1      46.532   9.087  12.634  0.00  0.00    +0.000 C 
BRANCH  20  21
ATOM     21  C   UNL     1      45.902   7.792  12.184  0.00  0.00    +0.000 A 
ATOM     22  C   UNL     1      46.653   6.613  12.101  0.00  0.00    +0.000 A 
ATOM     23  C   UNL     1      46.054   5.418  11.690  0.00  0.00    +0.000 A 
ATOM     24  C   UNL     1      44.696   5.382  11.342  0.00  0.00    +0.000 A 
ATOM     25  C   UNL     1      43.944   6.560  11.436  0.00  0.00    +0.000 A 
ATOM     26  C   UNL     1      44.541   7.753  11.850  0.00  0.00    +0.000 A 
BRANCH  24  27
ATOM     27  C   UNL     1      44.049   4.098  10.894  0.00  0.00    +0.000 C 
BRANCH  27  28
ATOM     28  N   UNL     1      44.945   3.307  10.079  0.00  0.00    +0.000 N 
ATOM     29  C   UNL     1      45.016   3.522   8.722  0.00  0.00    +0.000 C 
ATOM     30  O   UNL     1      44.335   4.352   8.129  0.00  0.00    +0.000 OA
ATOM     31  H   UNL     1      45.675   2.791  10.550  0.00  0.00    +0.000 HD
BRANCH  29  32
ATOM     32  C   UNL     1      46.005   2.702   7.970  0.00  0.00    +0.000 A 
ATOM     33  C   UNL     1      46.882   3.276   7.051  0.00  0.00    +0.000 A 
ATOM     34  C   UNL     1      47.777   2.441   6.403  0.00  0.00    +0.000 A 
ATOM     35  N   UNL     1      47.847   1.110   6.612  0.00  0.00    +0.000 NA
ATOM     36  C   UNL     1      46.999   0.583   7.522  0.00  0.00    +0.000 A 
ATOM     37  C   UNL     1      46.071   1.332   8.226  0.00  0.00    +0.000 A 
ENDBRANCH  29  32
ENDBRANCH  27  28
ENDBRANCH  24  27
ENDBRANCH  20  21
ENDBRANCH   1  20
TORSDOF 9
ENDMDL
MODEL 7
REMARK VINA RESULT:    -7.716      2.523      3.598
REMARK INTER + INTRA:         -13.132
REMARK INTER:                 -11.978
REMARK INTRA:                  -1.155
REMARK UNBOUND:                -1.357
REMARK  Name = 
REMARK  9 active torsions:
REMARK  status: ('A' for Active; 'I' for Inactive)
REMARK    1  A    between atoms: C_2  and  C_3
REMARK    2  A    between atoms: C_2  and  O_17
REMARK    3  A    between atoms: C_3  and  N_4
REMARK    4  A    between atoms: C_5  and  C_7
REMARK    5  A    between atoms: O_17  and  C_18
REMARK    6  A    between atoms: C_18  and  C_19
REMARK    7  A    between atoms: C_22  and  C_23
REMARK    8  A    between atoms: C_23  and  N_24
REMARK    9  A    between atoms: C_25  and  C_27
REMARK                            x       y       z     vdW  Elec       q    Type
REMARK                         _______ _______ _______ _____ _____    ______ ____
ROOT
ATOM      1  O   UNL     1      47.218   8.124  13.946  0.00  0.00    +0.000 OA
ENDROOT
BRANCH   1   3
ATOM      2  O   UNL     1      48.239  10.023  13.150  0.00  0.00    +0.000 OA
ATOM      3  C   UNL     1      48.234   9.019  13.854  0.00  0.00    +0.000 C 
BRANCH   3   4
ATOM      4  C   UNL     1      49.356   8.655  14.812  0.00  0.00    +0.000 C 
BRANCH   4   5
ATOM      5  N   UNL     1      49.289   7.259  15.189  0.00  0.00    +0.000 N 
ATOM      6  C   UNL     1      49.085   6.886  16.495  0.00  0.00    +0.000 C 
ATOM      7  O   UNL     1      48.874   7.706  17.383  0.00  0.00    +0.000 OA
ATOM      8  H   UNL     1      49.694   6.590  14.539  0.00  0.00    +0.000 HD
BRANCH   6   9
ATOM      9  C   UNL     1      49.058   5.445  16.766  0.00  0.00    +0.000 A 
ATOM     10  C   UNL     1      47.856   4.754  16.700  0.00  0.00    +0.000 A 
ATOM     11  S   UNL     1      48.013   3.082  16.992  0.00  0.00    +0.000 S 
ATOM     12  C   UNL     1      49.686   3.233  17.268  0.00  0.00    +0.000 A 
ATOM     13  N   UNL     1      50.443   2.151  17.596  0.00  0.00    +0.000 NA
ATOM     14  C   UNL     1      51.688   2.420  17.815  0.00  0.00    +0.000 A 
ATOM     15  N   UNL     1      52.245   3.670  17.733  0.00  0.00    +0.000 N 
ATOM     16  C   UNL     1      51.528   4.782  17.361  0.00  0.00    +0.000 A 
ATOM     17  O   UNL     1      52.066   5.874  17.221  0.00  0.00    +0.000 OA
ATOM     18  C   UNL     1      50.119   4.538  17.124  0.00  0.00    +0.000 A 
ATOM     19  H   UNL     1      53.230   3.809  17.905  0.00  0.00    +0.000 HD
ENDBRANCH   6   9
ENDBRANCH   4   5
ENDBRANCH   3   4
ENDBRANCH   1   3
BRANCH   1  20
ATOM     20  C   UNL     1      46.034   8.420  13.198  0.00  0.00    +0.000 C 
BRANCH  20  21
ATOM     21  C   UNL     1      45.480   7.128  12.651  0.00  0.00    +0.000 A 
ATOM     22  C   UNL     1      44.410   7.123  11.749  0.00  0.00    +0.000 A 
ATOM     23  C   UNL     1      43.912   5.918  11.244  0.00  0.00    +0.000 A 
ATOM     24  C   UNL     1      44.466   4.693  11.642  0.00  0.00    +0.000 A 
ATOM     25  C   UNL     1      45.544   4.699  12.537  0.00  0.00    +0.000 A 
ATOM     26  C   UNL     1      46.044   5.904  13.038  0.00  0.00    +0.000 A 
BRANCH  24  27
ATOM     27  C   UNL     1      43.929   3.393  11.104  0.00  0.00    +0.000 C 
BRANCH  27  28
ATOM     28  N   UNL     1      44.874   2.751  10.218  0.00  0.00    +0.000 N 
ATOM     29  C   UNL     1      44.970   3.148   8.905  0.00  0.00    +0.000 C 
ATOM     30  O   UNL     1      44.271   4.026   8.408  0.00  0.00    +0.000 OA
ATOM     31  H   UNL     1      45.613   2.204  10.638  0.00  0.00    +0.000 HD
BRANCH  29  32
ATOM     32  C   UNL     1      46.009   2.473   8.080  0.00  0.00    +0.000 A 
ATOM     33  C   UNL     1      46.169   1.088   8.097  0.00  0.00    +0.000 A 
ATOM     34  C   UNL     1      47.153   0.541   7.290  0.00  0.00    +0.000 A 
ATOM     35  N   UNL     1      47.960   1.271   6.494  0.00  0.00    +0.000 NA
ATOM     36  C   UNL     1      47.770   2.608   6.482  0.00  0.00    +0.000 A 
ATOM     37  C   UNL     1      46.813   3.251   7.246  0.00  0.00    +0.000 A 
ENDBRANCH  29  32
ENDBRANCH  27  28
ENDBRANCH  24  27
ENDBRANCH  20  21
ENDBRANCH   1  20
TORSDOF 9
ENDMDL
MODEL 8
REMARK VINA RESULT:    -7.665      2.588      4.002
REMARK INTER + INTRA:         -13.054
REMARK INTER:                 -11.889
REMARK INTRA:                  -1.165
REMARK UNBOUND:                -1.357
REMARK  Name = 
REMARK  9 active torsions:
REMARK  status: ('A' for Active; 'I' for Inactive)
REMARK    1  A    between atoms: C_2  and  C_3
REMARK    2  A    between atoms: C_2  and  O_17
REMARK    3  A    between atoms: C_3  and  N_4
REMARK    4  A    between atoms: C_5  and  C_7
REMARK    5  A    between atoms: O_17  and  C_18
REMARK    6  A    between atoms: C_18  and  C_19
REMARK    7  A    between atoms: C_22  and  C_23
REMARK    8  A    between atoms: C_23  and  N_24
REMARK    9  A    between atoms: C_25  and  C_27
REMARK                            x       y       z     vdW  Elec       q    Type
REMARK                         _______ _______ _______ _____ _____    ______ ____
ROOT
ATOM      1  O   UNL     1      47.774   3.982  15.430  0.00  0.00    +0.000 OA
ENDROOT
BRANCH   1   3
ATOM      2  O   UNL     1      46.432   3.208  17.127  0.00  0.00    +0.000 OA
ATOM      3  C   UNL     1      47.509   3.616  16.710  0.00  0.00    +0.000 C 
BRANCH   3   4
ATOM      4  C   UNL     1      48.765   3.703  17.562  0.00  0.00    +0.000 C 
BRANCH   4   5
ATOM      5  N   UNL     1      49.183   5.078  17.738  0.00  0.00    +0.000 N 
ATOM      6  C   UNL     1      50.459   5.476  17.424  0.00  0.00    +0.000 C 
ATOM      7  O   UNL     1      51.274   4.715  16.913  0.00  0.00    +0.000 OA
ATOM      8  H   UNL     1      48.626   5.648  18.369  0.00  0.00    +0.000 HD
BRANCH   6   9
ATOM      9  C   UNL     1      50.780   6.887  17.664  0.00  0.00    +0.000 A 
ATOM     10  C   UNL     1      51.119   7.309  18.943  0.00  0.00    +0.000 A 
ATOM     11  S   UNL     1      51.511   8.966  19.033  0.00  0.00    +0.000 S 
ATOM     12  C   UNL     1      51.191   9.187  17.376  0.00  0.00    +0.000 A 
ATOM     13  N   UNL     1      51.314  10.411  16.795  0.00  0.00    +0.000 NA
ATOM     14  C   UNL     1      51.001  10.439  15.542  0.00  0.00    +0.000 A 
ATOM     15  N   UNL     1      50.580   9.355  14.816  0.00  0.00    +0.000 N 
ATOM     16  C   UNL     1      50.485   8.092  15.349  0.00  0.00    +0.000 A 
ATOM     17  O   UNL     1      50.180   7.126  14.661  0.00  0.00    +0.000 OA
ATOM     18  C   UNL     1      50.805   8.010  16.761  0.00  0.00    +0.000 A 
ATOM     19  H   UNL     1      50.363   9.443  13.834  0.00  0.00    +0.000 HD
ENDBRANCH   6   9
ENDBRANCH   4   5
ENDBRANCH   3   4
ENDBRANCH   1   3
BRANCH   1  20
ATOM     20  C   UNL     1      47.243   5.239  15.000  0.00  0.00    +0.000 C 
BRANCH  20  21
ATOM     21  C   UNL     1      46.394   5.005  13.776  0.00  0.00    +0.000 A 
ATOM     22  C   UNL     1      45.918   6.075  13.010  0.00  0.00    +0.000 A 
ATOM     23  C   UNL     1      45.137   5.843  11.873  0.00  0.00    +0.000 A 
ATOM     24  C   UNL     1      44.807   4.536  11.489  0.00  0.00    +0.000 A 
ATOM     25  C   UNL     1      45.292   3.465  12.250  0.00  0.00    +0.000 A 
ATOM     26  C   UNL     1      46.075   3.697  13.384  0.00  0.00    +0.000 A 
BRANCH  24  27
ATOM     27  C   UNL     1      43.961   4.282  10.268  0.00  0.00    +0.000 C 
BRANCH  27  28
ATOM     28  N   UNL     1      44.661   3.473   9.295  0.00  0.00    +0.000 N 
ATOM     29  C   UNL     1      45.613   4.040   8.480  0.00  0.00    +0.000 C 
ATOM     30  O   UNL     1      45.908   5.230   8.506  0.00  0.00    +0.000 OA
ATOM     31  H   UNL     1      44.618   2.469   9.402  0.00  0.00    +0.000 HD
BRANCH  29  32
ATOM     32  C   UNL     1      46.322   3.122   7.547  0.00  0.00    +0.000 A 
ATOM     33  C   UNL     1      46.830   3.568   6.328  0.00  0.00    +0.000 A 
ATOM     34  C   UNL     1      47.486   2.649   5.526  0.00  0.00    +0.000 A 
ATOM     35  N   UNL     1      47.660   1.354   5.858  0.00  0.00    +0.000 NA
ATOM     36  C   UNL     1      47.175   0.953   7.053  0.00  0.00    +0.000 A 
ATOM     37  C   UNL     1      46.509   1.793   7.929  0.00  0.00    +0.000 A 
ENDBRANCH  29  32
ENDBRANCH  27  28
ENDBRANCH  24  27
ENDBRANCH  20  21
ENDBRANCH   1  20
TORSDOF 9
ENDMDL
MODEL 9
REMARK VINA RESULT:    -7.593      3.148      9.826
REMARK INTER + INTRA:         -12.944
REMARK INTER:                 -11.373
REMARK INTRA:                  -1.571
REMARK UNBOUND:                -1.357
REMARK  Name = 
REMARK  9 active torsions:
REMARK  status: ('A' for Active; 'I' for Inactive)
REMARK    1  A    between atoms: C_2  and  C_3
REMARK    2  A    between atoms: C_2  and  O_17
REMARK    3  A    between atoms: C_3  and  N_4
REMARK    4  A    between atoms: C_5  and  C_7
REMARK    5  A    between atoms: O_17  and  C_18
REMARK    6  A    between atoms: C_18  and  C_19
REMARK    7  A    between atoms: C_22  and  C_23
REMARK    8  A    between atoms: C_23  and  N_24
REMARK    9  A    between atoms: C_25  and  C_27
REMARK                            x       y       z     vdW  Elec       q    Type
REMARK                         _______ _______ _______ _____ _____    ______ ____
ROOT
ATOM      1  O   UNL     1      47.244   7.811  12.349  0.00  0.00    +0.000 OA
ENDROOT
BRANCH   1   3
ATOM      2  O   UNL     1      46.828  10.025  11.893  0.00  0.00    +0.000 OA
ATOM      3  C   UNL     1      46.455   8.864  12.012  0.00  0.00    +0.000 C 
BRANCH   3   4
ATOM      4  C   UNL     1      45.039   8.398  11.719  0.00  0.00    +0.000 C 
BRANCH   4   5
ATOM      5  N   UNL     1      44.997   6.971  11.478  0.00  0.00    +0.000 N 
ATOM      6  C   UNL     1      43.803   6.318  11.289  0.00  0.00    +0.000 C 
ATOM      7  O   UNL     1      42.733   6.916  11.238  0.00  0.00    +0.000 OA
ATOM      8  H   UNL     1      45.817   6.436  11.753  0.00  0.00    +0.000 HD
BRANCH   6   9
ATOM      9  C   UNL     1      43.878   4.870  11.076  0.00  0.00    +0.000 A 
ATOM     10  C   UNL     1      43.208   4.011  11.937  0.00  0.00    +0.000 A 
ATOM     11  S   UNL     1      43.359   2.366  11.514  0.00  0.00    +0.000 S 
ATOM     12  C   UNL     1      44.368   2.742  10.196  0.00  0.00    +0.000 A 
ATOM     13  N   UNL     1      44.882   1.762   9.405  0.00  0.00    +0.000 NA
ATOM     14  C   UNL     1      45.662   2.189   8.468  0.00  0.00    +0.000 A 
ATOM     15  N   UNL     1      45.972   3.506   8.247  0.00  0.00    +0.000 N 
ATOM     16  C   UNL     1      45.440   4.532   8.992  0.00  0.00    +0.000 A 
ATOM     17  O   UNL     1      45.672   5.705   8.727  0.00  0.00    +0.000 OA
ATOM     18  C   UNL     1      44.573   4.103  10.072  0.00  0.00    +0.000 A 
ATOM     19  H   UNL     1      46.579   3.775   7.487  0.00  0.00    +0.000 HD
ENDBRANCH   6   9
ENDBRANCH   4   5
ENDBRANCH   3   4
ENDBRANCH   1   3
BRANCH   1  20
ATOM     20  C   UNL     1      48.143   8.010  13.445  0.00  0.00    +0.000 C 
BRANCH  20  21
ATOM     21  C   UNL     1      48.057   6.810  14.355  0.00  0.00    +0.000 A 
ATOM     22  C   UNL     1      47.288   5.693  14.010  0.00  0.00    +0.000 A 
ATOM     23  C   UNL     1      47.223   4.585  14.860  0.00  0.00    +0.000 A 
ATOM     24  C   UNL     1      47.917   4.578  16.079  0.00  0.00    +0.000 A 
ATOM     25  C   UNL     1      48.694   5.692  16.419  0.00  0.00    +0.000 A 
ATOM     26  C   UNL     1      48.762   6.798  15.567  0.00  0.00    +0.000 A 
BRANCH  24  27
ATOM     27  C   UNL     1      47.845   3.388  17.000  0.00  0.00    +0.000 C 
BRANCH  27  28
ATOM     28  N   UNL     1      49.133   3.088  17.584  0.00  0.00    +0.000 N 
ATOM     29  C   UNL     1      50.011   2.254  16.931  0.00  0.00    +0.000 C 
ATOM     30  O   UNL     1      49.762   1.710  15.860  0.00  0.00    +0.000 OA
ATOM     31  H   UNL     1      49.462   3.688  18.327  0.00  0.00    +0.000 HD
BRANCH  29  32
ATOM     32  C   UNL     1      51.336   2.046  17.577  0.00  0.00    +0.000 A 
ATOM     33  C   UNL     1      51.993   0.817  17.517  0.00  0.00    +0.000 A 
ATOM     34  C   UNL     1      53.227   0.714  18.136  0.00  0.00    +0.000 A 
ATOM     35  N   UNL     1      53.825   1.730  18.790  0.00  0.00    +0.000 NA
ATOM     36  C   UNL     1      53.175   2.914  18.816  0.00  0.00    +0.000 A 
ATOM     37  C   UNL     1      51.941   3.122  18.225  0.00  0.00    +0.000 A 
ENDBRANCH  29  32
ENDBRANCH  27  28
ENDBRANCH  24  27
ENDBRANCH  20  21
ENDBRANCH   1  20
TORSDOF 9
ENDMDL
