MODEL 1
REMARK VINA RESULT:    -9.345      0.000      0.000
REMARK INTER + INTRA:         -12.514
REMARK INTER:                 -12.077
REMARK INTRA:                  -0.438
REMARK UNBOUND:                -0.438
REMARK  Name = 
REMARK  5 active torsions:
REMARK  status: ('A' for Active; 'I' for Inactive)
REMARK    1  A    between atoms: C_8  and  C_9
REMARK    2  A    between atoms: N_11  and  C_12
REMARK    3  A    between atoms: C_12  and  C_13
REMARK    4  A    between atoms: C_16  and  O_17
REMARK    5  A    between atoms: O_17  and  C_18
REMARK                            x       y       z     vdW  Elec       q    Type
REMARK                         _______ _______ _______ _____ _____    ______ ____
ROOT
ATOM      1  C   UNL     1      46.498   4.339  14.225  0.00  0.00    +0.000 C 
ATOM      2  O   UNL     1      46.761   3.195  13.851  0.00  0.00    +0.000 OA
ATOM      3  N   UNL     1      45.299   4.930  13.928  0.00  0.00    +0.000 N 
ATOM      4  H   UNL     1      45.121   5.890  14.207  0.00  0.00    +0.000 HD
ENDROOT
BRANCH   1  12
ATOM      5  N   UNL     1      50.473   6.901  18.347  0.00  0.00    +0.000 N 
ATOM      6  C   UNL     1      49.465   6.030  18.036  0.00  0.00    +0.000 A 
ATOM      7  N   UNL     1      49.040   5.242  18.992  0.00  0.00    +0.000 NA
ATOM      8  N   UNL     1      48.043   4.334  18.708  0.00  0.00    +0.000 N 
ATOM      9  C   UNL     1      47.429   4.128  17.484  0.00  0.00    +0.000 A 
ATOM     10  O   UNL     1      46.575   3.259  17.336  0.00  0.00    +0.000 OA
ATOM     11  C   UNL     1      47.868   5.015  16.415  0.00  0.00    +0.000 A 
ATOM     12  C   UNL     1      47.461   5.113  15.026  0.00  0.00    +0.000 A 
ATOM     13  C   UNL     1      48.167   6.143  14.410  0.00  0.00    +0.000 A 
ATOM     14  S   UNL     1      49.273   6.936  15.436  0.00  0.00    +0.000 S 
ATOM     15  C   UNL     1      48.851   5.932  16.728  0.00  0.00    +0.000 A 
ATOM     16  H   UNL     1      50.593   7.051  19.342  0.00  0.00    +0.000 HD
ATOM     17  H   UNL     1      50.556   7.729  17.772  0.00  0.00    +0.000 HD
ATOM     18  H   UNL     1      47.764   3.728  19.473  0.00  0.00    +0.000 HD
ENDBRANCH   1  12
BRANCH   3  19
ATOM     19  C   UNL     1      44.266   4.250  13.190  0.00  0.00    +0.000 C 
BRANCH  19  20
ATOM     20  C   UNL     1      44.496   4.310  11.710  0.00  0.00    +0.000 A 
ATOM     21  C   UNL     1      45.412   5.203  11.136  0.00  0.00    +0.000 A 
ATOM     22  C   UNL     1      45.632   5.178   9.760  0.00  0.00    +0.000 A 
ATOM     23  C   UNL     1      44.921   4.264   9.002  0.00  0.00    +0.000 A 
ATOM     24  N   UNL     1      43.978   3.441   9.516  0.00  0.00    +0.000 NA
ATOM     25  C   UNL     1      43.793   3.476  10.851  0.00  0.00    +0.000 A 
BRANCH  23  26
ATOM     26  O   UNL     1      45.229   4.174   7.648  0.00  0.00    +0.000 OA
BRANCH  26  27
ATOM     27  C   UNL     1      46.111   3.176   7.285  0.00  0.00    +0.000 A 
ATOM     28  C   UNL     1      46.909   3.394   6.170  0.00  0.00    +0.000 A 
ATOM     29  C   UNL     1      47.771   2.379   5.787  0.00  0.00    +0.000 A 
ATOM     30  N   UNL     1      47.889   1.200   6.437  0.00  0.00    +0.000 NA
ATOM     31  C   UNL     1      47.121   1.033   7.534  0.00  0.00    +0.000 A 
ATOM     32  C   UNL     1      46.249   1.992   8.010  0.00  0.00    +0.000 A 
ENDBRANCH  26  27
ENDBRANCH  23  26
ENDBRANCH  19  20
ENDBRANCH   3  19
TORSDOF 5
ENDMDL
MODEL 2
REMARK VINA RESULT:    -8.893      2.087      2.961
REMARK INTER + INTRA:         -11.931
REMARK INTER:                 -10.967
REMARK INTRA:                  -0.964
REMARK UNBOUND:                -0.438
REMARK  Name = 
REMARK  5 active torsions:
REMARK  status: ('A' for Active; 'I' for Inactive)
REMARK    1  A    between atoms: C_8  and  C_9
REMARK    2  A    between atoms: N_11  and  C_12
REMARK    3  A    between atoms: C_12  and  C_13
REMARK    4  A    between atoms: C_16  and  O_17
REMARK    5  A    between atoms: O_17  and  C_18
REMARK                            x       y       z     vdW  Elec       q    Type
REMARK                         _______ _______ _______ _____ _____    ______ ____
ROOT
ATOM      1  C   UNL     1      46.794   4.923  14.180  0.00  0.00    +0.000 C 
ATOM      2  O   UNL     1      46.840   3.695  14.254  0.00  0.00    +0.000 OA
ATOM      3  N   UNL     1      45.697   5.567  13.672  0.00  0.00    +0.000 N 
ATOM      4  H   UNL     1      45.697   6.578  13.578  0.00  0.00    +0.000 HD
ENDROOT
BRANCH   1  12
ATOM      5  N   UNL     1      51.417   9.002  15.336  0.00  0.00    +0.000 N 
ATOM      6  C   UNL     1      50.520   8.417  14.485  0.00  0.00    +0.000 A 
ATOM      7  N   UNL     1      50.477   8.871  13.257  0.00  0.00    +0.000 NA
ATOM      8  N   UNL     1      49.567   8.323  12.380  0.00  0.00    +0.000 N 
ATOM      9  C   UNL     1      48.643   7.328  12.654  0.00  0.00    +0.000 A 
ATOM     10  O   UNL     1      47.850   6.940  11.799  0.00  0.00    +0.000 OA
ATOM     11  C   UNL     1      48.696   6.789  14.005  0.00  0.00    +0.000 A 
ATOM     12  C   UNL     1      47.914   5.753  14.654  0.00  0.00    +0.000 A 
ATOM     13  C   UNL     1      48.362   5.586  15.961  0.00  0.00    +0.000 A 
ATOM     14  S   UNL     1      49.638   6.630  16.396  0.00  0.00    +0.000 S 
ATOM     15  C   UNL     1      49.629   7.338  14.861  0.00  0.00    +0.000 A 
ATOM     16  H   UNL     1      52.148   9.524  14.867  0.00  0.00    +0.000 HD
ATOM     17  H   UNL     1      51.720   8.454  16.131  0.00  0.00    +0.000 HD
ATOM     18  H   UNL     1      49.553   8.723  11.448  0.00  0.00    +0.000 HD
ENDBRANCH   1  12
BRANCH   3  19
ATOM     19  C   UNL     1      44.526   4.859  13.222  0.00  0.00    +0.000 C 
BRANCH  19  20
ATOM     20  C   UNL     1      44.552   4.609  11.743  0.00  0.00    +0.000 A 
ATOM     21  C   UNL     1      45.309   5.400  10.869  0.00  0.00    +0.000 A 
ATOM     22  C   UNL     1      45.345   5.090   9.511  0.00  0.00    +0.000 A 
ATOM     23  C   UNL     1      44.614   3.999   9.072  0.00  0.00    +0.000 A 
ATOM     24  N   UNL     1      43.816   3.261   9.878  0.00  0.00    +0.000 NA
ATOM     25  C   UNL     1      43.809   3.575  11.189  0.00  0.00    +0.000 A 
BRANCH  23  26
ATOM     26  O   UNL     1      44.745   3.634   7.735  0.00  0.00    +0.000 OA
BRANCH  26  27
ATOM     27  C   UNL     1      45.835   2.849   7.419  0.00  0.00    +0.000 A 
ATOM     28  C   UNL     1      46.716   3.326   6.456  0.00  0.00    +0.000 A 
ATOM     29  C   UNL     1      47.792   2.523   6.115  0.00  0.00    +0.000 A 
ATOM     30  N   UNL     1      48.042   1.315   6.668  0.00  0.00    +0.000 NA
ATOM     31  C   UNL     1      47.184   0.897   7.622  0.00  0.00    +0.000 A 
ATOM     32  C   UNL     1      46.096   1.632   8.048  0.00  0.00    +0.000 A 
ENDBRANCH  26  27
ENDBRANCH  23  26
ENDBRANCH  19  20
ENDBRANCH   3  19
TORSDOF 5
ENDMDL
MODEL 3
REMARK VINA RESULT:    -8.889      1.831      2.516
REMARK INTER + INTRA:         -11.925
REMARK INTER:                 -11.158
REMARK INTRA:                  -0.767
REMARK UNBOUND:                -0.438
REMARK  Name = 
REMARK  5 active torsions:
REMARK  status: ('A' for Active; 'I' for Inactive)
REMARK    1  A    between atoms: C_8  and  C_9
REMARK    2  A    between atoms: N_11  and  C_12
REMARK    3  A    between atoms: C_12  and  C_13
REMARK    4  A    between atoms: C_16  and  O_17
REMARK    5  A    between atoms: O_17  and  C_18
REMARK                            x       y       z     vdW  Elec       q    Type
REMARK                         _______ _______ _______ _____ _____    ______ ____
ROOT
ATOM      1  C   UNL     1      47.585   5.815  14.241  0.00  0.00    +0.000 C 
ATOM      2  O   UNL     1      48.538   6.085  13.509  0.00  0.00    +0.000 OA
ATOM      3  N   UNL     1      46.302   6.149  13.897  0.00  0.00    +0.000 N 
ATOM      4  H   UNL     1      45.536   5.958  14.536  0.00  0.00    +0.000 HD
ENDROOT
BRANCH   1  12
ATOM      5  N   UNL     1      48.656   3.707  20.051  0.00  0.00    +0.000 N 
ATOM      6  C   UNL     1      48.748   4.678  19.092  0.00  0.00    +0.000 A 
ATOM      7  N   UNL     1      49.286   5.818  19.447  0.00  0.00    +0.000 NA
ATOM      8  N   UNL     1      49.372   6.829  18.515  0.00  0.00    +0.000 N 
ATOM      9  C   UNL     1      48.921   6.793  17.206  0.00  0.00    +0.000 A 
ATOM     10  O   UNL     1      49.016   7.772  16.471  0.00  0.00    +0.000 OA
ATOM     11  C   UNL     1      48.346   5.524  16.784  0.00  0.00    +0.000 A 
ATOM     12  C   UNL     1      47.786   5.102  15.513  0.00  0.00    +0.000 A 
ATOM     13  C   UNL     1      47.381   3.773  15.606  0.00  0.00    +0.000 A 
ATOM     14  S   UNL     1      47.637   3.075  17.139  0.00  0.00    +0.000 S 
ATOM     15  C   UNL     1      48.291   4.518  17.727  0.00  0.00    +0.000 A 
ATOM     16  H   UNL     1      49.263   3.857  20.849  0.00  0.00    +0.000 HD
ATOM     17  H   UNL     1      48.596   2.749  19.729  0.00  0.00    +0.000 HD
ATOM     18  H   UNL     1      49.773   7.701  18.842  0.00  0.00    +0.000 HD
ENDBRANCH   1  12
BRANCH   3  19
ATOM     19  C   UNL     1      45.983   6.807  12.656  0.00  0.00    +0.000 C 
BRANCH  19  20
ATOM     20  C   UNL     1      45.710   5.829  11.552  0.00  0.00    +0.000 A 
ATOM     21  C   UNL     1      45.084   4.598  11.789  0.00  0.00    +0.000 A 
ATOM     22  C   UNL     1      44.800   3.751  10.719  0.00  0.00    +0.000 A 
ATOM     23  C   UNL     1      45.159   4.163   9.447  0.00  0.00    +0.000 A 
ATOM     24  N   UNL     1      45.829   5.311   9.195  0.00  0.00    +0.000 NA
ATOM     25  C   UNL     1      46.081   6.118  10.246  0.00  0.00    +0.000 A 
BRANCH  23  26
ATOM     26  O   UNL     1      44.773   3.360   8.378  0.00  0.00    +0.000 OA
BRANCH  26  27
ATOM     27  C   UNL     1      45.785   2.700   7.711  0.00  0.00    +0.000 A 
ATOM     28  C   UNL     1      46.139   1.435   8.163  0.00  0.00    +0.000 A 
ATOM     29  C   UNL     1      47.177   0.787   7.513  0.00  0.00    +0.000 A 
ATOM     30  N   UNL     1      47.854   1.304   6.464  0.00  0.00    +0.000 NA
ATOM     31  C   UNL     1      47.464   2.521   6.031  0.00  0.00    +0.000 A 
ATOM     32  C   UNL     1      46.427   3.237   6.595  0.00  0.00    +0.000 A 
ENDBRANCH  26  27
ENDBRANCH  23  26
ENDBRANCH  19  20
ENDBRANCH   3  19
TORSDOF 5
ENDMDL
MODEL 4
REMARK VINA RESULT:    -8.848      1.597      2.312
REMARK INTER + INTRA:         -11.872
REMARK INTER:                 -11.153
REMARK INTRA:                  -0.720
REMARK UNBOUND:                -0.438
REMARK  Name = 
REMARK  5 active torsions:
REMARK  status: ('A' for Active; 'I' for Inactive)
REMARK    1  A    between atoms: C_8  and  C_9
REMARK    2  A    between atoms: N_11  and  C_12
REMARK    3  A    between atoms: C_12  and  C_13
REMARK    4  A    between atoms: C_16  and  O_17
REMARK    5  A    between atoms: O_17  and  C_18
REMARK                            x       y       z     vdW  Elec       q    Type
REMARK                         _______ _______ _______ _____ _____    ______ ____
ROOT
ATOM      1  C   UNL     1      47.754   6.826  13.702  0.00  0.00    +0.000 C 
ATOM      2  O   UNL     1      48.474   7.161  12.760  0.00  0.00    +0.000 OA
ATOM      3  N   UNL     1      46.389   6.867  13.606  0.00  0.00    +0.000 N 
ATOM      4  H   UNL     1      45.814   6.630  14.409  0.00  0.00    +0.000 HD
ENDROOT
BRANCH   1  12
ATOM      5  N   UNL     1      49.718   3.912  18.898  0.00  0.00    +0.000 N 
ATOM      6  C   UNL     1      48.865   4.020  17.834  0.00  0.00    +0.000 A 
ATOM      7  N   UNL     1      47.970   3.075  17.688  0.00  0.00    +0.000 NA
ATOM      8  N   UNL     1      47.111   3.137  16.612  0.00  0.00    +0.000 N 
ATOM      9  C   UNL     1      47.093   4.100  15.617  0.00  0.00    +0.000 A 
ATOM     10  O   UNL     1      46.303   4.035  14.679  0.00  0.00    +0.000 OA
ATOM     11  C   UNL     1      48.061   5.175  15.778  0.00  0.00    +0.000 A 
ATOM     12  C   UNL     1      48.336   6.346  14.966  0.00  0.00    +0.000 A 
ATOM     13  C   UNL     1      49.355   7.090  15.557  0.00  0.00    +0.000 A 
ATOM     14  S   UNL     1      49.965   6.409  16.995  0.00  0.00    +0.000 S 
ATOM     15  C   UNL     1      48.897   5.105  16.874  0.00  0.00    +0.000 A 
ATOM     16  H   UNL     1      49.396   3.279  19.620  0.00  0.00    +0.000 HD
ATOM     17  H   UNL     1      50.144   4.767  19.233  0.00  0.00    +0.000 HD
ATOM     18  H   UNL     1      46.452   2.371  16.526  0.00  0.00    +0.000 HD
ENDBRANCH   1  12
BRANCH   3  19
ATOM     19  C   UNL     1      45.711   7.276  12.402  0.00  0.00    +0.000 C 
BRANCH  19  20
ATOM     20  C   UNL     1      45.478   6.127  11.468  0.00  0.00    +0.000 A 
ATOM     21  C   UNL     1      44.773   4.981  11.861  0.00  0.00    +0.000 A 
ATOM     22  C   UNL     1      44.533   3.966  10.936  0.00  0.00    +0.000 A 
ATOM     23  C   UNL     1      45.014   4.130   9.648  0.00  0.00    +0.000 A 
ATOM     24  N   UNL     1      45.759   5.190   9.259  0.00  0.00    +0.000 NA
ATOM     25  C   UNL     1      45.967   6.162  10.169  0.00  0.00    +0.000 A 
BRANCH  23  26
ATOM     26  O   UNL     1      44.674   3.163   8.707  0.00  0.00    +0.000 OA
BRANCH  26  27
ATOM     27  C   UNL     1      45.718   2.608   7.995  0.00  0.00    +0.000 A 
ATOM     28  C   UNL     1      46.056   1.289   8.267  0.00  0.00    +0.000 A 
ATOM     29  C   UNL     1      47.125   0.742   7.575  0.00  0.00    +0.000 A 
ATOM     30  N   UNL     1      47.847   1.410   6.648  0.00  0.00    +0.000 NA
ATOM     31  C   UNL     1      47.472   2.678   6.386  0.00  0.00    +0.000 A 
ATOM     32  C   UNL     1      46.408   3.305   7.003  0.00  0.00    +0.000 A 
ENDBRANCH  26  27
ENDBRANCH  23  26
ENDBRANCH  19  20
ENDBRANCH   3  19
TORSDOF 5
ENDMDL
MODEL 5
REMARK VINA RESULT:    -8.717      1.195      1.489
REMARK INTER + INTRA:         -11.703
REMARK INTER:                 -10.955
REMARK INTRA:                  -0.749
REMARK UNBOUND:                -0.438
REMARK  Name = 
REMARK  5 active torsions:
REMARK  status: ('A' for Active; 'I' for Inactive)
REMARK    1  A    between atoms: C_8  and  C_9
REMARK    2  A    between atoms: N_11  and  C_12
REMARK    3  A    between atoms: C_12  and  C_13
REMARK    4  A    between atoms: C_16  and  O_17
REMARK    5  A    between atoms: O_17  and  C_18
REMARK                            x       y       z     vdW  Elec       q    Type
REMARK                         _______ _______ _______ _____ _____    ______ ____
ROOT
ATOM      1  C   UNL     1      47.231   5.358  13.961  0.00  0.00    +0.000 C 
ATOM      2  O   UNL     1      47.422   4.141  13.944  0.00  0.00    +0.000 OA
ATOM      3  N   UNL     1      46.029   5.898  13.588  0.00  0.00    +0.000 N 
ATOM      4  H   UNL     1      45.908   6.905  13.566  0.00  0.00    +0.000 HD
ENDROOT
BRANCH   1  12
ATOM      5  N   UNL     1      51.727   8.754  16.718  0.00  0.00    +0.000 N 
ATOM      6  C   UNL     1      50.702   7.850  16.775  0.00  0.00    +0.000 A 
ATOM      7  N   UNL     1      50.443   7.315  17.943  0.00  0.00    +0.000 NA
ATOM      8  N   UNL     1      49.434   6.381  18.034  0.00  0.00    +0.000 N 
ATOM      9  C   UNL     1      48.647   5.903  16.999  0.00  0.00    +0.000 A 
ATOM     10  O   UNL     1      47.798   5.037  17.190  0.00  0.00    +0.000 OA
ATOM     11  C   UNL     1      48.901   6.507  15.699  0.00  0.00    +0.000 A 
ATOM     12  C   UNL     1      48.287   6.283  14.403  0.00  0.00    +0.000 A 
ATOM     13  C   UNL     1      48.871   7.129  13.463  0.00  0.00    +0.000 A 
ATOM     14  S   UNL     1      50.103   8.123  14.095  0.00  0.00    +0.000 S 
ATOM     15  C   UNL     1      49.900   7.457  15.635  0.00  0.00    +0.000 A 
ATOM     16  H   UNL     1      51.993   9.132  17.620  0.00  0.00    +0.000 HD
ATOM     17  H   UNL     1      51.706   9.423  15.959  0.00  0.00    +0.000 HD
ATOM     18  H   UNL     1      49.286   5.976  18.952  0.00  0.00    +0.000 HD
ENDBRANCH   1  12
BRANCH   3  19
ATOM     19  C   UNL     1      44.912   5.085  13.181  0.00  0.00    +0.000 C 
BRANCH  19  20
ATOM     20  C   UNL     1      44.891   4.853  11.700  0.00  0.00    +0.000 A 
ATOM     21  C   UNL     1      45.727   5.561  10.826  0.00  0.00    +0.000 A 
ATOM     22  C   UNL     1      45.711   5.266   9.464  0.00  0.00    +0.000 A 
ATOM     23  C   UNL     1      44.852   4.276   9.021  0.00  0.00    +0.000 A 
ATOM     24  N   UNL     1      43.981   3.626   9.828  0.00  0.00    +0.000 NA
ATOM     25  C   UNL     1      44.025   3.922  11.143  0.00  0.00    +0.000 A 
BRANCH  23  26
ATOM     26  O   UNL     1      44.923   3.915   7.679  0.00  0.00    +0.000 OA
BRANCH  26  27
ATOM     27  C   UNL     1      45.914   3.017   7.338  0.00  0.00    +0.000 A 
ATOM     28  C   UNL     1      46.782   3.371   6.313  0.00  0.00    +0.000 A 
ATOM     29  C   UNL     1      47.756   2.456   5.949  0.00  0.00    +0.000 A 
ATOM     30  N   UNL     1      47.919   1.249   6.537  0.00  0.00    +0.000 NA
ATOM     31  C   UNL     1      47.080   0.950   7.549  0.00  0.00    +0.000 A 
ATOM     32  C   UNL     1      46.092   1.803   8.002  0.00  0.00    +0.000 A 
ENDBRANCH  26  27
ENDBRANCH  23  26
ENDBRANCH  19  20
ENDBRANCH   3  19
TORSDOF 5
ENDMDL
MODEL 6
REMARK VINA RESULT:    -8.145      2.106      2.991
REMARK INTER + INTRA:         -10.964
REMARK INTER:                 -10.109
REMARK INTRA:                  -0.855
REMARK UNBOUND:                -0.438
REMARK  Name = 
REMARK  5 active torsions:
REMARK  status: ('A' for Active; 'I' for Inactive)
REMARK    1  A    between atoms: C_8  and  C_9
REMARK    2  A    between atoms: N_11  and  C_12
REMARK    3  A    between atoms: C_12  and  C_13
REMARK    4  A    between atoms: C_16  and  O_17
REMARK    5  A    between atoms: O_17  and  C_18
REMARK                            x       y       z     vdW  Elec       q    Type
REMARK                         _______ _______ _______ _____ _____    ______ ____
ROOT
ATOM      1  C   UNL     1      48.773   7.070  14.998  0.00  0.00    +0.000 C 
ATOM      2  O   UNL     1      49.699   6.978  14.192  0.00  0.00    +0.000 OA
ATOM      3  N   UNL     1      47.568   7.617  14.643  0.00  0.00    +0.000 N 
ATOM      4  H   UNL     1      46.833   7.725  15.335  0.00  0.00    +0.000 HD
ENDROOT
BRANCH   1  12
ATOM      5  N   UNL     1      49.138   4.049  20.483  0.00  0.00    +0.000 N 
ATOM      6  C   UNL     1      48.733   4.120  19.179  0.00  0.00    +0.000 A 
ATOM      7  N   UNL     1      48.127   3.070  18.683  0.00  0.00    +0.000 NA
ATOM      8  N   UNL     1      47.728   3.096  17.365  0.00  0.00    +0.000 N 
ATOM      9  C   UNL     1      47.918   4.126  16.459  0.00  0.00    +0.000 A 
ATOM     10  O   UNL     1      47.553   4.024  15.291  0.00  0.00    +0.000 OA
ATOM     11  C   UNL     1      48.564   5.314  16.998  0.00  0.00    +0.000 A 
ATOM     12  C   UNL     1      48.918   6.577  16.378  0.00  0.00    +0.000 A 
ATOM     13  C   UNL     1      49.507   7.409  17.326  0.00  0.00    +0.000 A 
ATOM     14  S   UNL     1      49.648   6.706  18.873  0.00  0.00    +0.000 S 
ATOM     15  C   UNL     1      48.934   5.274  18.327  0.00  0.00    +0.000 A 
ATOM     16  H   UNL     1      48.683   3.316  21.016  0.00  0.00    +0.000 HD
ATOM     17  H   UNL     1      49.261   4.925  20.974  0.00  0.00    +0.000 HD
ATOM     18  H   UNL     1      47.285   2.251  17.019  0.00  0.00    +0.000 HD
ENDBRANCH   1  12
BRANCH   3  19
ATOM     19  C   UNL     1      47.299   8.090  13.309  0.00  0.00    +0.000 C 
BRANCH  19  20
ATOM     20  C   UNL     1      46.350   7.193  12.573  0.00  0.00    +0.000 A 
ATOM     21  C   UNL     1      45.229   7.694  11.897  0.00  0.00    +0.000 A 
ATOM     22  C   UNL     1      44.410   6.824  11.179  0.00  0.00    +0.000 A 
ATOM     23  C   UNL     1      44.738   5.480  11.166  0.00  0.00    +0.000 A 
ATOM     24  N   UNL     1      45.771   4.956  11.867  0.00  0.00    +0.000 NA
ATOM     25  C   UNL     1      46.553   5.820  12.544  0.00  0.00    +0.000 A 
BRANCH  23  26
ATOM     26  O   UNL     1      43.979   4.640  10.357  0.00  0.00    +0.000 OA
BRANCH  26  27
ATOM     27  C   UNL     1      44.681   3.809   9.508  0.00  0.00    +0.000 A 
ATOM     28  C   UNL     1      45.418   4.400   8.490  0.00  0.00    +0.000 A 
ATOM     29  C   UNL     1      46.096   3.564   7.617  0.00  0.00    +0.000 A 
ATOM     30  N   UNL     1      46.092   2.215   7.703  0.00  0.00    +0.000 NA
ATOM     31  C   UNL     1      45.391   1.676   8.722  0.00  0.00    +0.000 A 
ATOM     32  C   UNL     1      44.702   2.422   9.657  0.00  0.00    +0.000 A 
ENDBRANCH  26  27
ENDBRANCH  23  26
ENDBRANCH  19  20
ENDBRANCH   3  19
TORSDOF 5
ENDMDL
MODEL 7
REMARK VINA RESULT:    -8.134      2.711      3.420
REMARK INTER + INTRA:         -10.950
REMARK INTER:                 -10.062
REMARK INTRA:                  -0.888
REMARK UNBOUND:                -0.438
REMARK  Name = 
REMARK  5 active torsions:
REMARK  status: ('A' for Active; 'I' for Inactive)
REMARK    1  A    between atoms: C_8  and  C_9
REMARK    2  A    between atoms: N_11  and  C_12
REMARK    3  A    between atoms: C_12  and  C_13
REMARK    4  A    between atoms: C_16  and  O_17
REMARK    5  A    between atoms: O_17  and  C_18
REMARK                            x       y       z     vdW  Elec       q    Type
REMARK                         _______ _______ _______ _____ _____    ______ ____
ROOT
ATOM      1  C   UNL     1      47.025   7.627  13.215  0.00  0.00    +0.000 C 
ATOM      2  O   UNL     1      46.010   8.324  13.217  0.00  0.00    +0.000 OA
ATOM      3  N   UNL     1      46.952   6.259  13.231  0.00  0.00    +0.000 N 
ATOM      4  H   UNL     1      47.801   5.703  13.274  0.00  0.00    +0.000 HD
ENDROOT
BRANCH   1  12
ATOM      5  N   UNL     1      53.015   9.440  13.643  0.00  0.00    +0.000 N 
ATOM      6  C   UNL     1      51.957   8.686  14.072  0.00  0.00    +0.000 A 
ATOM      7  N   UNL     1      52.183   7.840  15.046  0.00  0.00    +0.000 NA
ATOM      8  N   UNL     1      51.147   7.045  15.486  0.00  0.00    +0.000 N 
ATOM      9  C   UNL     1      49.854   7.013  14.991  0.00  0.00    +0.000 A 
ATOM     10  O   UNL     1      49.018   6.232  15.437  0.00  0.00    +0.000 OA
ATOM     11  C   UNL     1      49.576   7.967  13.927  0.00  0.00    +0.000 A 
ATOM     12  C   UNL     1      48.364   8.238  13.176  0.00  0.00    +0.000 A 
ATOM     13  C   UNL     1      48.602   9.268  12.270  0.00  0.00    +0.000 A 
ATOM     14  S   UNL     1      50.198   9.864  12.301  0.00  0.00    +0.000 S 
ATOM     15  C   UNL     1      50.622   8.769  13.517  0.00  0.00    +0.000 A 
ATOM     16  H   UNL     1      53.785   9.478  14.301  0.00  0.00    +0.000 HD
ATOM     17  H   UNL     1      52.798  10.313  13.182  0.00  0.00    +0.000 HD
ATOM     18  H   UNL     1      51.375   6.388  16.225  0.00  0.00    +0.000 HD
ENDBRANCH   1  12
BRANCH   3  19
ATOM     19  C   UNL     1      45.696   5.554  13.223  0.00  0.00    +0.000 C 
BRANCH  19  20
ATOM     20  C   UNL     1      45.361   5.012  11.866  0.00  0.00    +0.000 A 
ATOM     21  C   UNL     1      45.714   5.687  10.689  0.00  0.00    +0.000 A 
ATOM     22  C   UNL     1      45.430   5.112   9.451  0.00  0.00    +0.000 A 
ATOM     23  C   UNL     1      44.796   3.882   9.434  0.00  0.00    +0.000 A 
ATOM     24  N   UNL     1      44.377   3.241  10.549  0.00  0.00    +0.000 NA
ATOM     25  C   UNL     1      44.674   3.813  11.734  0.00  0.00    +0.000 A 
BRANCH  23  26
ATOM     26  O   UNL     1      44.617   3.268   8.197  0.00  0.00    +0.000 OA
BRANCH  26  27
ATOM     27  C   UNL     1      45.730   2.665   7.647  0.00  0.00    +0.000 A 
ATOM     28  C   UNL     1      46.083   1.408   8.121  0.00  0.00    +0.000 A 
ATOM     29  C   UNL     1      47.219   0.817   7.592  0.00  0.00    +0.000 A 
ATOM     30  N   UNL     1      47.993   1.382   6.638  0.00  0.00    +0.000 NA
ATOM     31  C   UNL     1      47.603   2.588   6.178  0.00  0.00    +0.000 A 
ATOM     32  C   UNL     1      46.476   3.249   6.623  0.00  0.00    +0.000 A 
ENDBRANCH  26  27
ENDBRANCH  23  26
ENDBRANCH  19  20
ENDBRANCH   3  19
TORSDOF 5
ENDMDL
MODEL 8
REMARK VINA RESULT:    -7.969      3.096      4.134
REMARK INTER + INTRA:         -10.736
REMARK INTER:                  -9.954
REMARK INTRA:                  -0.782
REMARK UNBOUND:                -0.438
REMARK  Name = 
REMARK  5 active torsions:
REMARK  status: ('A' for Active; 'I' for Inactive)
REMARK    1  A    between atoms: C_8  and  C_9
REMARK    2  A    between atoms: N_11  and  C_12
REMARK    3  A    between atoms: C_12  and  C_13
REMARK    4  A    between atoms: C_16  and  O_17
REMARK    5  A    between atoms: O_17  and  C_18
REMARK                            x       y       z     vdW  Elec       q    Type
REMARK                         _______ _______ _______ _____ _____    ______ ____
ROOT
ATOM      1  C   UNL     1      46.948   7.657  13.448  0.00  0.00    +0.000 C 
ATOM      2  O   UNL     1      46.350   8.705  13.201  0.00  0.00    +0.000 OA
ATOM      3  N   UNL     1      46.353   6.437  13.272  0.00  0.00    +0.000 N 
ATOM      4  H   UNL     1      46.847   5.586  13.525  0.00  0.00    +0.000 HD
ENDROOT
BRANCH   1  12
ATOM      5  N   UNL     1      53.043   8.404  14.728  0.00  0.00    +0.000 N 
ATOM      6  C   UNL     1      51.970   8.533  13.891  0.00  0.00    +0.000 A 
ATOM      7  N   UNL     1      52.175   9.136  12.746  0.00  0.00    +0.000 NA
ATOM      8  N   UNL     1      51.111   9.308  11.888  0.00  0.00    +0.000 N 
ATOM      9  C   UNL     1      49.797   8.926  12.105  0.00  0.00    +0.000 A 
ATOM     10  O   UNL     1      48.918   9.165  11.282  0.00  0.00    +0.000 OA
ATOM     11  C   UNL     1      49.555   8.228  13.359  0.00  0.00    +0.000 A 
ATOM     12  C   UNL     1      48.340   7.674  13.928  0.00  0.00    +0.000 A 
ATOM     13  C   UNL     1      48.631   7.082  15.154  0.00  0.00    +0.000 A 
ATOM     14  S   UNL     1      50.270   7.202  15.610  0.00  0.00    +0.000 S 
ATOM     15  C   UNL     1      50.640   8.047  14.194  0.00  0.00    +0.000 A 
ATOM     16  H   UNL     1      53.939   8.527  14.271  0.00  0.00    +0.000 HD
ATOM     17  H   UNL     1      53.006   7.657  15.409  0.00  0.00    +0.000 HD
ATOM     18  H   UNL     1      51.312   9.802  11.025  0.00  0.00    +0.000 HD
ENDBRANCH   1  12
BRANCH   3  19
ATOM     19  C   UNL     1      45.011   6.299  12.765  0.00  0.00    +0.000 C 
BRANCH  19  20
ATOM     20  C   UNL     1      44.970   5.528  11.480  0.00  0.00    +0.000 A 
ATOM     21  C   UNL     1      44.098   4.447  11.290  0.00  0.00    +0.000 A 
ATOM     22  C   UNL     1      44.058   3.801  10.055  0.00  0.00    +0.000 A 
ATOM     23  C   UNL     1      44.897   4.255   9.053  0.00  0.00    +0.000 A 
ATOM     24  N   UNL     1      45.801   5.248   9.228  0.00  0.00    +0.000 NA
ATOM     25  C   UNL     1      45.811   5.863  10.427  0.00  0.00    +0.000 A 
BRANCH  23  26
ATOM     26  O   UNL     1      44.769   3.675   7.795  0.00  0.00    +0.000 OA
BRANCH  26  27
ATOM     27  C   UNL     1      45.838   2.918   7.358  0.00  0.00    +0.000 A 
ATOM     28  C   UNL     1      46.078   1.710   7.999  0.00  0.00    +0.000 A 
ATOM     29  C   UNL     1      47.170   0.966   7.582  0.00  0.00    +0.000 A 
ATOM     30  N   UNL     1      48.005   1.339   6.586  0.00  0.00    +0.000 NA
ATOM     31  C   UNL     1      47.724   2.502   5.965  0.00  0.00    +0.000 A 
ATOM     32  C   UNL     1      46.648   3.304   6.289  0.00  0.00    +0.000 A 
ENDBRANCH  26  27
ENDBRANCH  23  26
ENDBRANCH  19  20
ENDBRANCH   3  19
TORSDOF 5
ENDMDL
MODEL 9
REMARK VINA RESULT:    -7.717      3.937      8.540
REMARK INTER + INTRA:         -10.410
REMARK INTER:                  -9.511
REMARK INTRA:                  -0.899
REMARK UNBOUND:                -0.438
REMARK  Name = 
REMARK  5 active torsions:
REMARK  status: ('A' for Active; 'I' for Inactive)
REMARK    1  A    between atoms: C_8  and  C_9
REMARK    2  A    between atoms: N_11  and  C_12
REMARK    3  A    between atoms: C_12  and  C_13
REMARK    4  A    between atoms: C_16  and  O_17
REMARK    5  A    between atoms: O_17  and  C_18
REMARK                            x       y       z     vdW  Elec       q    Type
REMARK                         _______ _______ _______ _____ _____    ______ ____
ROOT
ATOM      1  C   UNL     1      47.869   7.012  13.421  0.00  0.00    +0.000 C 
ATOM      2  O   UNL     1      48.957   6.648  12.972  0.00  0.00    +0.000 OA
ATOM      3  N   UNL     1      47.786   7.914  14.448  0.00  0.00    +0.000 N 
ATOM      4  H   UNL     1      46.881   8.167  14.833  0.00  0.00    +0.000 HD
ENDROOT
BRANCH   1  12
ATOM      5  N   UNL     1      42.734   3.965  11.499  0.00  0.00    +0.000 N 
ATOM      6  C   UNL     1      43.993   3.973  12.034  0.00  0.00    +0.000 A 
ATOM      7  N   UNL     1      44.488   2.822  12.415  0.00  0.00    +0.000 NA
ATOM      8  N   UNL     1      45.743   2.796  12.983  0.00  0.00    +0.000 N 
ATOM      9  C   UNL     1      46.567   3.882  13.229  0.00  0.00    +0.000 A 
ATOM     10  O   UNL     1      47.657   3.745  13.779  0.00  0.00    +0.000 OA
ATOM     11  C   UNL     1      46.047   5.167  12.785  0.00  0.00    +0.000 A 
ATOM     12  C   UNL     1      46.608   6.503  12.856  0.00  0.00    +0.000 A 
ATOM     13  C   UNL     1      45.725   7.407  12.272  0.00  0.00    +0.000 A 
ATOM     14  S   UNL     1      44.290   6.696  11.689  0.00  0.00    +0.000 S 
ATOM     15  C   UNL     1      44.797   5.166  12.199  0.00  0.00    +0.000 A 
ATOM     16  H   UNL     1      42.426   3.050  11.189  0.00  0.00    +0.000 HD
ATOM     17  H   UNL     1      42.491   4.732  10.886  0.00  0.00    +0.000 HD
ATOM     18  H   UNL     1      46.074   1.886  13.285  0.00  0.00    +0.000 HD
ENDBRANCH   1  12
BRANCH   3  19
ATOM     19  C   UNL     1      48.952   8.512  15.046  0.00  0.00    +0.000 C 
BRANCH  19  20
ATOM     20  C   UNL     1      49.571   7.625  16.085  0.00  0.00    +0.000 A 
ATOM     21  C   UNL     1      48.936   7.357  17.305  0.00  0.00    +0.000 A 
ATOM     22  C   UNL     1      49.527   6.479  18.212  0.00  0.00    +0.000 A 
ATOM     23  C   UNL     1      50.739   5.904  17.869  0.00  0.00    +0.000 A 
ATOM     24  N   UNL     1      51.411   6.199  16.733  0.00  0.00    +0.000 NA
ATOM     25  C   UNL     1      50.812   7.042  15.867  0.00  0.00    +0.000 A 
BRANCH  23  26
ATOM     26  O   UNL     1      51.263   4.947  18.733  0.00  0.00    +0.000 OA
BRANCH  26  27
ATOM     27  C   UNL     1      51.422   3.677  18.216  0.00  0.00    +0.000 A 
ATOM     28  C   UNL     1      50.331   3.099  17.580  0.00  0.00    +0.000 A 
ATOM     29  C   UNL     1      50.480   1.811  17.090  0.00  0.00    +0.000 A 
ATOM     30  N   UNL     1      51.621   1.092  17.184  0.00  0.00    +0.000 NA
ATOM     31  C   UNL     1      52.669   1.695  17.780  0.00  0.00    +0.000 A 
ATOM     32  C   UNL     1      52.630   2.982  18.279  0.00  0.00    +0.000 A 
ENDBRANCH  26  27
ENDBRANCH  23  26
ENDBRANCH  19  20
ENDBRANCH   3  19
TORSDOF 5
ENDMDL
