MODEL 1
REMARK VINA RESULT:    -9.296      0.000      0.000
REMARK INTER + INTRA:         -13.702
REMARK INTER:                 -12.828
REMARK INTRA:                  -0.873
REMARK UNBOUND:                -0.873
REMARK  Name = 
REMARK  8 active torsions:
REMARK  status: ('A' for Active; 'I' for Inactive)
REMARK    1  A    between atoms: C_1  and  C_2
REMARK    2  A    between atoms: C_2  and  O_3
REMARK    3  A    between atoms: C_5  and  O_6
REMARK    4  A    between atoms: O_6  and  C_7
REMARK    5  A    between atoms: C_9  and  C_10
REMARK    6  A    between atoms: C_10  and  C_13
REMARK    7  A    between atoms: C_13  and  N_14
REMARK    8  A    between atoms: C_18  and  C_19
REMARK                            x       y       z     vdW  Elec       q    Type
REMARK                         _______ _______ _______ _____ _____    ______ ____
ROOT
ATOM      1  C   UNL     1      43.340   4.653  12.493  0.00  0.00    +0.000 C 
ATOM      2  F   UNL     1      42.997   3.645  13.352  0.00  0.00    +0.000 F 
ATOM      3  F   UNL     1      42.314   5.557  12.582  0.00  0.00    +0.000 F 
ENDROOT
BRANCH   1   6
ATOM      4  C   UNL     1      46.849   4.971  13.977  0.00  0.00    +0.000 A 
ATOM      5  C   UNL     1      45.583   4.486  13.624  0.00  0.00    +0.000 A 
ATOM      6  C   UNL     1      44.668   5.282  12.911  0.00  0.00    +0.000 A 
ATOM      7  C   UNL     1      45.044   6.597  12.588  0.00  0.00    +0.000 A 
ATOM      8  C   UNL     1      46.316   7.076  12.909  0.00  0.00    +0.000 A 
ATOM      9  C   UNL     1      47.225   6.261  13.583  0.00  0.00    +0.000 A 
ATOM     10 CL   UNL     1      48.799   6.890  13.903  0.00  0.00    +0.000 Cl
BRANCH   4  11
ATOM     11  O   UNL     1      47.759   4.214  14.686  0.00  0.00    +0.000 OA
BRANCH  11  15
ATOM     12  C   UNL     1      49.168   3.974  18.965  0.00  0.00    +0.000 C 
ATOM     13  C   UNL     1      48.884   4.111  17.479  0.00  0.00    +0.000 C 
ATOM     14  C   UNL     1      47.492   4.717  17.179  0.00  0.00    +0.000 C 
ATOM     15  C   UNL     1      47.366   3.727  15.995  0.00  0.00    +0.000 C 
ATOM     16  C   UNL     1      48.402   2.839  16.731  0.00  0.00    +0.000 C 
BRANCH  13  17
ATOM     17  O   UNL     1      50.009   4.764  16.852  0.00  0.00    +0.000 OA
ATOM     18  H   UNL     1      50.329   5.420  17.491  0.00  0.00    +0.000 HD
ENDBRANCH  13  17
ENDBRANCH  11  15
ENDBRANCH   4  11
ENDBRANCH   1   6
BRANCH   1  19
ATOM     19  C   UNL     1      43.343   4.089  11.054  0.00  0.00    +0.000 C 
BRANCH  19  20
ATOM     20  N   UNL     1      44.071   4.900  10.050  0.00  0.00    +0.000 N 
ATOM     21  C   UNL     1      44.916   4.100   9.257  0.00  0.00    +0.000 A 
ATOM     22  C   UNL     1      45.691   4.671   8.239  0.00  0.00    +0.000 A 
ATOM     23  N   UNL     1      46.525   3.965   7.426  0.00  0.00    +0.000 NA
ATOM     24  C   UNL     1      46.539   2.625   7.664  0.00  0.00    +0.000 A 
ATOM     25  C   UNL     1      45.765   2.039   8.647  0.00  0.00    +0.000 A 
ATOM     26  N   UNL     1      44.946   2.762   9.451  0.00  0.00    +0.000 NA
ATOM     27  H   UNL     1      44.598   5.665  10.479  0.00  0.00    +0.000 HD
BRANCH  24  28
ATOM     28  C   UNL     1      47.431   1.768   6.837  0.00  0.00    +0.000 C 
ATOM     29  N   UNL     1      48.569   2.366   6.373  0.00  0.00    +0.000 N 
ATOM     30  O   UNL     1      47.169   0.598   6.590  0.00  0.00    +0.000 OA
ATOM     31  H   UNL     1      48.762   3.337   6.591  0.00  0.00    +0.000 HD
ATOM     32  H   UNL     1      49.216   1.832   5.807  0.00  0.00    +0.000 HD
ENDBRANCH  24  28
ENDBRANCH  19  20
ENDBRANCH   1  19
TORSDOF 7
ENDMDL
MODEL 2
REMARK VINA RESULT:    -8.346      2.270      3.933
REMARK INTER + INTRA:         -12.391
REMARK INTER:                 -11.328
REMARK INTRA:                  -1.064
REMARK UNBOUND:                -0.873
REMARK  Name = 
REMARK  8 active torsions:
REMARK  status: ('A' for Active; 'I' for Inactive)
REMARK    1  A    between atoms: C_1  and  C_2
REMARK    2  A    between atoms: C_2  and  O_3
REMARK    3  A    between atoms: C_5  and  O_6
REMARK    4  A    between atoms: O_6  and  C_7
REMARK    5  A    between atoms: C_9  and  C_10
REMARK    6  A    between atoms: C_10  and  C_13
REMARK    7  A    between atoms: C_13  and  N_14
REMARK    8  A    between atoms: C_18  and  C_19
REMARK                            x       y       z     vdW  Elec       q    Type
REMARK                         _______ _______ _______ _____ _____    ______ ____
ROOT
ATOM      1  C   UNL     1      43.486   4.537  12.456  0.00  0.00    +0.000 C 
ATOM      2  F   UNL     1      43.161   3.436  13.200  0.00  0.00    +0.000 F 
ATOM      3  F   UNL     1      42.518   5.461  12.752  0.00  0.00    +0.000 F 
ENDROOT
BRANCH   1   6
ATOM      4  C   UNL     1      46.306   6.988  13.270  0.00  0.00    +0.000 A 
ATOM      5  C   UNL     1      45.083   6.441  12.857  0.00  0.00    +0.000 A 
ATOM      6  C   UNL     1      44.873   5.050  12.840  0.00  0.00    +0.000 A 
ATOM      7  C   UNL     1      45.937   4.214  13.217  0.00  0.00    +0.000 A 
ATOM      8  C   UNL     1      47.147   4.753  13.660  0.00  0.00    +0.000 A 
ATOM      9  C   UNL     1      47.327   6.135  13.706  0.00  0.00    +0.000 A 
ATOM     10 CL   UNL     1      48.824   6.740  14.313  0.00  0.00    +0.000 Cl
BRANCH   4  11
ATOM     11  O   UNL     1      46.541   8.347  13.284  0.00  0.00    +0.000 OA
BRANCH  11  15
ATOM     12  C   UNL     1      49.599  11.079  11.402  0.00  0.00    +0.000 C 
ATOM     13  C   UNL     1      48.651  10.212  12.214  0.00  0.00    +0.000 C 
ATOM     14  C   UNL     1      48.345   8.851  11.543  0.00  0.00    +0.000 C 
ATOM     15  C   UNL     1      46.881   8.992  12.030  0.00  0.00    +0.000 C 
ATOM     16  C   UNL     1      47.134  10.520  12.096  0.00  0.00    +0.000 C 
BRANCH  13  17
ATOM     17  O   UNL     1      49.129  10.155  13.575  0.00  0.00    +0.000 OA
ATOM     18  H   UNL     1      50.090  10.279  13.527  0.00  0.00    +0.000 HD
ENDBRANCH  13  17
ENDBRANCH  11  15
ENDBRANCH   4  11
ENDBRANCH   1   6
BRANCH   1  19
ATOM     19  C   UNL     1      43.346   4.176  10.960  0.00  0.00    +0.000 C 
BRANCH  19  20
ATOM     20  N   UNL     1      44.161   4.989  10.027  0.00  0.00    +0.000 N 
ATOM     21  C   UNL     1      44.993   4.180   9.230  0.00  0.00    +0.000 A 
ATOM     22  C   UNL     1      45.842   4.752   8.273  0.00  0.00    +0.000 A 
ATOM     23  N   UNL     1      46.669   4.037   7.460  0.00  0.00    +0.000 NA
ATOM     24  C   UNL     1      46.597   2.688   7.634  0.00  0.00    +0.000 A 
ATOM     25  C   UNL     1      45.751   2.103   8.556  0.00  0.00    +0.000 A 
ATOM     26  N   UNL     1      44.940   2.834   9.360  0.00  0.00    +0.000 NA
ATOM     27  H   UNL     1      44.710   5.702  10.512  0.00  0.00    +0.000 HD
BRANCH  24  28
ATOM     28  C   UNL     1      47.476   1.821   6.802  0.00  0.00    +0.000 C 
ATOM     29  N   UNL     1      48.576   2.427   6.265  0.00  0.00    +0.000 N 
ATOM     30  O   UNL     1      47.234   0.635   6.615  0.00  0.00    +0.000 OA
ATOM     31  H   UNL     1      48.752   3.410   6.435  0.00  0.00    +0.000 HD
ATOM     32  H   UNL     1      49.212   1.886   5.692  0.00  0.00    +0.000 HD
ENDBRANCH  24  28
ENDBRANCH  19  20
ENDBRANCH   1  19
TORSDOF 7
ENDMDL
MODEL 3
REMARK VINA RESULT:    -7.825      1.632      1.877
REMARK INTER + INTRA:         -11.672
REMARK INTER:                 -10.608
REMARK INTRA:                  -1.064
REMARK UNBOUND:                -0.873
REMARK  Name = 
REMARK  8 active torsions:
REMARK  status: ('A' for Active; 'I' for Inactive)
REMARK    1  A    between atoms: C_1  and  C_2
REMARK    2  A    between atoms: C_2  and  O_3
REMARK    3  A    between atoms: C_5  and  O_6
REMARK    4  A    between atoms: O_6  and  C_7
REMARK    5  A    between atoms: C_9  and  C_10
REMARK    6  A    between atoms: C_10  and  C_13
REMARK    7  A    between atoms: C_13  and  N_14
REMARK    8  A    between atoms: C_18  and  C_19
REMARK                            x       y       z     vdW  Elec       q    Type
REMARK                         _______ _______ _______ _____ _____    ______ ____
ROOT
ATOM      1  C   UNL     1      43.837   5.411  12.186  0.00  0.00    +0.000 C 
ATOM      2  F   UNL     1      43.675   4.391  13.084  0.00  0.00    +0.000 F 
ATOM      3  F   UNL     1      42.838   6.302  12.480  0.00  0.00    +0.000 F 
ENDROOT
BRANCH   1   6
ATOM      4  C   UNL     1      47.395   5.991  13.461  0.00  0.00    +0.000 A 
ATOM      5  C   UNL     1      46.091   5.503  13.305  0.00  0.00    +0.000 A 
ATOM      6  C   UNL     1      45.214   6.053  12.351  0.00  0.00    +0.000 A 
ATOM      7  C   UNL     1      45.670   7.132  11.576  0.00  0.00    +0.000 A 
ATOM      8  C   UNL     1      46.979   7.602  11.704  0.00  0.00    +0.000 A 
ATOM      9  C   UNL     1      47.847   7.022  12.628  0.00  0.00    +0.000 A 
ATOM     10 CL   UNL     1      49.467   7.610  12.702  0.00  0.00    +0.000 Cl
BRANCH   4  11
ATOM     11  O   UNL     1      48.269   5.478  14.397  0.00  0.00    +0.000 OA
BRANCH  11  15
ATOM     12  C   UNL     1      50.665   7.125  17.847  0.00  0.00    +0.000 C 
ATOM     13  C   UNL     1      50.038   6.528  16.598  0.00  0.00    +0.000 C 
ATOM     14  C   UNL     1      48.778   7.293  16.124  0.00  0.00    +0.000 C 
ATOM     15  C   UNL     1      48.138   5.928  15.769  0.00  0.00    +0.000 C 
ATOM     16  C   UNL     1      49.116   5.293  16.791  0.00  0.00    +0.000 C 
BRANCH  13  17
ATOM     17  O   UNL     1      51.071   6.333  15.609  0.00  0.00    +0.000 OA
ATOM     18  H   UNL     1      50.846   5.511  15.145  0.00  0.00    +0.000 HD
ENDBRANCH  13  17
ENDBRANCH  11  15
ENDBRANCH   4  11
ENDBRANCH   1   6
BRANCH   1  19
ATOM     19  C   UNL     1      43.571   4.861  10.767  0.00  0.00    +0.000 C 
BRANCH  19  20
ATOM     20  N   UNL     1      43.826   3.412  10.584  0.00  0.00    +0.000 N 
ATOM     21  C   UNL     1      44.726   3.177   9.528  0.00  0.00    +0.000 A 
ATOM     22  C   UNL     1      45.109   1.872   9.193  0.00  0.00    +0.000 A 
ATOM     23  N   UNL     1      45.979   1.564   8.190  0.00  0.00    +0.000 NA
ATOM     24  C   UNL     1      46.481   2.645   7.532  0.00  0.00    +0.000 A 
ATOM     25  C   UNL     1      46.134   3.940   7.861  0.00  0.00    +0.000 A 
ATOM     26  N   UNL     1      45.260   4.225   8.859  0.00  0.00    +0.000 NA
ATOM     27  H   UNL     1      42.963   2.881  10.447  0.00  0.00    +0.000 HD
BRANCH  24  28
ATOM     28  C   UNL     1      47.429   2.410   6.409  0.00  0.00    +0.000 C 
ATOM     29  N   UNL     1      47.229   3.170   5.292  0.00  0.00    +0.000 N 
ATOM     30  O   UNL     1      48.337   1.592   6.481  0.00  0.00    +0.000 OA
ATOM     31  H   UNL     1      46.469   3.839   5.257  0.00  0.00    +0.000 HD
ATOM     32  H   UNL     1      47.845   3.056   4.495  0.00  0.00    +0.000 HD
ENDBRANCH  24  28
ENDBRANCH  19  20
ENDBRANCH   1  19
TORSDOF 7
ENDMDL
MODEL 4
REMARK VINA RESULT:    -7.641      3.041      3.764
REMARK INTER + INTRA:         -11.418
REMARK INTER:                 -10.311
REMARK INTRA:                  -1.108
REMARK UNBOUND:                -0.873
REMARK  Name = 
REMARK  8 active torsions:
REMARK  status: ('A' for Active; 'I' for Inactive)
REMARK    1  A    between atoms: C_1  and  C_2
REMARK    2  A    between atoms: C_2  and  O_3
REMARK    3  A    between atoms: C_5  and  O_6
REMARK    4  A    between atoms: O_6  and  C_7
REMARK    5  A    between atoms: C_9  and  C_10
REMARK    6  A    between atoms: C_10  and  C_13
REMARK    7  A    between atoms: C_13  and  N_14
REMARK    8  A    between atoms: C_18  and  C_19
REMARK                            x       y       z     vdW  Elec       q    Type
REMARK                         _______ _______ _______ _____ _____    ______ ____
ROOT
ATOM      1  C   UNL     1      44.025   5.272  12.231  0.00  0.00    +0.000 C 
ATOM      2  F   UNL     1      44.891   4.357  12.764  0.00  0.00    +0.000 F 
ATOM      3  F   UNL     1      42.935   5.252  13.062  0.00  0.00    +0.000 F 
ENDROOT
BRANCH   1   6
ATOM      4  C   UNL     1      46.558   8.069  12.849  0.00  0.00    +0.000 A 
ATOM      5  C   UNL     1      45.873   6.847  12.896  0.00  0.00    +0.000 A 
ATOM      6  C   UNL     1      44.667   6.658  12.196  0.00  0.00    +0.000 A 
ATOM      7  C   UNL     1      44.144   7.742  11.471  0.00  0.00    +0.000 A 
ATOM      8  C   UNL     1      44.838   8.952  11.395  0.00  0.00    +0.000 A 
ATOM      9  C   UNL     1      46.051   9.111  12.064  0.00  0.00    +0.000 A 
ATOM     10 CL   UNL     1      46.886  10.610  11.888  0.00  0.00    +0.000 Cl
BRANCH   4  11
ATOM     11  O   UNL     1      47.735   8.282  13.536  0.00  0.00    +0.000 OA
BRANCH  11  15
ATOM     12  C   UNL     1      51.942   8.444  11.915  0.00  0.00    +0.000 C 
ATOM     13  C   UNL     1      50.507   8.582  12.395  0.00  0.00    +0.000 C 
ATOM     14  C   UNL     1      50.252   7.889  13.756  0.00  0.00    +0.000 C 
ATOM     15  C   UNL     1      48.872   7.439  13.217  0.00  0.00    +0.000 C 
ATOM     16  C   UNL     1      49.463   7.604  11.793  0.00  0.00    +0.000 C 
BRANCH  13  17
ATOM     17  O   UNL     1      50.121   9.971  12.309  0.00  0.00    +0.000 OA
ATOM     18  H   UNL     1      49.198  10.011  12.603  0.00  0.00    +0.000 HD
ENDBRANCH  13  17
ENDBRANCH  11  15
ENDBRANCH   4  11
ENDBRANCH   1   6
BRANCH   1  19
ATOM     19  C   UNL     1      43.566   4.762  10.846  0.00  0.00    +0.000 C 
BRANCH  19  20
ATOM     20  N   UNL     1      43.783   3.318  10.593  0.00  0.00    +0.000 N 
ATOM     21  C   UNL     1      44.716   3.111   9.558  0.00  0.00    +0.000 A 
ATOM     22  C   UNL     1      45.071   1.815   9.165  0.00  0.00    +0.000 A 
ATOM     23  N   UNL     1      45.968   1.533   8.179  0.00  0.00    +0.000 NA
ATOM     24  C   UNL     1      46.528   2.632   7.600  0.00  0.00    +0.000 A 
ATOM     25  C   UNL     1      46.209   3.918   7.988  0.00  0.00    +0.000 A 
ATOM     26  N   UNL     1      45.306   4.176   8.968  0.00  0.00    +0.000 NA
ATOM     27  H   UNL     1      42.911   2.824  10.394  0.00  0.00    +0.000 HD
BRANCH  24  28
ATOM     28  C   UNL     1      47.511   2.428   6.501  0.00  0.00    +0.000 C 
ATOM     29  N   UNL     1      47.347   3.221   5.401  0.00  0.00    +0.000 N 
ATOM     30  O   UNL     1      48.415   1.607   6.578  0.00  0.00    +0.000 OA
ATOM     31  H   UNL     1      46.589   3.893   5.362  0.00  0.00    +0.000 HD
ATOM     32  H   UNL     1      47.987   3.129   4.621  0.00  0.00    +0.000 HD
ENDBRANCH  24  28
ENDBRANCH  19  20
ENDBRANCH   1  19
TORSDOF 7
ENDMDL
MODEL 5
REMARK VINA RESULT:    -7.613      3.859      7.923
REMARK INTER + INTRA:         -11.379
REMARK INTER:                 -10.555
REMARK INTRA:                  -0.824
REMARK UNBOUND:                -0.873
REMARK  Name = 
REMARK  8 active torsions:
REMARK  status: ('A' for Active; 'I' for Inactive)
REMARK    1  A    between atoms: C_1  and  C_2
REMARK    2  A    between atoms: C_2  and  O_3
REMARK    3  A    between atoms: C_5  and  O_6
REMARK    4  A    between atoms: O_6  and  C_7
REMARK    5  A    between atoms: C_9  and  C_10
REMARK    6  A    between atoms: C_10  and  C_13
REMARK    7  A    between atoms: C_13  and  N_14
REMARK    8  A    between atoms: C_18  and  C_19
REMARK                            x       y       z     vdW  Elec       q    Type
REMARK                         _______ _______ _______ _____ _____    ______ ____
ROOT
ATOM      1  C   UNL     1      46.402   7.432  12.495  0.00  0.00    +0.000 C 
ATOM      2  F   UNL     1      46.323   8.344  11.478  0.00  0.00    +0.000 F 
ATOM      3  F   UNL     1      46.013   8.120  13.615  0.00  0.00    +0.000 F 
ENDROOT
BRANCH   1   6
ATOM      4  C   UNL     1      45.006   4.270  10.862  0.00  0.00    +0.000 A 
ATOM      5  C   UNL     1      45.767   5.416  11.128  0.00  0.00    +0.000 A 
ATOM      6  C   UNL     1      45.475   6.248  12.225  0.00  0.00    +0.000 A 
ATOM      7  C   UNL     1      44.374   5.919  13.032  0.00  0.00    +0.000 A 
ATOM      8  C   UNL     1      43.631   4.762  12.791  0.00  0.00    +0.000 A 
ATOM      9  C   UNL     1      43.956   3.927  11.722  0.00  0.00    +0.000 A 
ATOM     10 CL   UNL     1      43.035   2.485  11.508  0.00  0.00    +0.000 Cl
BRANCH   4  11
ATOM     11  O   UNL     1      45.264   3.445   9.787  0.00  0.00    +0.000 OA
BRANCH  11  15
ATOM     12  C   UNL     1      46.737   2.852   5.564  0.00  0.00    +0.000 C 
ATOM     13  C   UNL     1      46.381   2.914   7.040  0.00  0.00    +0.000 C 
ATOM     14  C   UNL     1      44.860   3.044   7.294  0.00  0.00    +0.000 C 
ATOM     15  C   UNL     1      45.183   4.016   8.456  0.00  0.00    +0.000 C 
ATOM     16  C   UNL     1      46.536   4.287   7.747  0.00  0.00    +0.000 C 
BRANCH  13  17
ATOM     17  O   UNL     1      47.047   1.830   7.722  0.00  0.00    +0.000 OA
ATOM     18  H   UNL     1      47.331   1.212   7.030  0.00  0.00    +0.000 HD
ENDBRANCH  13  17
ENDBRANCH  11  15
ENDBRANCH   4  11
ENDBRANCH   1   6
BRANCH   1  19
ATOM     19  C   UNL     1      47.884   7.035  12.682  0.00  0.00    +0.000 C 
BRANCH  19  20
ATOM     20  N   UNL     1      48.470   7.355  14.005  0.00  0.00    +0.000 N 
ATOM     21  C   UNL     1      48.263   6.311  14.927  0.00  0.00    +0.000 A 
ATOM     22  C   UNL     1      48.746   6.409  16.238  0.00  0.00    +0.000 A 
ATOM     23  N   UNL     1      48.593   5.441  17.184  0.00  0.00    +0.000 NA
ATOM     24  C   UNL     1      47.936   4.331  16.748  0.00  0.00    +0.000 A 
ATOM     25  C   UNL     1      47.471   4.204  15.454  0.00  0.00    +0.000 A 
ATOM     26  N   UNL     1      47.628   5.184  14.529  0.00  0.00    +0.000 NA
ATOM     27  H   UNL     1      48.121   8.240  14.380  0.00  0.00    +0.000 HD
BRANCH  24  28
ATOM     28  C   UNL     1      47.704   3.222  17.714  0.00  0.00    +0.000 C 
ATOM     29  N   UNL     1      48.684   3.029  18.645  0.00  0.00    +0.000 N 
ATOM     30  O   UNL     1      46.695   2.529  17.682  0.00  0.00    +0.000 OA
ATOM     31  H   UNL     1      49.510   3.616  18.649  0.00  0.00    +0.000 HD
ATOM     32  H   UNL     1      48.581   2.290  19.330  0.00  0.00    +0.000 HD
ENDBRANCH  24  28
ENDBRANCH  19  20
ENDBRANCH   1  19
TORSDOF 7
ENDMDL
MODEL 6
REMARK VINA RESULT:    -7.462      4.309      8.448
REMARK INTER + INTRA:         -11.171
REMARK INTER:                 -10.305
REMARK INTRA:                  -0.866
REMARK UNBOUND:                -0.873
REMARK  Name = 
REMARK  8 active torsions:
REMARK  status: ('A' for Active; 'I' for Inactive)
REMARK    1  A    between atoms: C_1  and  C_2
REMARK    2  A    between atoms: C_2  and  O_3
REMARK    3  A    between atoms: C_5  and  O_6
REMARK    4  A    between atoms: O_6  and  C_7
REMARK    5  A    between atoms: C_9  and  C_10
REMARK    6  A    between atoms: C_10  and  C_13
REMARK    7  A    between atoms: C_13  and  N_14
REMARK    8  A    between atoms: C_18  and  C_19
REMARK                            x       y       z     vdW  Elec       q    Type
REMARK                         _______ _______ _______ _____ _____    ______ ____
ROOT
ATOM      1  C   UNL     1      47.491   6.943  12.217  0.00  0.00    +0.000 C 
ATOM      2  F   UNL     1      48.023   7.185  10.980  0.00  0.00    +0.000 F 
ATOM      3  F   UNL     1      47.050   8.164  12.657  0.00  0.00    +0.000 F 
ENDROOT
BRANCH   1   6
ATOM      4  C   UNL     1      44.793   4.724  10.663  0.00  0.00    +0.000 A 
ATOM      5  C   UNL     1      45.800   5.681  10.843  0.00  0.00    +0.000 A 
ATOM      6  C   UNL     1      46.339   5.944  12.116  0.00  0.00    +0.000 A 
ATOM      7  C   UNL     1      45.816   5.242  13.215  0.00  0.00    +0.000 A 
ATOM      8  C   UNL     1      44.836   4.264  13.038  0.00  0.00    +0.000 A 
ATOM      9  C   UNL     1      44.338   3.989  11.765  0.00  0.00    +0.000 A 
ATOM     10 CL   UNL     1      43.167   2.733  11.603  0.00  0.00    +0.000 Cl
BRANCH   4  11
ATOM     11  O   UNL     1      44.240   4.457   9.428  0.00  0.00    +0.000 OA
BRANCH  11  15
ATOM     12  C   UNL     1      47.204   2.450   6.682  0.00  0.00    +0.000 C 
ATOM     13  C   UNL     1      46.291   3.301   7.547  0.00  0.00    +0.000 C 
ATOM     14  C   UNL     1      46.001   2.670   8.931  0.00  0.00    +0.000 C 
ATOM     15  C   UNL     1      44.544   3.181   8.808  0.00  0.00    +0.000 C 
ATOM     16  C   UNL     1      44.765   3.204   7.273  0.00  0.00    +0.000 C 
BRANCH  13  17
ATOM     17  O   UNL     1      46.794   4.654   7.560  0.00  0.00    +0.000 OA
ATOM     18  H   UNL     1      47.339   4.745   6.762  0.00  0.00    +0.000 HD
ENDBRANCH  13  17
ENDBRANCH  11  15
ENDBRANCH   4  11
ENDBRANCH   1   6
BRANCH   1  19
ATOM     19  C   UNL     1      48.629   6.490  13.160  0.00  0.00    +0.000 C 
BRANCH  19  20
ATOM     20  N   UNL     1      48.903   7.386  14.308  0.00  0.00    +0.000 N 
ATOM     21  C   UNL     1      48.743   6.716  15.535  0.00  0.00    +0.000 A 
ATOM     22  C   UNL     1      48.963   7.382  16.748  0.00  0.00    +0.000 A 
ATOM     23  N   UNL     1      48.835   6.801  17.973  0.00  0.00    +0.000 NA
ATOM     24  C   UNL     1      48.489   5.484  17.936  0.00  0.00    +0.000 A 
ATOM     25  C   UNL     1      48.290   4.803  16.751  0.00  0.00    +0.000 A 
ATOM     26  N   UNL     1      48.415   5.403  15.541  0.00  0.00    +0.000 NA
ATOM     27  H   UNL     1      48.331   8.234  14.283  0.00  0.00    +0.000 HD
BRANCH  24  28
ATOM     28  C   UNL     1      48.310   4.764  19.226  0.00  0.00    +0.000 C 
ATOM     29  N   UNL     1      48.468   3.409  19.179  0.00  0.00    +0.000 N 
ATOM     30  O   UNL     1      48.044   5.349  20.269  0.00  0.00    +0.000 OA
ATOM     31  H   UNL     1      48.687   2.949  18.303  0.00  0.00    +0.000 HD
ATOM     32  H   UNL     1      48.361   2.865  20.027  0.00  0.00    +0.000 HD
ENDBRANCH  24  28
ENDBRANCH  19  20
ENDBRANCH   1  19
TORSDOF 7
ENDMDL
MODEL 7
REMARK VINA RESULT:    -7.449      3.412      5.566
REMARK INTER + INTRA:         -11.153
REMARK INTER:                 -10.478
REMARK INTRA:                  -0.675
REMARK UNBOUND:                -0.873
REMARK  Name = 
REMARK  8 active torsions:
REMARK  status: ('A' for Active; 'I' for Inactive)
REMARK    1  A    between atoms: C_1  and  C_2
REMARK    2  A    between atoms: C_2  and  O_3
REMARK    3  A    between atoms: C_5  and  O_6
REMARK    4  A    between atoms: O_6  and  C_7
REMARK    5  A    between atoms: C_9  and  C_10
REMARK    6  A    between atoms: C_10  and  C_13
REMARK    7  A    between atoms: C_13  and  N_14
REMARK    8  A    between atoms: C_18  and  C_19
REMARK                            x       y       z     vdW  Elec       q    Type
REMARK                         _______ _______ _______ _____ _____    ______ ____
ROOT
ATOM      1  C   UNL     1      43.839   4.985  12.462  0.00  0.00    +0.000 C 
ATOM      2  F   UNL     1      44.288   3.965  13.256  0.00  0.00    +0.000 F 
ATOM      3  F   UNL     1      42.749   5.492  13.122  0.00  0.00    +0.000 F 
ENDROOT
BRANCH   1   6
ATOM      4  C   UNL     1      45.468   8.429  12.138  0.00  0.00    +0.000 A 
ATOM      5  C   UNL     1      44.526   7.395  12.219  0.00  0.00    +0.000 A 
ATOM      6  C   UNL     1      44.924   6.047  12.292  0.00  0.00    +0.000 A 
ATOM      7  C   UNL     1      46.298   5.759  12.248  0.00  0.00    +0.000 A 
ATOM      8  C   UNL     1      47.243   6.786  12.199  0.00  0.00    +0.000 A 
ATOM      9  C   UNL     1      46.833   8.118  12.164  0.00  0.00    +0.000 A 
ATOM     10 CL   UNL     1      48.047   9.343  12.159  0.00  0.00    +0.000 Cl
BRANCH   4  11
ATOM     11  O   UNL     1      45.102   9.757  12.053  0.00  0.00    +0.000 OA
BRANCH  11  15
ATOM     12  C   UNL     1      42.517  11.516   8.801  0.00  0.00    +0.000 C 
ATOM     13  C   UNL     1      43.546  10.999   9.792  0.00  0.00    +0.000 C 
ATOM     14  C   UNL     1      43.206   9.594  10.346  0.00  0.00    +0.000 C 
ATOM     15  C   UNL     1      43.722  10.063  11.728  0.00  0.00    +0.000 C 
ATOM     16  C   UNL     1      43.439  11.512  11.254  0.00  0.00    +0.000 C 
BRANCH  13  17
ATOM     17  O   UNL     1      44.861  11.153   9.216  0.00  0.00    +0.000 OA
ATOM     18  H   UNL     1      44.733  11.630   8.382  0.00  0.00    +0.000 HD
ENDBRANCH  13  17
ENDBRANCH  11  15
ENDBRANCH   4  11
ENDBRANCH   1   6
BRANCH   1  19
ATOM     19  C   UNL     1      43.339   4.384  11.129  0.00  0.00    +0.000 C 
BRANCH  19  20
ATOM     20  N   UNL     1      43.988   4.914   9.906  0.00  0.00    +0.000 N 
ATOM     21  C   UNL     1      44.756   3.926   9.261  0.00  0.00    +0.000 A 
ATOM     22  C   UNL     1      45.448   4.218   8.078  0.00  0.00    +0.000 A 
ATOM     23  N   UNL     1      46.205   3.317   7.393  0.00  0.00    +0.000 NA
ATOM     24  C   UNL     1      46.228   2.071   7.942  0.00  0.00    +0.000 A 
ATOM     25  C   UNL     1      45.535   1.756   9.095  0.00  0.00    +0.000 A 
ATOM     26  N   UNL     1      44.792   2.671   9.766  0.00  0.00    +0.000 NA
ATOM     27  H   UNL     1      44.554   5.744  10.096  0.00  0.00    +0.000 HD
BRANCH  24  28
ATOM     28  C   UNL     1      47.041   1.019   7.274  0.00  0.00    +0.000 C 
ATOM     29  N   UNL     1      46.692  -0.272   7.554  0.00  0.00    +0.000 N 
ATOM     30  O   UNL     1      47.963   1.290   6.515  0.00  0.00    +0.000 OA
ATOM     31  H   UNL     1      45.925  -0.469   8.187  0.00  0.00    +0.000 HD
ATOM     32  H   UNL     1      47.208  -1.031   7.126  0.00  0.00    +0.000 HD
ENDBRANCH  24  28
ENDBRANCH  19  20
ENDBRANCH   1  19
TORSDOF 7
ENDMDL
MODEL 8
REMARK VINA RESULT:    -6.879      4.944      7.777
REMARK INTER + INTRA:         -10.366
REMARK INTER:                  -9.217
REMARK INTRA:                  -1.148
REMARK UNBOUND:                -0.873
REMARK  Name = 
REMARK  8 active torsions:
REMARK  status: ('A' for Active; 'I' for Inactive)
REMARK    1  A    between atoms: C_1  and  C_2
REMARK    2  A    between atoms: C_2  and  O_3
REMARK    3  A    between atoms: C_5  and  O_6
REMARK    4  A    between atoms: O_6  and  C_7
REMARK    5  A    between atoms: C_9  and  C_10
REMARK    6  A    between atoms: C_10  and  C_13
REMARK    7  A    between atoms: C_13  and  N_14
REMARK    8  A    between atoms: C_18  and  C_19
REMARK                            x       y       z     vdW  Elec       q    Type
REMARK                         _______ _______ _______ _____ _____    ______ ____
ROOT
ATOM      1  C   UNL     1      49.165   9.148  12.560  0.00  0.00    +0.000 C 
ATOM      2  F   UNL     1      49.992   9.257  11.475  0.00  0.00    +0.000 F 
ATOM      3  F   UNL     1      49.653  10.054  13.467  0.00  0.00    +0.000 F 
ENDROOT
BRANCH   1   6
ATOM      4  C   UNL     1      45.428   8.679  11.904  0.00  0.00    +0.000 A 
ATOM      5  C   UNL     1      46.781   8.437  12.179  0.00  0.00    +0.000 A 
ATOM      6  C   UNL     1      47.726   9.479  12.169  0.00  0.00    +0.000 A 
ATOM      7  C   UNL     1      47.284  10.772  11.841  0.00  0.00    +0.000 A 
ATOM      8  C   UNL     1      45.932  11.025  11.598  0.00  0.00    +0.000 A 
ATOM      9  C   UNL     1      45.002   9.988  11.648  0.00  0.00    +0.000 A 
ATOM     10 CL   UNL     1      43.340  10.372  11.391  0.00  0.00    +0.000 Cl
BRANCH   4  11
ATOM     11  O   UNL     1      44.485   7.672  11.895  0.00  0.00    +0.000 OA
BRANCH  11  15
ATOM     12  C   UNL     1      43.565   3.302  12.537  0.00  0.00    +0.000 C 
ATOM     13  C   UNL     1      43.752   4.809  12.480  0.00  0.00    +0.000 C 
ATOM     14  C   UNL     1      43.807   5.361  11.035  0.00  0.00    +0.000 C 
ATOM     15  C   UNL     1      44.911   6.343  11.501  0.00  0.00    +0.000 C 
ATOM     16  C   UNL     1      45.198   5.348  12.655  0.00  0.00    +0.000 C 
BRANCH  13  17
ATOM     17  O   UNL     1      42.790   5.429  13.360  0.00  0.00    +0.000 OA
ATOM     18  H   UNL     1      42.075   5.752  12.789  0.00  0.00    +0.000 HD
ENDBRANCH  13  17
ENDBRANCH  11  15
ENDBRANCH   4  11
ENDBRANCH   1   6
BRANCH   1  19
ATOM     19  C   UNL     1      49.339   7.738  13.168  0.00  0.00    +0.000 C 
BRANCH  19  20
ATOM     20  N   UNL     1      49.842   7.700  14.561  0.00  0.00    +0.000 N 
ATOM     21  C   UNL     1      49.220   6.680  15.306  0.00  0.00    +0.000 A 
ATOM     22  C   UNL     1      49.560   6.467  16.648  0.00  0.00    +0.000 A 
ATOM     23  N   UNL     1      49.009   5.499  17.432  0.00  0.00    +0.000 NA
ATOM     24  C   UNL     1      48.094   4.716  16.796  0.00  0.00    +0.000 A 
ATOM     25  C   UNL     1      47.762   4.894  15.467  0.00  0.00    +0.000 A 
ATOM     26  N   UNL     1      48.317   5.870  14.706  0.00  0.00    +0.000 NA
ATOM     27  H   UNL     1      49.745   8.602  15.033  0.00  0.00    +0.000 HD
BRANCH  24  28
ATOM     28  C   UNL     1      47.424   3.638  17.573  0.00  0.00    +0.000 C 
ATOM     29  N   UNL     1      48.062   3.241  18.714  0.00  0.00    +0.000 N 
ATOM     30  O   UNL     1      46.363   3.140  17.219  0.00  0.00    +0.000 OA
ATOM     31  H   UNL     1      48.940   3.669  18.985  0.00  0.00    +0.000 HD
ATOM     32  H   UNL     1      47.652   2.512  19.286  0.00  0.00    +0.000 HD
ENDBRANCH  24  28
ENDBRANCH  19  20
ENDBRANCH   1  19
TORSDOF 7
ENDMDL
MODEL 9
REMARK VINA RESULT:    -6.777      2.894      4.177
REMARK INTER + INTRA:         -10.225
REMARK INTER:                  -9.347
REMARK INTRA:                  -0.878
REMARK UNBOUND:                -0.873
REMARK  Name = 
REMARK  8 active torsions:
REMARK  status: ('A' for Active; 'I' for Inactive)
REMARK    1  A    between atoms: C_1  and  C_2
REMARK    2  A    between atoms: C_2  and  O_3
REMARK    3  A    between atoms: C_5  and  O_6
REMARK    4  A    between atoms: O_6  and  C_7
REMARK    5  A    between atoms: C_9  and  C_10
REMARK    6  A    between atoms: C_10  and  C_13
REMARK    7  A    between atoms: C_13  and  N_14
REMARK    8  A    between atoms: C_18  and  C_19
REMARK                            x       y       z     vdW  Elec       q    Type
REMARK                         _______ _______ _______ _____ _____    ______ ____
ROOT
ATOM      1  C   UNL     1      47.588   8.121  12.742  0.00  0.00    +0.000 C 
ATOM      2  F   UNL     1      47.678   9.331  12.109  0.00  0.00    +0.000 F 
ATOM      3  F   UNL     1      48.223   7.239  11.908  0.00  0.00    +0.000 F 
ENDROOT
BRANCH   1   6
ATOM      4  C   UNL     1      49.623   7.019  15.786  0.00  0.00    +0.000 A 
ATOM      5  C   UNL     1      48.912   7.019  14.578  0.00  0.00    +0.000 A 
ATOM      6  C   UNL     1      48.272   8.181  14.107  0.00  0.00    +0.000 A 
ATOM      7  C   UNL     1      48.336   9.340  14.898  0.00  0.00    +0.000 A 
ATOM      8  C   UNL     1      49.070   9.355  16.087  0.00  0.00    +0.000 A 
ATOM      9  C   UNL     1      49.729   8.206  16.521  0.00  0.00    +0.000 A 
ATOM     10 CL   UNL     1      50.662   8.302  17.968  0.00  0.00    +0.000 Cl
BRANCH   4  11
ATOM     11  O   UNL     1      50.248   5.891  16.275  0.00  0.00    +0.000 OA
BRANCH  11  15
ATOM     12  C   UNL     1      47.231   2.796  17.570  0.00  0.00    +0.000 C 
ATOM     13  C   UNL     1      48.162   3.825  16.949  0.00  0.00    +0.000 C 
ATOM     14  C   UNL     1      49.619   3.714  17.460  0.00  0.00    +0.000 C 
ATOM     15  C   UNL     1      49.689   5.262  17.456  0.00  0.00    +0.000 C 
ATOM     16  C   UNL     1      48.142   5.253  17.557  0.00  0.00    +0.000 C 
BRANCH  13  17
ATOM     17  O   UNL     1      47.989   3.800  15.516  0.00  0.00    +0.000 OA
ATOM     18  H   UNL     1      48.825   3.468  15.151  0.00  0.00    +0.000 HD
ENDBRANCH  13  17
ENDBRANCH  11  15
ENDBRANCH   4  11
ENDBRANCH   1   6
BRANCH   1  19
ATOM     19  C   UNL     1      46.099   7.713  12.808  0.00  0.00    +0.000 C 
BRANCH  19  20
ATOM     20  N   UNL     1      45.834   6.334  13.281  0.00  0.00    +0.000 N 
ATOM     21  C   UNL     1      45.517   5.475  12.212  0.00  0.00    +0.000 A 
ATOM     22  C   UNL     1      45.239   4.121  12.442  0.00  0.00    +0.000 A 
ATOM     23  N   UNL     1      44.931   3.226  11.461  0.00  0.00    +0.000 NA
ATOM     24  C   UNL     1      44.933   3.750  10.204  0.00  0.00    +0.000 A 
ATOM     25  C   UNL     1      45.227   5.076   9.954  0.00  0.00    +0.000 A 
ATOM     26  N   UNL     1      45.524   5.952  10.946  0.00  0.00    +0.000 NA
ATOM     27  H   UNL     1      45.104   6.303  13.997  0.00  0.00    +0.000 HD
BRANCH  24  28
ATOM     28  C   UNL     1      44.594   2.854   9.065  0.00  0.00    +0.000 C 
ATOM     29  N   UNL     1      44.323   3.475   7.879  0.00  0.00    +0.000 N 
ATOM     30  O   UNL     1      44.566   1.635   9.179  0.00  0.00    +0.000 OA
ATOM     31  H   UNL     1      44.352   4.486   7.812  0.00  0.00    +0.000 HD
ATOM     32  H   UNL     1      44.088   2.916   7.067  0.00  0.00    +0.000 HD
ENDBRANCH  24  28
ENDBRANCH  19  20
ENDBRANCH   1  19
TORSDOF 7
ENDMDL
