MODEL 1
REMARK VINA RESULT:    -9.510      0.000      0.000
REMARK INTER + INTRA:         -14.573
REMARK INTER:                 -13.680
REMARK INTRA:                  -0.893
REMARK UNBOUND:                -0.893
REMARK  Name = 
REMARK  8 active torsions:
REMARK  status: ('A' for Active; 'I' for Inactive)
REMARK    1  A    between atoms: C_2  and  C_3
REMARK    2  A    between atoms: C_2  and  C_22
REMARK    3  A    between atoms: C_3  and  O_4
REMARK    4  A    between atoms: O_4  and  C_5
REMARK    5  A    between atoms: C_8  and  C_9
REMARK    6  A    between atoms: C_9  and  N_10
REMARK    7  A    between atoms: C_11  and  C_13
REMARK    8  A    between atoms: C_16  and  O_17
REMARK                            x       y       z     vdW  Elec       q    Type
REMARK                         _______ _______ _______ _____ _____    ______ ____
ROOT
ATOM      1  C   UNL     1      46.713   4.677  13.756  0.00  0.00    +0.000 A 
ATOM      2  C   UNL     1      46.365   3.412  13.281  0.00  0.00    +0.000 A 
ATOM      3  C   UNL     1      45.389   3.277  12.282  0.00  0.00    +0.000 A 
ATOM      4  C   UNL     1      44.752   4.409  11.755  0.00  0.00    +0.000 A 
ATOM      5  C   UNL     1      45.062   5.664  12.290  0.00  0.00    +0.000 A 
ATOM      6  C   UNL     1      46.029   5.792  13.289  0.00  0.00    +0.000 A 
ENDROOT
BRANCH   1   7
ATOM      7  O   UNL     1      47.732   4.733  14.673  0.00  0.00    +0.000 OA
BRANCH   7   8
ATOM      8  C   UNL     1      47.327   5.129  15.986  0.00  0.00    +0.000 C 
BRANCH   8  10
ATOM      9  O   UNL     1      46.885   3.259  17.446  0.00  0.00    +0.000 OA
ATOM     10  C   UNL     1      47.689   4.106  17.059  0.00  0.00    +0.000 C 
BRANCH  10  11
ATOM     11  C   UNL     1      49.037   4.186  17.647  0.00  0.00    +0.000 A 
ATOM     12  C   UNL     1      49.469   5.251  18.423  0.00  0.00    +0.000 A 
ATOM     13  S   UNL     1      51.053   5.041  19.029  0.00  0.00    +0.000 S 
ATOM     14  C   UNL     1      51.210   3.533  18.258  0.00  0.00    +0.000 A 
ATOM     15  N   UNL     1      52.356   2.805  18.372  0.00  0.00    +0.000 NA
ATOM     16  C   UNL     1      52.330   1.679  17.740  0.00  0.00    +0.000 A 
ATOM     17  N   UNL     1      51.270   1.220  17.001  0.00  0.00    +0.000 N 
ATOM     18  C   UNL     1      50.128   1.958  16.783  0.00  0.00    +0.000 A 
ATOM     19  O   UNL     1      49.299   1.596  15.954  0.00  0.00    +0.000 OA
ATOM     20  C   UNL     1      50.081   3.199  17.536  0.00  0.00    +0.000 A 
ATOM     21  H   UNL     1      51.337   0.357  16.480  0.00  0.00    +0.000 HD
ENDBRANCH  10  11
ENDBRANCH   8  10
ENDBRANCH   7   8
ENDBRANCH   1   7
BRANCH   4  22
ATOM     22  C   UNL     1      43.740   4.313  10.641  0.00  0.00    +0.000 C 
BRANCH  22  23
ATOM     23  N   UNL     1      44.231   3.522   9.534  0.00  0.00    +0.000 N 
ATOM     24  C   UNL     1      45.191   4.017   8.680  0.00  0.00    +0.000 C 
ATOM     25  O   UNL     1      45.671   5.139   8.806  0.00  0.00    +0.000 OA
ATOM     26  H   UNL     1      44.029   2.531   9.533  0.00  0.00    +0.000 HD
BRANCH  24  27
ATOM     27  C   UNL     1      45.592   3.054   7.553  0.00  0.00    +0.000 C 
ATOM     28  C   UNL     1      46.401   3.791   6.472  0.00  0.00    +0.000 C 
ATOM     29  C   UNL     1      46.946   2.848   5.397  0.00  0.00    +0.000 C 
ATOM     30  C   UNL     1      47.752   1.695   5.990  0.00  0.00    +0.000 C 
ATOM     31  C   UNL     1      46.934   0.937   7.031  0.00  0.00    +0.000 C 
ATOM     32  C   UNL     1      46.374   1.854   8.119  0.00  0.00    +0.000 C 
BRANCH  30  33
ATOM     33  O   UNL     1      48.963   2.186   6.559  0.00  0.00    +0.000 OA
ATOM     34  H   UNL     1      49.694   1.596   6.315  0.00  0.00    +0.000 HD
ENDBRANCH  30  33
ENDBRANCH  24  27
ENDBRANCH  22  23
ENDBRANCH   4  22
TORSDOF 8
ENDMDL
MODEL 2
REMARK VINA RESULT:    -9.145      1.050      1.073
REMARK INTER + INTRA:         -14.048
REMARK INTER:                 -13.282
REMARK INTRA:                  -0.765
REMARK UNBOUND:                -0.893
REMARK  Name = 
REMARK  8 active torsions:
REMARK  status: ('A' for Active; 'I' for Inactive)
REMARK    1  A    between atoms: C_2  and  C_3
REMARK    2  A    between atoms: C_2  and  C_22
REMARK    3  A    between atoms: C_3  and  O_4
REMARK    4  A    between atoms: O_4  and  C_5
REMARK    5  A    between atoms: C_8  and  C_9
REMARK    6  A    between atoms: C_9  and  N_10
REMARK    7  A    between atoms: C_11  and  C_13
REMARK    8  A    between atoms: C_16  and  O_17
REMARK                            x       y       z     vdW  Elec       q    Type
REMARK                         _______ _______ _______ _____ _____    ______ ____
ROOT
ATOM      1  C   UNL     1      46.661   5.092  13.502  0.00  0.00    +0.000 A 
ATOM      2  C   UNL     1      45.465   4.376  13.574  0.00  0.00    +0.000 A 
ATOM      3  C   UNL     1      44.569   4.391  12.494  0.00  0.00    +0.000 A 
ATOM      4  C   UNL     1      44.862   5.126  11.338  0.00  0.00    +0.000 A 
ATOM      5  C   UNL     1      46.032   5.894  11.309  0.00  0.00    +0.000 A 
ATOM      6  C   UNL     1      46.917   5.880  12.388  0.00  0.00    +0.000 A 
ENDROOT
BRANCH   1   7
ATOM      7  O   UNL     1      47.521   4.962  14.562  0.00  0.00    +0.000 OA
BRANCH   7   8
ATOM      8  C   UNL     1      47.566   3.651  15.131  0.00  0.00    +0.000 C 
BRANCH   8  10
ATOM      9  O   UNL     1      46.563   3.262  17.292  0.00  0.00    +0.000 OA
ATOM     10  C   UNL     1      47.540   3.659  16.658  0.00  0.00    +0.000 C 
BRANCH  10  11
ATOM     11  C   UNL     1      48.723   4.191  17.354  0.00  0.00    +0.000 A 
ATOM     12  C   UNL     1      48.762   5.448  17.939  0.00  0.00    +0.000 A 
ATOM     13  S   UNL     1      50.239   5.771  18.737  0.00  0.00    +0.000 S 
ATOM     14  C   UNL     1      50.869   4.250  18.310  0.00  0.00    +0.000 A 
ATOM     15  N   UNL     1      52.125   3.882  18.688  0.00  0.00    +0.000 NA
ATOM     16  C   UNL     1      52.467   2.699  18.299  0.00  0.00    +0.000 A 
ATOM     17  N   UNL     1      51.674   1.857  17.562  0.00  0.00    +0.000 N 
ATOM     18  C   UNL     1      50.435   2.218  17.081  0.00  0.00    +0.000 A 
ATOM     19  O   UNL     1      49.854   1.515  16.260  0.00  0.00    +0.000 OA
ATOM     20  C   UNL     1      49.977   3.511  17.556  0.00  0.00    +0.000 A 
ATOM     21  H   UNL     1      52.025   0.967  17.237  0.00  0.00    +0.000 HD
ENDBRANCH  10  11
ENDBRANCH   8  10
ENDBRANCH   7   8
ENDBRANCH   1   7
BRANCH   4  22
ATOM     22  C   UNL     1      43.954   5.124  10.134  0.00  0.00    +0.000 C 
BRANCH  22  23
ATOM     23  N   UNL     1      44.545   4.422   9.016  0.00  0.00    +0.000 N 
ATOM     24  C   UNL     1      44.629   3.046   9.007  0.00  0.00    +0.000 C 
ATOM     25  O   UNL     1      44.219   2.354   9.933  0.00  0.00    +0.000 OA
ATOM     26  H   UNL     1      44.685   4.933   8.155  0.00  0.00    +0.000 HD
BRANCH  24  27
ATOM     27  C   UNL     1      45.294   2.463   7.751  0.00  0.00    +0.000 C 
ATOM     28  C   UNL     1      45.889   3.585   6.883  0.00  0.00    +0.000 C 
ATOM     29  C   UNL     1      46.687   3.049   5.691  0.00  0.00    +0.000 C 
ATOM     30  C   UNL     1      47.766   2.055   6.115  0.00  0.00    +0.000 C 
ATOM     31  C   UNL     1      47.168   0.919   6.940  0.00  0.00    +0.000 C 
ATOM     32  C   UNL     1      46.364   1.425   8.138  0.00  0.00    +0.000 C 
BRANCH  30  33
ATOM     33  O   UNL     1      48.789   2.727   6.846  0.00  0.00    +0.000 OA
ATOM     34  H   UNL     1      48.381   3.292   7.522  0.00  0.00    +0.000 HD
ENDBRANCH  30  33
ENDBRANCH  24  27
ENDBRANCH  22  23
ENDBRANCH   4  22
TORSDOF 8
ENDMDL
MODEL 3
REMARK VINA RESULT:    -8.693      1.248      2.085
REMARK INTER + INTRA:         -13.397
REMARK INTER:                 -12.566
REMARK INTRA:                  -0.832
REMARK UNBOUND:                -0.893
REMARK  Name = 
REMARK  8 active torsions:
REMARK  status: ('A' for Active; 'I' for Inactive)
REMARK    1  A    between atoms: C_2  and  C_3
REMARK    2  A    between atoms: C_2  and  C_22
REMARK    3  A    between atoms: C_3  and  O_4
REMARK    4  A    between atoms: O_4  and  C_5
REMARK    5  A    between atoms: C_8  and  C_9
REMARK    6  A    between atoms: C_9  and  N_10
REMARK    7  A    between atoms: C_11  and  C_13
REMARK    8  A    between atoms: C_16  and  O_17
REMARK                            x       y       z     vdW  Elec       q    Type
REMARK                         _______ _______ _______ _____ _____    ______ ____
ROOT
ATOM      1  C   UNL     1      47.108   4.867  13.988  0.00  0.00    +0.000 A 
ATOM      2  C   UNL     1      46.741   6.058  13.360  0.00  0.00    +0.000 A 
ATOM      3  C   UNL     1      45.780   6.049  12.338  0.00  0.00    +0.000 A 
ATOM      4  C   UNL     1      45.182   4.847  11.936  0.00  0.00    +0.000 A 
ATOM      5  C   UNL     1      45.611   3.653  12.528  0.00  0.00    +0.000 A 
ATOM      6  C   UNL     1      46.572   3.667  13.539  0.00  0.00    +0.000 A 
ENDROOT
BRANCH   1   7
ATOM      7  O   UNL     1      47.993   4.968  15.032  0.00  0.00    +0.000 OA
BRANCH   7   8
ATOM      8  C   UNL     1      47.386   4.943  16.326  0.00  0.00    +0.000 C 
BRANCH   8  10
ATOM      9  O   UNL     1      46.618   2.941  17.434  0.00  0.00    +0.000 OA
ATOM     10  C   UNL     1      47.575   3.613  17.052  0.00  0.00    +0.000 C 
BRANCH  10  11
ATOM     11  C   UNL     1      48.956   3.171  17.310  0.00  0.00    +0.000 A 
ATOM     12  C   UNL     1      49.499   2.013  16.774  0.00  0.00    +0.000 A 
ATOM     13  S   UNL     1      51.143   1.789  17.187  0.00  0.00    +0.000 S 
ATOM     14  C   UNL     1      51.167   3.221  18.105  0.00  0.00    +0.000 A 
ATOM     15  N   UNL     1      52.300   3.623  18.746  0.00  0.00    +0.000 NA
ATOM     16  C   UNL     1      52.172   4.730  19.398  0.00  0.00    +0.000 A 
ATOM     17  N   UNL     1      51.018   5.466  19.473  0.00  0.00    +0.000 N 
ATOM     18  C   UNL     1      49.826   5.056  18.919  0.00  0.00    +0.000 A 
ATOM     19  O   UNL     1      48.780   5.640  19.185  0.00  0.00    +0.000 OA
ATOM     20  C   UNL     1      49.938   3.854  18.113  0.00  0.00    +0.000 A 
ATOM     21  H   UNL     1      50.967   6.293  20.052  0.00  0.00    +0.000 HD
ENDBRANCH  10  11
ENDBRANCH   8  10
ENDBRANCH   7   8
ENDBRANCH   1   7
BRANCH   4  22
ATOM     22  C   UNL     1      44.104   4.800  10.882  0.00  0.00    +0.000 C 
BRANCH  22  23
ATOM     23  N   UNL     1      44.452   3.909   9.797  0.00  0.00    +0.000 N 
ATOM     24  C   UNL     1      45.350   4.292   8.825  0.00  0.00    +0.000 C 
ATOM     25  O   UNL     1      45.891   5.392   8.823  0.00  0.00    +0.000 OA
ATOM     26  H   UNL     1      44.204   2.932   9.887  0.00  0.00    +0.000 HD
BRANCH  24  27
ATOM     27  C   UNL     1      45.597   3.231   7.741  0.00  0.00    +0.000 C 
ATOM     28  C   UNL     1      46.413   3.826   6.580  0.00  0.00    +0.000 C 
ATOM     29  C   UNL     1      46.809   2.775   5.539  0.00  0.00    +0.000 C 
ATOM     30  C   UNL     1      47.534   1.585   6.162  0.00  0.00    +0.000 C 
ATOM     31  C   UNL     1      46.705   0.969   7.286  0.00  0.00    +0.000 C 
ATOM     32  C   UNL     1      46.293   1.996   8.342  0.00  0.00    +0.000 C 
BRANCH  30  33
ATOM     33  O   UNL     1      48.815   1.988   6.642  0.00  0.00    +0.000 OA
ATOM     34  H   UNL     1      49.161   1.307   7.241  0.00  0.00    +0.000 HD
ENDBRANCH  30  33
ENDBRANCH  24  27
ENDBRANCH  22  23
ENDBRANCH   4  22
TORSDOF 8
ENDMDL
MODEL 4
REMARK VINA RESULT:    -8.462      1.874      2.692
REMARK INTER + INTRA:         -13.065
REMARK INTER:                 -12.196
REMARK INTRA:                  -0.869
REMARK UNBOUND:                -0.893
REMARK  Name = 
REMARK  8 active torsions:
REMARK  status: ('A' for Active; 'I' for Inactive)
REMARK    1  A    between atoms: C_2  and  C_3
REMARK    2  A    between atoms: C_2  and  C_22
REMARK    3  A    between atoms: C_3  and  O_4
REMARK    4  A    between atoms: O_4  and  C_5
REMARK    5  A    between atoms: C_8  and  C_9
REMARK    6  A    between atoms: C_9  and  N_10
REMARK    7  A    between atoms: C_11  and  C_13
REMARK    8  A    between atoms: C_16  and  O_17
REMARK                            x       y       z     vdW  Elec       q    Type
REMARK                         _______ _______ _______ _____ _____    ______ ____
ROOT
ATOM      1  C   UNL     1      47.174   5.027  13.852  0.00  0.00    +0.000 A 
ATOM      2  C   UNL     1      46.126   4.191  13.463  0.00  0.00    +0.000 A 
ATOM      3  C   UNL     1      45.425   4.447  12.274  0.00  0.00    +0.000 A 
ATOM      4  C   UNL     1      45.766   5.542  11.470  0.00  0.00    +0.000 A 
ATOM      5  C   UNL     1      46.773   6.409  11.909  0.00  0.00    +0.000 A 
ATOM      6  C   UNL     1      47.463   6.155  13.095  0.00  0.00    +0.000 A 
ENDROOT
BRANCH   1   7
ATOM      7  O   UNL     1      47.863   4.665  14.982  0.00  0.00    +0.000 OA
BRANCH   7   8
ATOM      8  C   UNL     1      47.583   3.343  15.448  0.00  0.00    +0.000 C 
BRANCH   8  10
ATOM      9  O   UNL     1      46.686   2.672  17.586  0.00  0.00    +0.000 OA
ATOM     10  C   UNL     1      47.594   3.229  16.971  0.00  0.00    +0.000 C 
BRANCH  10  11
ATOM     11  C   UNL     1      48.724   3.843  17.689  0.00  0.00    +0.000 A 
ATOM     12  C   UNL     1      50.021   3.357  17.629  0.00  0.00    +0.000 A 
ATOM     13  S   UNL     1      51.137   4.310  18.505  0.00  0.00    +0.000 S 
ATOM     14  C   UNL     1      49.916   5.386  19.001  0.00  0.00    +0.000 A 
ATOM     15  N   UNL     1      50.205   6.455  19.795  0.00  0.00    +0.000 NA
ATOM     16  C   UNL     1      49.182   7.187  20.086  0.00  0.00    +0.000 A 
ATOM     17  N   UNL     1      47.900   6.945  19.664  0.00  0.00    +0.000 N 
ATOM     18  C   UNL     1      47.544   5.831  18.937  0.00  0.00    +0.000 A 
ATOM     19  O   UNL     1      46.363   5.552  18.759  0.00  0.00    +0.000 OA
ATOM     20  C   UNL     1      48.673   5.018  18.522  0.00  0.00    +0.000 A 
ATOM     21  H   UNL     1      47.134   7.523  19.978  0.00  0.00    +0.000 HD
ENDBRANCH  10  11
ENDBRANCH   8  10
ENDBRANCH   7   8
ENDBRANCH   1   7
BRANCH   4  22
ATOM     22  C   UNL     1      45.076   5.819  10.158  0.00  0.00    +0.000 C 
BRANCH  22  23
ATOM     23  N   UNL     1      45.482   4.886   9.129  0.00  0.00    +0.000 N 
ATOM     24  C   UNL     1      44.771   3.727   8.905  0.00  0.00    +0.000 C 
ATOM     25  O   UNL     1      43.777   3.425   9.556  0.00  0.00    +0.000 OA
ATOM     26  H   UNL     1      46.148   5.202   8.437  0.00  0.00    +0.000 HD
BRANCH  24  27
ATOM     27  C   UNL     1      45.343   2.843   7.786  0.00  0.00    +0.000 C 
ATOM     28  C   UNL     1      46.034   3.706   6.715  0.00  0.00    +0.000 C 
ATOM     29  C   UNL     1      46.744   2.867   5.650  0.00  0.00    +0.000 C 
ATOM     30  C   UNL     1      47.722   1.864   6.256  0.00  0.00    +0.000 C 
ATOM     31  C   UNL     1      47.026   0.980   7.288  0.00  0.00    +0.000 C 
ATOM     32  C   UNL     1      46.306   1.791   8.366  0.00  0.00    +0.000 C 
BRANCH  30  33
ATOM     33  O   UNL     1      48.826   2.549   6.842  0.00  0.00    +0.000 OA
ATOM     34  H   UNL     1      49.147   3.225   6.223  0.00  0.00    +0.000 HD
ENDBRANCH  30  33
ENDBRANCH  24  27
ENDBRANCH  22  23
ENDBRANCH   4  22
TORSDOF 8
ENDMDL
MODEL 5
REMARK VINA RESULT:    -8.442      2.196      2.838
REMARK INTER + INTRA:         -13.037
REMARK INTER:                 -12.033
REMARK INTRA:                  -1.004
REMARK UNBOUND:                -0.893
REMARK  Name = 
REMARK  8 active torsions:
REMARK  status: ('A' for Active; 'I' for Inactive)
REMARK    1  A    between atoms: C_2  and  C_3
REMARK    2  A    between atoms: C_2  and  C_22
REMARK    3  A    between atoms: C_3  and  O_4
REMARK    4  A    between atoms: O_4  and  C_5
REMARK    5  A    between atoms: C_8  and  C_9
REMARK    6  A    between atoms: C_9  and  N_10
REMARK    7  A    between atoms: C_11  and  C_13
REMARK    8  A    between atoms: C_16  and  O_17
REMARK                            x       y       z     vdW  Elec       q    Type
REMARK                         _______ _______ _______ _____ _____    ______ ____
ROOT
ATOM      1  C   UNL     1      47.098   5.424  13.563  0.00  0.00    +0.000 A 
ATOM      2  C   UNL     1      47.199   6.255  12.446  0.00  0.00    +0.000 A 
ATOM      3  C   UNL     1      46.279   6.136  11.393  0.00  0.00    +0.000 A 
ATOM      4  C   UNL     1      45.254   5.183  11.450  0.00  0.00    +0.000 A 
ATOM      5  C   UNL     1      45.208   4.311  12.544  0.00  0.00    +0.000 A 
ATOM      6  C   UNL     1      46.130   4.428  13.586  0.00  0.00    +0.000 A 
ENDROOT
BRANCH   1   7
ATOM      7  O   UNL     1      47.983   5.655  14.585  0.00  0.00    +0.000 OA
BRANCH   7   8
ATOM      8  C   UNL     1      48.775   6.834  14.427  0.00  0.00    +0.000 C 
BRANCH   8  10
ATOM      9  O   UNL     1      50.957   7.179  15.401  0.00  0.00    +0.000 OA
ATOM     10  C   UNL     1      49.745   7.065  15.584  0.00  0.00    +0.000 C 
BRANCH  10  11
ATOM     11  C   UNL     1      49.181   7.115  16.943  0.00  0.00    +0.000 A 
ATOM     12  C   UNL     1      48.567   8.239  17.473  0.00  0.00    +0.000 A 
ATOM     13  S   UNL     1      47.944   7.985  19.045  0.00  0.00    +0.000 S 
ATOM     14  C   UNL     1      48.492   6.375  19.065  0.00  0.00    +0.000 A 
ATOM     15  N   UNL     1      48.280   5.577  20.148  0.00  0.00    +0.000 NA
ATOM     16  C   UNL     1      48.745   4.379  20.019  0.00  0.00    +0.000 A 
ATOM     17  N   UNL     1      49.405   3.910  18.913  0.00  0.00    +0.000 N 
ATOM     18  C   UNL     1      49.722   4.703  17.832  0.00  0.00    +0.000 A 
ATOM     19  O   UNL     1      50.487   4.298  16.963  0.00  0.00    +0.000 OA
ATOM     20  C   UNL     1      49.154   6.037  17.900  0.00  0.00    +0.000 A 
ATOM     21  H   UNL     1      49.798   2.979  18.900  0.00  0.00    +0.000 HD
ENDBRANCH  10  11
ENDBRANCH   8  10
ENDBRANCH   7   8
ENDBRANCH   1   7
BRANCH   4  22
ATOM     22  C   UNL     1      44.212   5.060  10.367  0.00  0.00    +0.000 C 
BRANCH  22  23
ATOM     23  N   UNL     1      44.735   4.405   9.189  0.00  0.00    +0.000 N 
ATOM     24  C   UNL     1      44.765   3.030   9.096  0.00  0.00    +0.000 C 
ATOM     25  O   UNL     1      44.362   2.299   9.995  0.00  0.00    +0.000 OA
ATOM     26  H   UNL     1      44.865   4.961   8.354  0.00  0.00    +0.000 HD
BRANCH  24  27
ATOM     27  C   UNL     1      45.362   2.499   7.784  0.00  0.00    +0.000 C 
ATOM     28  C   UNL     1      45.979   3.647   6.966  0.00  0.00    +0.000 C 
ATOM     29  C   UNL     1      46.713   3.153   5.717  0.00  0.00    +0.000 C 
ATOM     30  C   UNL     1      47.759   2.089   6.040  0.00  0.00    +0.000 C 
ATOM     31  C   UNL     1      47.138   0.930   6.815  0.00  0.00    +0.000 C 
ATOM     32  C   UNL     1      46.396   1.393   8.069  0.00  0.00    +0.000 C 
BRANCH  30  33
ATOM     33  O   UNL     1      48.835   2.668   6.776  0.00  0.00    +0.000 OA
ATOM     34  H   UNL     1      49.662   2.214   6.544  0.00  0.00    +0.000 HD
ENDBRANCH  30  33
ENDBRANCH  24  27
ENDBRANCH  22  23
ENDBRANCH   4  22
TORSDOF 8
ENDMDL
MODEL 6
REMARK VINA RESULT:    -8.209      2.671      3.484
REMARK INTER + INTRA:         -12.702
REMARK INTER:                 -11.820
REMARK INTRA:                  -0.882
REMARK UNBOUND:                -0.893
REMARK  Name = 
REMARK  8 active torsions:
REMARK  status: ('A' for Active; 'I' for Inactive)
REMARK    1  A    between atoms: C_2  and  C_3
REMARK    2  A    between atoms: C_2  and  C_22
REMARK    3  A    between atoms: C_3  and  O_4
REMARK    4  A    between atoms: O_4  and  C_5
REMARK    5  A    between atoms: C_8  and  C_9
REMARK    6  A    between atoms: C_9  and  N_10
REMARK    7  A    between atoms: C_11  and  C_13
REMARK    8  A    between atoms: C_16  and  O_17
REMARK                            x       y       z     vdW  Elec       q    Type
REMARK                         _______ _______ _______ _____ _____    ______ ____
ROOT
ATOM      1  C   UNL     1      46.783   4.742  13.747  0.00  0.00    +0.000 A 
ATOM      2  C   UNL     1      46.452   3.465  13.291  0.00  0.00    +0.000 A 
ATOM      3  C   UNL     1      45.461   3.301  12.311  0.00  0.00    +0.000 A 
ATOM      4  C   UNL     1      44.793   4.414  11.783  0.00  0.00    +0.000 A 
ATOM      5  C   UNL     1      45.088   5.681  12.299  0.00  0.00    +0.000 A 
ATOM      6  C   UNL     1      46.070   5.838  13.279  0.00  0.00    +0.000 A 
ENDROOT
BRANCH   1   7
ATOM      7  O   UNL     1      47.817   4.827  14.644  0.00  0.00    +0.000 OA
BRANCH   7   8
ATOM      8  C   UNL     1      47.450   4.552  15.998  0.00  0.00    +0.000 C 
BRANCH   8  10
ATOM      9  O   UNL     1      49.691   4.352  16.871  0.00  0.00    +0.000 OA
ATOM     10  C   UNL     1      48.570   4.843  16.994  0.00  0.00    +0.000 C 
BRANCH  10  11
ATOM     11  C   UNL     1      48.251   5.715  18.138  0.00  0.00    +0.000 A 
ATOM     12  C   UNL     1      47.844   5.234  19.373  0.00  0.00    +0.000 A 
ATOM     13  S   UNL     1      47.612   6.470  20.531  0.00  0.00    +0.000 S 
ATOM     14  C   UNL     1      48.034   7.679  19.411  0.00  0.00    +0.000 A 
ATOM     15  N   UNL     1      48.037   8.993  19.767  0.00  0.00    +0.000 NA
ATOM     16  C   UNL     1      48.384   9.796  18.817  0.00  0.00    +0.000 A 
ATOM     17  N   UNL     1      48.719   9.407  17.546  0.00  0.00    +0.000 N 
ATOM     18  C   UNL     1      48.643   8.102  17.113  0.00  0.00    +0.000 A 
ATOM     19  O   UNL     1      48.753   7.831  15.922  0.00  0.00    +0.000 OA
ATOM     20  C   UNL     1      48.331   7.153  18.167  0.00  0.00    +0.000 A 
ATOM     21  H   UNL     1      48.921  10.091  16.831  0.00  0.00    +0.000 HD
ENDBRANCH  10  11
ENDBRANCH   8  10
ENDBRANCH   7   8
ENDBRANCH   1   7
BRANCH   4  22
ATOM     22  C   UNL     1      43.764   4.287  10.689  0.00  0.00    +0.000 C 
BRANCH  22  23
ATOM     23  N   UNL     1      44.257   3.509   9.573  0.00  0.00    +0.000 N 
ATOM     24  C   UNL     1      45.180   4.035   8.696  0.00  0.00    +0.000 C 
ATOM     25  O   UNL     1      45.623   5.173   8.807  0.00  0.00    +0.000 OA
ATOM     26  H   UNL     1      44.090   2.511   9.579  0.00  0.00    +0.000 HD
BRANCH  24  27
ATOM     27  C   UNL     1      45.589   3.081   7.563  0.00  0.00    +0.000 C 
ATOM     28  C   UNL     1      46.371   3.837   6.475  0.00  0.00    +0.000 C 
ATOM     29  C   UNL     1      46.924   2.907   5.392  0.00  0.00    +0.000 C 
ATOM     30  C   UNL     1      47.761   1.771   5.975  0.00  0.00    +0.000 C 
ATOM     31  C   UNL     1      46.970   0.994   7.024  0.00  0.00    +0.000 C 
ATOM     32  C   UNL     1      46.403   1.898   8.119  0.00  0.00    +0.000 C 
BRANCH  30  33
ATOM     33  O   UNL     1      48.967   2.287   6.532  0.00  0.00    +0.000 OA
ATOM     34  H   UNL     1      49.363   2.918   5.909  0.00  0.00    +0.000 HD
ENDBRANCH  30  33
ENDBRANCH  24  27
ENDBRANCH  22  23
ENDBRANCH   4  22
TORSDOF 8
ENDMDL
MODEL 7
REMARK VINA RESULT:    -8.062      3.076      3.907
REMARK INTER + INTRA:         -12.490
REMARK INTER:                 -11.511
REMARK INTRA:                  -0.979
REMARK UNBOUND:                -0.893
REMARK  Name = 
REMARK  8 active torsions:
REMARK  status: ('A' for Active; 'I' for Inactive)
REMARK    1  A    between atoms: C_2  and  C_3
REMARK    2  A    between atoms: C_2  and  C_22
REMARK    3  A    between atoms: C_3  and  O_4
REMARK    4  A    between atoms: O_4  and  C_5
REMARK    5  A    between atoms: C_8  and  C_9
REMARK    6  A    between atoms: C_9  and  N_10
REMARK    7  A    between atoms: C_11  and  C_13
REMARK    8  A    between atoms: C_16  and  O_17
REMARK                            x       y       z     vdW  Elec       q    Type
REMARK                         _______ _______ _______ _____ _____    ______ ____
ROOT
ATOM      1  C   UNL     1      47.242   5.735  13.265  0.00  0.00    +0.000 A 
ATOM      2  C   UNL     1      46.244   4.805  13.558  0.00  0.00    +0.000 A 
ATOM      3  C   UNL     1      45.204   4.575  12.645  0.00  0.00    +0.000 A 
ATOM      4  C   UNL     1      45.156   5.276  11.433  0.00  0.00    +0.000 A 
ATOM      5  C   UNL     1      46.126   6.254  11.183  0.00  0.00    +0.000 A 
ATOM      6  C   UNL     1      47.154   6.484  12.098  0.00  0.00    +0.000 A 
ENDROOT
BRANCH   1   7
ATOM      7  O   UNL     1      48.268   5.845  14.169  0.00  0.00    +0.000 OA
BRANCH   7   8
ATOM      8  C   UNL     1      47.926   5.458  15.502  0.00  0.00    +0.000 C 
BRANCH   8  10
ATOM      9  O   UNL     1      50.168   5.936  16.256  0.00  0.00    +0.000 OA
ATOM     10  C   UNL     1      48.972   5.872  16.535  0.00  0.00    +0.000 C 
BRANCH  10  11
ATOM     11  C   UNL     1      48.500   6.164  17.898  0.00  0.00    +0.000 A 
ATOM     12  C   UNL     1      48.350   5.195  18.878  0.00  0.00    +0.000 A 
ATOM     13  S   UNL     1      47.855   5.833  20.385  0.00  0.00    +0.000 S 
ATOM     14  C   UNL     1      47.812   7.417  19.765  0.00  0.00    +0.000 A 
ATOM     15  N   UNL     1      47.455   8.468  20.554  0.00  0.00    +0.000 NA
ATOM     16  C   UNL     1      47.474   9.610  19.951  0.00  0.00    +0.000 A 
ATOM     17  N   UNL     1      47.808   9.795  18.634  0.00  0.00    +0.000 N 
ATOM     18  C   UNL     1      48.088   8.756  17.775  0.00  0.00    +0.000 A 
ATOM     19  O   UNL     1      48.180   8.951  16.567  0.00  0.00    +0.000 OA
ATOM     20  C   UNL     1      48.153   7.460  18.426  0.00  0.00    +0.000 A 
ATOM     21  H   UNL     1      47.744  10.708  18.207  0.00  0.00    +0.000 HD
ENDBRANCH  10  11
ENDBRANCH   8  10
ENDBRANCH   7   8
ENDBRANCH   1   7
BRANCH   4  22
ATOM     22  C   UNL     1      44.088   5.018  10.399  0.00  0.00    +0.000 C 
BRANCH  22  23
ATOM     23  N   UNL     1      44.630   4.394   9.211  0.00  0.00    +0.000 N 
ATOM     24  C   UNL     1      44.773   3.025   9.133  0.00  0.00    +0.000 C 
ATOM     25  O   UNL     1      44.460   2.275  10.051  0.00  0.00    +0.000 OA
ATOM     26  H   UNL     1      44.687   4.948   8.368  0.00  0.00    +0.000 HD
BRANCH  24  27
ATOM     27  C   UNL     1      45.373   2.529   7.809  0.00  0.00    +0.000 C 
ATOM     28  C   UNL     1      46.002   3.696   7.028  0.00  0.00    +0.000 C 
ATOM     29  C   UNL     1      46.739   3.234   5.769  0.00  0.00    +0.000 C 
ATOM     30  C   UNL     1      47.777   2.154   6.065  0.00  0.00    +0.000 C 
ATOM     31  C   UNL     1      47.143   0.977   6.802  0.00  0.00    +0.000 C 
ATOM     32  C   UNL     1      46.398   1.408   8.066  0.00  0.00    +0.000 C 
BRANCH  30  33
ATOM     33  O   UNL     1      48.852   2.704   6.823  0.00  0.00    +0.000 OA
ATOM     34  H   UNL     1      49.676   2.248   6.586  0.00  0.00    +0.000 HD
ENDBRANCH  30  33
ENDBRANCH  24  27
ENDBRANCH  22  23
ENDBRANCH   4  22
TORSDOF 8
ENDMDL
MODEL 8
REMARK VINA RESULT:    -7.543      3.135      4.039
REMARK INTER + INTRA:         -11.744
REMARK INTER:                 -10.693
REMARK INTRA:                  -1.051
REMARK UNBOUND:                -0.893
REMARK  Name = 
REMARK  8 active torsions:
REMARK  status: ('A' for Active; 'I' for Inactive)
REMARK    1  A    between atoms: C_2  and  C_3
REMARK    2  A    between atoms: C_2  and  C_22
REMARK    3  A    between atoms: C_3  and  O_4
REMARK    4  A    between atoms: O_4  and  C_5
REMARK    5  A    between atoms: C_8  and  C_9
REMARK    6  A    between atoms: C_9  and  N_10
REMARK    7  A    between atoms: C_11  and  C_13
REMARK    8  A    between atoms: C_16  and  O_17
REMARK                            x       y       z     vdW  Elec       q    Type
REMARK                         _______ _______ _______ _____ _____    ______ ____
ROOT
ATOM      1  C   UNL     1      47.087   5.057  13.919  0.00  0.00    +0.000 A 
ATOM      2  C   UNL     1      46.238   5.856  13.151  0.00  0.00    +0.000 A 
ATOM      3  C   UNL     1      45.283   5.264  12.310  0.00  0.00    +0.000 A 
ATOM      4  C   UNL     1      45.174   3.870  12.230  0.00  0.00    +0.000 A 
ATOM      5  C   UNL     1      46.078   3.083  12.953  0.00  0.00    +0.000 A 
ATOM      6  C   UNL     1      47.031   3.676  13.783  0.00  0.00    +0.000 A 
ENDROOT
BRANCH   1   7
ATOM      7  O   UNL     1      47.937   5.709  14.776  0.00  0.00    +0.000 OA
BRANCH   7   8
ATOM      8  C   UNL     1      48.034   5.119  16.075  0.00  0.00    +0.000 C 
BRANCH   8  10
ATOM      9  O   UNL     1      49.797   4.845  17.700  0.00  0.00    +0.000 OA
ATOM     10  C   UNL     1      49.280   5.557  16.841  0.00  0.00    +0.000 C 
BRANCH  10  11
ATOM     11  C   UNL     1      49.829   6.890  16.538  0.00  0.00    +0.000 A 
ATOM     12  C   UNL     1      50.937   7.092  15.730  0.00  0.00    +0.000 A 
ATOM     13  S   UNL     1      51.305   8.745  15.497  0.00  0.00    +0.000 S 
ATOM     14  C   UNL     1      50.006   9.233  16.482  0.00  0.00    +0.000 A 
ATOM     15  N   UNL     1      49.755  10.553  16.707  0.00  0.00    +0.000 NA
ATOM     16  C   UNL     1      48.735  10.773  17.467  0.00  0.00    +0.000 A 
ATOM     17  N   UNL     1      47.951   9.798  18.027  0.00  0.00    +0.000 N 
ATOM     18  C   UNL     1      48.218   8.452  17.903  0.00  0.00    +0.000 A 
ATOM     19  O   UNL     1      47.615   7.630  18.586  0.00  0.00    +0.000 OA
ATOM     20  C   UNL     1      49.311   8.154  16.995  0.00  0.00    +0.000 A 
ATOM     21  H   UNL     1      47.204  10.036  18.664  0.00  0.00    +0.000 HD
ENDBRANCH  10  11
ENDBRANCH   8  10
ENDBRANCH   7   8
ENDBRANCH   1   7
BRANCH   4  22
ATOM     22  C   UNL     1      44.125   3.194  11.383  0.00  0.00    +0.000 C 
BRANCH  22  23
ATOM     23  N   UNL     1      44.691   2.619  10.183  0.00  0.00    +0.000 N 
ATOM     24  C   UNL     1      44.658   3.301   8.986  0.00  0.00    +0.000 C 
ATOM     25  O   UNL     1      44.150   4.412   8.874  0.00  0.00    +0.000 OA
ATOM     26  H   UNL     1      45.305   1.822  10.282  0.00  0.00    +0.000 HD
BRANCH  24  27
ATOM     27  C   UNL     1      45.293   2.544   7.810  0.00  0.00    +0.000 C 
ATOM     28  C   UNL     1      45.889   3.531   6.790  0.00  0.00    +0.000 C 
ATOM     29  C   UNL     1      46.658   2.827   5.669  0.00  0.00    +0.000 C 
ATOM     30  C   UNL     1      47.730   1.882   6.204  0.00  0.00    +0.000 C 
ATOM     31  C   UNL     1      47.130   0.876   7.183  0.00  0.00    +0.000 C 
ATOM     32  C   UNL     1      46.354   1.550   8.315  0.00  0.00    +0.000 C 
BRANCH  30  33
ATOM     33  O   UNL     1      48.775   2.628   6.824  0.00  0.00    +0.000 OA
ATOM     34  H   UNL     1      49.578   2.082   6.863  0.00  0.00    +0.000 HD
ENDBRANCH  30  33
ENDBRANCH  24  27
ENDBRANCH  22  23
ENDBRANCH   4  22
TORSDOF 8
ENDMDL
MODEL 9
REMARK VINA RESULT:    -7.132      3.464      4.848
REMARK INTER + INTRA:         -11.152
REMARK INTER:                  -9.556
REMARK INTRA:                  -1.597
REMARK UNBOUND:                -0.893
REMARK  Name = 
REMARK  8 active torsions:
REMARK  status: ('A' for Active; 'I' for Inactive)
REMARK    1  A    between atoms: C_2  and  C_3
REMARK    2  A    between atoms: C_2  and  C_22
REMARK    3  A    between atoms: C_3  and  O_4
REMARK    4  A    between atoms: O_4  and  C_5
REMARK    5  A    between atoms: C_8  and  C_9
REMARK    6  A    between atoms: C_9  and  N_10
REMARK    7  A    between atoms: C_11  and  C_13
REMARK    8  A    between atoms: C_16  and  O_17
REMARK                            x       y       z     vdW  Elec       q    Type
REMARK                         _______ _______ _______ _____ _____    ______ ____
ROOT
ATOM      1  C   UNL     1      49.156   7.925  16.400  0.00  0.00    +0.000 A 
ATOM      2  C   UNL     1      48.287   8.900  15.907  0.00  0.00    +0.000 A 
ATOM      3  C   UNL     1      47.924   8.900  14.551  0.00  0.00    +0.000 A 
ATOM      4  C   UNL     1      48.432   7.928  13.680  0.00  0.00    +0.000 A 
ATOM      5  C   UNL     1      49.356   7.000  14.175  0.00  0.00    +0.000 A 
ATOM      6  C   UNL     1      49.718   7.007  15.522  0.00  0.00    +0.000 A 
ENDROOT
BRANCH   1   7
ATOM      7  O   UNL     1      49.397   7.941  17.750  0.00  0.00    +0.000 OA
BRANCH   7   8
ATOM      8  C   UNL     1      48.232   7.776  18.562  0.00  0.00    +0.000 C 
BRANCH   8  10
ATOM      9  O   UNL     1      48.163   6.361  20.516  0.00  0.00    +0.000 OA
ATOM     10  C   UNL     1      48.192   6.434  19.288  0.00  0.00    +0.000 C 
BRANCH  10  11
ATOM     11  C   UNL     1      48.223   5.215  18.463  0.00  0.00    +0.000 A 
ATOM     12  C   UNL     1      47.129   4.749  17.750  0.00  0.00    +0.000 A 
ATOM     13  S   UNL     1      47.475   3.353  16.826  0.00  0.00    +0.000 S 
ATOM     14  C   UNL     1      49.088   3.325  17.366  0.00  0.00    +0.000 A 
ATOM     15  N   UNL     1      49.950   2.357  16.946  0.00  0.00    +0.000 NA
ATOM     16  C   UNL     1      51.141   2.465  17.433  0.00  0.00    +0.000 A 
ATOM     17  N   UNL     1      51.545   3.444  18.305  0.00  0.00    +0.000 N 
ATOM     18  C   UNL     1      50.689   4.387  18.827  0.00  0.00    +0.000 A 
ATOM     19  O   UNL     1      51.045   5.109  19.753  0.00  0.00    +0.000 OA
ATOM     20  C   UNL     1      49.357   4.352  18.251  0.00  0.00    +0.000 A 
ATOM     21  H   UNL     1      52.476   3.436  18.697  0.00  0.00    +0.000 HD
ENDBRANCH  10  11
ENDBRANCH   8  10
ENDBRANCH   7   8
ENDBRANCH   1   7
BRANCH   4  22
ATOM     22  C   UNL     1      48.025   7.858  12.230  0.00  0.00    +0.000 C 
BRANCH  22  23
ATOM     23  N   UNL     1      46.965   6.897  12.014  0.00  0.00    +0.000 N 
ATOM     24  C   UNL     1      45.657   7.305  11.869  0.00  0.00    +0.000 C 
ATOM     25  O   UNL     1      45.324   8.485  11.918  0.00  0.00    +0.000 OA
ATOM     26  H   UNL     1      47.224   5.957  11.748  0.00  0.00    +0.000 HD
BRANCH  24  27
ATOM     27  C   UNL     1      44.658   6.158  11.659  0.00  0.00    +0.000 C 
ATOM     28  C   UNL     1      45.241   5.098  10.708  0.00  0.00    +0.000 C 
ATOM     29  C   UNL     1      44.344   3.865  10.577  0.00  0.00    +0.000 C 
ATOM     30  C   UNL     1      43.999   3.251  11.931  0.00  0.00    +0.000 C 
ATOM     31  C   UNL     1      43.380   4.292  12.860  0.00  0.00    +0.000 C 
ATOM     32  C   UNL     1      44.254   5.538  13.010  0.00  0.00    +0.000 C 
BRANCH  30  33
ATOM     33  O   UNL     1      45.164   2.678  12.520  0.00  0.00    +0.000 OA
ATOM     34  H   UNL     1      45.225   2.960  13.448  0.00  0.00    +0.000 HD
ENDBRANCH  30  33
ENDBRANCH  24  27
ENDBRANCH  22  23
ENDBRANCH   4  22
TORSDOF 8
ENDMDL
