MODEL 1
REMARK VINA RESULT:    -9.149      0.000      0.000
REMARK INTER + INTRA:         -12.467
REMARK INTER:                 -11.823
REMARK INTRA:                  -0.644
REMARK UNBOUND:                -0.644
REMARK  Name = 
REMARK  5 active torsions:
REMARK  status: ('A' for Active; 'I' for Inactive)
REMARK    1  A    between atoms: C_2  and  C_4
REMARK    2  A    between atoms: C_8  and  C_9
REMARK    3  A    between atoms: C_9  and  N_10
REMARK    4  A    between atoms: N_10  and  C_11
REMARK    5  A    between atoms: C_15  and  C_16
REMARK                            x       y       z     vdW  Elec       q    Type
REMARK                         _______ _______ _______ _____ _____    ______ ____
ROOT
ATOM      1  N   UNL     1      43.376   6.532  10.861  0.00  0.00    +0.000 N 
ATOM      2  H   UNL     1      43.460   7.095  10.019  0.00  0.00    +0.000 HD
ENDROOT
BRANCH   1   3
ATOM      3  C   UNL     1      43.558   5.167  10.635  0.00  0.00    +0.000 A 
ATOM      4  C   UNL     1      42.973   4.230  11.489  0.00  0.00    +0.000 A 
ATOM      5  N   UNL     1      43.140   2.892  11.413  0.00  0.00    +0.000 NA
ATOM      6  C   UNL     1      43.980   2.448  10.451  0.00  0.00    +0.000 A 
ATOM      7  C   UNL     1      44.661   3.258   9.541  0.00  0.00    +0.000 A 
ATOM      8  C   UNL     1      44.427   4.643   9.668  0.00  0.00    +0.000 A 
BRANCH   7   9
ATOM      9  C   UNL     1      45.586   2.696   8.528  0.00  0.00    +0.000 A 
ATOM     10  C   UNL     1      46.228   3.520   7.577  0.00  0.00    +0.000 A 
ATOM     11  C   UNL     1      47.087   2.995   6.604  0.00  0.00    +0.000 A 
ATOM     12  C   UNL     1      47.341   1.630   6.567  0.00  0.00    +0.000 A 
ATOM     13  C   UNL     1      46.729   0.804   7.499  0.00  0.00    +0.000 A 
ATOM     14  F   UNL     1      46.974  -0.513   7.473  0.00  0.00    +0.000 F 
ATOM     15  C   UNL     1      45.861   1.319   8.462  0.00  0.00    +0.000 A 
ENDBRANCH   7   9
ENDBRANCH   1   3
BRANCH   1  16
ATOM     16  C   UNL     1      43.929   7.194  12.036  0.00  0.00    +0.000 C 
BRANCH  16  21
ATOM     17  C   UNL     1      46.851   5.354  13.644  0.00  0.00    +0.000 A 
ATOM     18  C   UNL     1      47.901   6.001  13.010  0.00  0.00    +0.000 A 
ATOM     19  N   UNL     1      47.730   6.958  12.067  0.00  0.00    +0.000 NA
ATOM     20  C   UNL     1      46.454   7.293  11.758  0.00  0.00    +0.000 A 
ATOM     21  C   UNL     1      45.325   6.721  12.344  0.00  0.00    +0.000 A 
ATOM     22  C   UNL     1      45.545   5.732  13.315  0.00  0.00    +0.000 A 
BRANCH  17  24
ATOM     23  N   UNL     1      47.159   4.713  15.969  0.00  0.00    +0.000 N 
ATOM     24  C   UNL     1      47.162   4.324  14.657  0.00  0.00    +0.000 C 
ATOM     25  O   UNL     1      47.380   3.161  14.344  0.00  0.00    +0.000 OA
ATOM     26  H   UNL     1      47.255   3.968  16.649  0.00  0.00    +0.000 HD
ATOM     27  H   UNL     1      46.718   5.567  16.278  0.00  0.00    +0.000 HD
ENDBRANCH  17  24
ENDBRANCH  16  21
ENDBRANCH   1  16
TORSDOF 5
ENDMDL
MODEL 2
REMARK VINA RESULT:    -8.838      3.643      6.862
REMARK INTER + INTRA:         -12.065
REMARK INTER:                 -11.483
REMARK INTRA:                  -0.582
REMARK UNBOUND:                -0.644
REMARK  Name = 
REMARK  5 active torsions:
REMARK  status: ('A' for Active; 'I' for Inactive)
REMARK    1  A    between atoms: C_2  and  C_4
REMARK    2  A    between atoms: C_8  and  C_9
REMARK    3  A    between atoms: C_9  and  N_10
REMARK    4  A    between atoms: N_10  and  C_11
REMARK    5  A    between atoms: C_15  and  C_16
REMARK                            x       y       z     vdW  Elec       q    Type
REMARK                         _______ _______ _______ _____ _____    ______ ____
ROOT
ATOM      1  N   UNL     1      44.759   2.783  11.837  0.00  0.00    +0.000 N 
ATOM      2  H   UNL     1      45.109   1.829  11.825  0.00  0.00    +0.000 HD
ENDROOT
BRANCH   1   3
ATOM      3  C   UNL     1      45.648   3.693  12.412  0.00  0.00    +0.000 A 
ATOM      4  C   UNL     1      46.500   3.286  13.440  0.00  0.00    +0.000 A 
ATOM      5  N   UNL     1      47.344   4.092  14.120  0.00  0.00    +0.000 NA
ATOM      6  C   UNL     1      47.315   5.403  13.789  0.00  0.00    +0.000 A 
ATOM      7  C   UNL     1      46.500   5.967  12.806  0.00  0.00    +0.000 A 
ATOM      8  C   UNL     1      45.656   5.065  12.127  0.00  0.00    +0.000 A 
BRANCH   7   9
ATOM      9  C   UNL     1      46.508   7.421  12.518  0.00  0.00    +0.000 A 
ATOM     10  C   UNL     1      47.711   8.116  12.263  0.00  0.00    +0.000 A 
ATOM     11  C   UNL     1      47.729   9.494  12.009  0.00  0.00    +0.000 A 
ATOM     12  C   UNL     1      46.539  10.211  11.988  0.00  0.00    +0.000 A 
ATOM     13  C   UNL     1      45.346   9.545  12.226  0.00  0.00    +0.000 A 
ATOM     14  F   UNL     1      44.194  10.229  12.202  0.00  0.00    +0.000 F 
ATOM     15  C   UNL     1      45.322   8.176  12.493  0.00  0.00    +0.000 A 
ENDBRANCH   7   9
ENDBRANCH   1   3
BRANCH   1  16
ATOM     16  C   UNL     1      43.991   3.114  10.642  0.00  0.00    +0.000 C 
BRANCH  16  21
ATOM     17  C   UNL     1      46.392   2.141   7.850  0.00  0.00    +0.000 A 
ATOM     18  C   UNL     1      46.585   3.387   7.275  0.00  0.00    +0.000 A 
ATOM     19  N   UNL     1      45.958   4.511   7.696  0.00  0.00    +0.000 NA
ATOM     20  C   UNL     1      45.116   4.384   8.751  0.00  0.00    +0.000 A 
ATOM     21  C   UNL     1      44.861   3.187   9.416  0.00  0.00    +0.000 A 
ATOM     22  C   UNL     1      45.528   2.044   8.947  0.00  0.00    +0.000 A 
BRANCH  17  24
ATOM     23  N   UNL     1      46.766  -0.259   7.739  0.00  0.00    +0.000 N 
ATOM     24  C   UNL     1      47.132   0.985   7.302  0.00  0.00    +0.000 C 
ATOM     25  O   UNL     1      48.014   1.127   6.466  0.00  0.00    +0.000 OA
ATOM     26  H   UNL     1      47.203  -1.038   7.261  0.00  0.00    +0.000 HD
ATOM     27  H   UNL     1      45.883  -0.433   8.196  0.00  0.00    +0.000 HD
ENDBRANCH  17  24
ENDBRANCH  16  21
ENDBRANCH   1  16
TORSDOF 5
ENDMDL
MODEL 3
REMARK VINA RESULT:    -8.506      2.028      2.736
REMARK INTER + INTRA:         -11.636
REMARK INTER:                 -10.833
REMARK INTRA:                  -0.803
REMARK UNBOUND:                -0.644
REMARK  Name = 
REMARK  5 active torsions:
REMARK  status: ('A' for Active; 'I' for Inactive)
REMARK    1  A    between atoms: C_2  and  C_4
REMARK    2  A    between atoms: C_8  and  C_9
REMARK    3  A    between atoms: C_9  and  N_10
REMARK    4  A    between atoms: N_10  and  C_11
REMARK    5  A    between atoms: C_15  and  C_16
REMARK                            x       y       z     vdW  Elec       q    Type
REMARK                         _______ _______ _______ _____ _____    ______ ____
ROOT
ATOM      1  N   UNL     1      44.383   6.780  11.196  0.00  0.00    +0.000 N 
ATOM      2  H   UNL     1      44.810   7.367  10.484  0.00  0.00    +0.000 HD
ENDROOT
BRANCH   1   3
ATOM      3  C   UNL     1      44.233   5.450  10.800  0.00  0.00    +0.000 A 
ATOM      4  C   UNL     1      43.383   4.599  11.510  0.00  0.00    +0.000 A 
ATOM      5  N   UNL     1      43.216   3.281  11.266  0.00  0.00    +0.000 NA
ATOM      6  C   UNL     1      43.974   2.755  10.278  0.00  0.00    +0.000 A 
ATOM      7  C   UNL     1      44.889   3.467   9.500  0.00  0.00    +0.000 A 
ATOM      8  C   UNL     1      44.999   4.840   9.798  0.00  0.00    +0.000 A 
BRANCH   7   9
ATOM      9  C   UNL     1      45.703   2.812   8.448  0.00  0.00    +0.000 A 
ATOM     10  C   UNL     1      46.255   3.548   7.377  0.00  0.00    +0.000 A 
ATOM     11  C   UNL     1      47.008   2.934   6.368  0.00  0.00    +0.000 A 
ATOM     12  C   UNL     1      47.244   1.566   6.415  0.00  0.00    +0.000 A 
ATOM     13  C   UNL     1      46.721   0.826   7.465  0.00  0.00    +0.000 A 
ATOM     14  F   UNL     1      46.950  -0.493   7.519  0.00  0.00    +0.000 F 
ATOM     15  C   UNL     1      45.958   1.429   8.465  0.00  0.00    +0.000 A 
ENDBRANCH   7   9
ENDBRANCH   1   3
BRANCH   1  16
ATOM     16  C   UNL     1      44.809   7.134  12.545  0.00  0.00    +0.000 C 
BRANCH  16  21
ATOM     17  C   UNL     1      48.520   7.917  12.192  0.00  0.00    +0.000 A 
ATOM     18  C   UNL     1      49.046   6.816  12.850  0.00  0.00    +0.000 A 
ATOM     19  N   UNL     1      48.286   5.863  13.439  0.00  0.00    +0.000 NA
ATOM     20  C   UNL     1      46.941   6.010  13.350  0.00  0.00    +0.000 A 
ATOM     21  C   UNL     1      46.305   7.065  12.699  0.00  0.00    +0.000 A 
ATOM     22  C   UNL     1      47.128   8.033  12.104  0.00  0.00    +0.000 A 
BRANCH  17  24
ATOM     23  N   UNL     1      50.678   8.431  11.198  0.00  0.00    +0.000 N 
ATOM     24  C   UNL     1      49.451   8.893  11.588  0.00  0.00    +0.000 C 
ATOM     25  O   UNL     1      49.129  10.060  11.409  0.00  0.00    +0.000 OA
ATOM     26  H   UNL     1      51.251   9.087  10.680  0.00  0.00    +0.000 HD
ATOM     27  H   UNL     1      50.870   7.448  11.070  0.00  0.00    +0.000 HD
ENDBRANCH  17  24
ENDBRANCH  16  21
ENDBRANCH   1  16
TORSDOF 5
ENDMDL
MODEL 4
REMARK VINA RESULT:    -8.346      3.582      6.716
REMARK INTER + INTRA:         -11.429
REMARK INTER:                 -10.943
REMARK INTRA:                  -0.486
REMARK UNBOUND:                -0.644
REMARK  Name = 
REMARK  5 active torsions:
REMARK  status: ('A' for Active; 'I' for Inactive)
REMARK    1  A    between atoms: C_2  and  C_4
REMARK    2  A    between atoms: C_8  and  C_9
REMARK    3  A    between atoms: C_9  and  N_10
REMARK    4  A    between atoms: N_10  and  C_11
REMARK    5  A    between atoms: C_15  and  C_16
REMARK                            x       y       z     vdW  Elec       q    Type
REMARK                         _______ _______ _______ _____ _____    ______ ____
ROOT
ATOM      1  N   UNL     1      43.927   4.348  11.328  0.00  0.00    +0.000 N 
ATOM      2  H   UNL     1      43.061   4.494  11.839  0.00  0.00    +0.000 HD
ENDROOT
BRANCH   1   3
ATOM      3  C   UNL     1      45.055   4.814  12.005  0.00  0.00    +0.000 A 
ATOM      4  C   UNL     1      45.510   4.154  13.148  0.00  0.00    +0.000 A 
ATOM      5  N   UNL     1      46.540   4.555  13.924  0.00  0.00    +0.000 NA
ATOM      6  C   UNL     1      47.139   5.715  13.569  0.00  0.00    +0.000 A 
ATOM      7  C   UNL     1      46.783   6.502  12.474  0.00  0.00    +0.000 A 
ATOM      8  C   UNL     1      45.710   6.014  11.700  0.00  0.00    +0.000 A 
BRANCH   7   9
ATOM      9  C   UNL     1      47.474   7.777  12.164  0.00  0.00    +0.000 A 
ATOM     10  C   UNL     1      46.807   9.018  12.252  0.00  0.00    +0.000 A 
ATOM     11  C   UNL     1      47.447  10.225  11.942  0.00  0.00    +0.000 A 
ATOM     12  C   UNL     1      48.780  10.222  11.549  0.00  0.00    +0.000 A 
ATOM     13  C   UNL     1      49.456   9.013  11.466  0.00  0.00    +0.000 A 
ATOM     14  F   UNL     1      50.743   9.004  11.094  0.00  0.00    +0.000 F 
ATOM     15  C   UNL     1      48.821   7.808  11.761  0.00  0.00    +0.000 A 
ENDBRANCH   7   9
ENDBRANCH   1   3
BRANCH   1  16
ATOM     16  C   UNL     1      43.940   3.087  10.594  0.00  0.00    +0.000 C 
BRANCH  16  21
ATOM     17  C   UNL     1      46.369   2.109   7.828  0.00  0.00    +0.000 A 
ATOM     18  C   UNL     1      46.556   3.352   7.243  0.00  0.00    +0.000 A 
ATOM     19  N   UNL     1      45.918   4.474   7.650  0.00  0.00    +0.000 NA
ATOM     20  C   UNL     1      45.069   4.350   8.700  0.00  0.00    +0.000 A 
ATOM     21  C   UNL     1      44.819   3.156   9.373  0.00  0.00    +0.000 A 
ATOM     22  C   UNL     1      45.498   2.015   8.919  0.00  0.00    +0.000 A 
BRANCH  17  24
ATOM     23  N   UNL     1      46.747  -0.290   7.722  0.00  0.00    +0.000 N 
ATOM     24  C   UNL     1      47.121   0.954   7.294  0.00  0.00    +0.000 C 
ATOM     25  O   UNL     1      48.020   1.097   6.477  0.00  0.00    +0.000 OA
ATOM     26  H   UNL     1      47.194  -1.069   7.254  0.00  0.00    +0.000 HD
ATOM     27  H   UNL     1      45.854  -0.465   8.161  0.00  0.00    +0.000 HD
ENDBRANCH  17  24
ENDBRANCH  16  21
ENDBRANCH   1  16
TORSDOF 5
ENDMDL
MODEL 5
REMARK VINA RESULT:    -8.306      3.644      6.654
REMARK INTER + INTRA:         -11.377
REMARK INTER:                 -10.788
REMARK INTRA:                  -0.589
REMARK UNBOUND:                -0.644
REMARK  Name = 
REMARK  5 active torsions:
REMARK  status: ('A' for Active; 'I' for Inactive)
REMARK    1  A    between atoms: C_2  and  C_4
REMARK    2  A    between atoms: C_8  and  C_9
REMARK    3  A    between atoms: C_9  and  N_10
REMARK    4  A    between atoms: N_10  and  C_11
REMARK    5  A    between atoms: C_15  and  C_16
REMARK                            x       y       z     vdW  Elec       q    Type
REMARK                         _______ _______ _______ _____ _____    ______ ____
ROOT
ATOM      1  N   UNL     1      44.734   2.837  11.875  0.00  0.00    +0.000 N 
ATOM      2  H   UNL     1      45.536   2.234  12.038  0.00  0.00    +0.000 HD
ENDROOT
BRANCH   1   3
ATOM      3  C   UNL     1      44.933   4.152  12.298  0.00  0.00    +0.000 A 
ATOM      4  C   UNL     1      43.840   4.993  12.511  0.00  0.00    +0.000 A 
ATOM      5  N   UNL     1      43.913   6.299  12.846  0.00  0.00    +0.000 NA
ATOM      6  C   UNL     1      45.156   6.824  12.937  0.00  0.00    +0.000 A 
ATOM      7  C   UNL     1      46.344   6.122  12.725  0.00  0.00    +0.000 A 
ATOM      8  C   UNL     1      46.192   4.760  12.395  0.00  0.00    +0.000 A 
BRANCH   7   9
ATOM      9  C   UNL     1      47.671   6.776  12.820  0.00  0.00    +0.000 A 
ATOM     10  C   UNL     1      48.238   7.456  11.721  0.00  0.00    +0.000 A 
ATOM     11  C   UNL     1      49.500   8.059  11.796  0.00  0.00    +0.000 A 
ATOM     12  C   UNL     1      50.223   8.010  12.982  0.00  0.00    +0.000 A 
ATOM     13  C   UNL     1      49.678   7.355  14.077  0.00  0.00    +0.000 A 
ATOM     14  F   UNL     1      50.367   7.310  15.225  0.00  0.00    +0.000 F 
ATOM     15  C   UNL     1      48.429   6.742  14.005  0.00  0.00    +0.000 A 
ENDBRANCH   7   9
ENDBRANCH   1   3
BRANCH   1  16
ATOM     16  C   UNL     1      44.047   2.530  10.626  0.00  0.00    +0.000 C 
BRANCH  16  21
ATOM     17  C   UNL     1      46.472   2.346   7.695  0.00  0.00    +0.000 A 
ATOM     18  C   UNL     1      46.491   3.685   7.334  0.00  0.00    +0.000 A 
ATOM     19  N   UNL     1      45.741   4.634   7.942  0.00  0.00    +0.000 NA
ATOM     20  C   UNL     1      44.951   4.229   8.966  0.00  0.00    +0.000 A 
ATOM     21  C   UNL     1      44.867   2.915   9.423  0.00  0.00    +0.000 A 
ATOM     22  C   UNL     1      45.658   1.960   8.765  0.00  0.00    +0.000 A 
BRANCH  17  24
ATOM     23  N   UNL     1      48.394   1.926   6.266  0.00  0.00    +0.000 N 
ATOM     24  C   UNL     1      47.335   1.401   6.956  0.00  0.00    +0.000 C 
ATOM     25  O   UNL     1      47.136   0.195   6.984  0.00  0.00    +0.000 OA
ATOM     26  H   UNL     1      49.038   1.253   5.869  0.00  0.00    +0.000 HD
ATOM     27  H   UNL     1      48.749   2.855   6.445  0.00  0.00    +0.000 HD
ENDBRANCH  17  24
ENDBRANCH  16  21
ENDBRANCH   1  16
TORSDOF 5
ENDMDL
MODEL 6
REMARK VINA RESULT:    -8.265      1.266      1.597
REMARK INTER + INTRA:         -11.325
REMARK INTER:                 -10.660
REMARK INTRA:                  -0.665
REMARK UNBOUND:                -0.644
REMARK  Name = 
REMARK  5 active torsions:
REMARK  status: ('A' for Active; 'I' for Inactive)
REMARK    1  A    between atoms: C_2  and  C_4
REMARK    2  A    between atoms: C_8  and  C_9
REMARK    3  A    between atoms: C_9  and  N_10
REMARK    4  A    between atoms: N_10  and  C_11
REMARK    5  A    between atoms: C_15  and  C_16
REMARK                            x       y       z     vdW  Elec       q    Type
REMARK                         _______ _______ _______ _____ _____    ______ ____
ROOT
ATOM      1  N   UNL     1      45.112   6.716  12.155  0.00  0.00    +0.000 N 
ATOM      2  H   UNL     1      44.478   7.509  12.121  0.00  0.00    +0.000 HD
ENDROOT
BRANCH   1   3
ATOM      3  C   UNL     1      44.647   5.603  11.452  0.00  0.00    +0.000 A 
ATOM      4  C   UNL     1      43.496   4.937  11.877  0.00  0.00    +0.000 A 
ATOM      5  N   UNL     1      42.996   3.811  11.323  0.00  0.00    +0.000 NA
ATOM      6  C   UNL     1      43.707   3.280  10.302  0.00  0.00    +0.000 A 
ATOM      7  C   UNL     1      44.890   3.810   9.784  0.00  0.00    +0.000 A 
ATOM      8  C   UNL     1      45.344   4.995  10.400  0.00  0.00    +0.000 A 
BRANCH   7   9
ATOM      9  C   UNL     1      45.626   3.155   8.677  0.00  0.00    +0.000 A 
ATOM     10  C   UNL     1      46.117   3.894   7.579  0.00  0.00    +0.000 A 
ATOM     11  C   UNL     1      46.797   3.279   6.519  0.00  0.00    +0.000 A 
ATOM     12  C   UNL     1      47.018   1.907   6.540  0.00  0.00    +0.000 A 
ATOM     13  C   UNL     1      46.553   1.165   7.616  0.00  0.00    +0.000 A 
ATOM     14  F   UNL     1      46.768  -0.157   7.644  0.00  0.00    +0.000 F 
ATOM     15  C   UNL     1      45.864   1.769   8.667  0.00  0.00    +0.000 A 
ENDBRANCH   7   9
ENDBRANCH   1   3
BRANCH   1  16
ATOM     16  C   UNL     1      46.514   7.116  12.114  0.00  0.00    +0.000 C 
BRANCH  16  21
ATOM     17  C   UNL     1      47.684   5.061  15.100  0.00  0.00    +0.000 A 
ATOM     18  C   UNL     1      48.497   6.000  15.715  0.00  0.00    +0.000 A 
ATOM     19  N   UNL     1      48.730   7.234  15.209  0.00  0.00    +0.000 NA
ATOM     20  C   UNL     1      48.108   7.547  14.046  0.00  0.00    +0.000 A 
ATOM     21  C   UNL     1      47.257   6.689  13.352  0.00  0.00    +0.000 A 
ATOM     22  C   UNL     1      47.044   5.418  13.908  0.00  0.00    +0.000 A 
BRANCH  17  24
ATOM     23  N   UNL     1      46.853   3.720  16.949  0.00  0.00    +0.000 N 
ATOM     24  C   UNL     1      47.507   3.744  15.748  0.00  0.00    +0.000 C 
ATOM     25  O   UNL     1      47.896   2.712  15.219  0.00  0.00    +0.000 OA
ATOM     26  H   UNL     1      46.638   2.799  17.314  0.00  0.00    +0.000 HD
ATOM     27  H   UNL     1      46.283   4.489  17.271  0.00  0.00    +0.000 HD
ENDBRANCH  17  24
ENDBRANCH  16  21
ENDBRANCH   1  16
TORSDOF 5
ENDMDL
MODEL 7
REMARK VINA RESULT:    -8.192      1.412      1.536
REMARK INTER + INTRA:         -11.230
REMARK INTER:                 -10.505
REMARK INTRA:                  -0.725
REMARK UNBOUND:                -0.644
REMARK  Name = 
REMARK  5 active torsions:
REMARK  status: ('A' for Active; 'I' for Inactive)
REMARK    1  A    between atoms: C_2  and  C_4
REMARK    2  A    between atoms: C_8  and  C_9
REMARK    3  A    between atoms: C_9  and  N_10
REMARK    4  A    between atoms: N_10  and  C_11
REMARK    5  A    between atoms: C_15  and  C_16
REMARK                            x       y       z     vdW  Elec       q    Type
REMARK                         _______ _______ _______ _____ _____    ______ ____
ROOT
ATOM      1  N   UNL     1      43.650   6.403  11.764  0.00  0.00    +0.000 N 
ATOM      2  H   UNL     1      42.720   6.672  12.074  0.00  0.00    +0.000 HD
ENDROOT
BRANCH   1   3
ATOM      3  C   UNL     1      43.713   5.099  11.268  0.00  0.00    +0.000 A 
ATOM      4  C   UNL     1      43.056   4.063  11.934  0.00  0.00    +0.000 A 
ATOM      5  N   UNL     1      43.108   2.758  11.592  0.00  0.00    +0.000 NA
ATOM      6  C   UNL     1      43.899   2.447  10.540  0.00  0.00    +0.000 A 
ATOM      7  C   UNL     1      44.640   3.363   9.792  0.00  0.00    +0.000 A 
ATOM      8  C   UNL     1      44.526   4.709  10.196  0.00  0.00    +0.000 A 
BRANCH   7   9
ATOM      9  C   UNL     1      45.506   2.940   8.665  0.00  0.00    +0.000 A 
ATOM     10  C   UNL     1      45.943   3.858   7.685  0.00  0.00    +0.000 A 
ATOM     11  C   UNL     1      46.744   3.463   6.607  0.00  0.00    +0.000 A 
ATOM     12  C   UNL     1      47.144   2.138   6.489  0.00  0.00    +0.000 A 
ATOM     13  C   UNL     1      46.734   1.222   7.447  0.00  0.00    +0.000 A 
ATOM     14  F   UNL     1      47.121  -0.056   7.342  0.00  0.00    +0.000 F 
ATOM     15  C   UNL     1      45.925   1.606   8.516  0.00  0.00    +0.000 A 
ENDBRANCH   7   9
ENDBRANCH   1   3
BRANCH   1  16
ATOM     16  C   UNL     1      44.369   7.500  11.127  0.00  0.00    +0.000 C 
BRANCH  16  21
ATOM     17  C   UNL     1      47.343   7.416  13.505  0.00  0.00    +0.000 A 
ATOM     18  C   UNL     1      47.655   8.767  13.523  0.00  0.00    +0.000 A 
ATOM     19  N   UNL     1      47.001   9.696  12.786  0.00  0.00    +0.000 NA
ATOM     20  C   UNL     1      45.980   9.256  12.011  0.00  0.00    +0.000 A 
ATOM     21  C   UNL     1      45.570   7.926  11.929  0.00  0.00    +0.000 A 
ATOM     22  C   UNL     1      46.275   6.994  12.706  0.00  0.00    +0.000 A 
BRANCH  17  24
ATOM     23  N   UNL     1      47.439   5.555  15.066  0.00  0.00    +0.000 N 
ATOM     24  C   UNL     1      48.130   6.496  14.352  0.00  0.00    +0.000 C 
ATOM     25  O   UNL     1      49.352   6.547  14.391  0.00  0.00    +0.000 OA
ATOM     26  H   UNL     1      48.004   4.863  15.543  0.00  0.00    +0.000 HD
ATOM     27  H   UNL     1      46.486   5.304  14.848  0.00  0.00    +0.000 HD
ENDBRANCH  17  24
ENDBRANCH  16  21
ENDBRANCH   1  16
TORSDOF 5
ENDMDL
MODEL 8
REMARK VINA RESULT:    -8.072      3.678      7.367
REMARK INTER + INTRA:         -11.076
REMARK INTER:                 -10.785
REMARK INTRA:                  -0.291
REMARK UNBOUND:                -0.644
REMARK  Name = 
REMARK  5 active torsions:
REMARK  status: ('A' for Active; 'I' for Inactive)
REMARK    1  A    between atoms: C_2  and  C_4
REMARK    2  A    between atoms: C_8  and  C_9
REMARK    3  A    between atoms: C_9  and  N_10
REMARK    4  A    between atoms: N_10  and  C_11
REMARK    5  A    between atoms: C_15  and  C_16
REMARK                            x       y       z     vdW  Elec       q    Type
REMARK                         _______ _______ _______ _____ _____    ______ ____
ROOT
ATOM      1  N   UNL     1      44.913   2.864  11.921  0.00  0.00    +0.000 N 
ATOM      2  H   UNL     1      45.548   2.076  11.821  0.00  0.00    +0.000 HD
ENDROOT
BRANCH   1   3
ATOM      3  C   UNL     1      45.492   3.967  12.550  0.00  0.00    +0.000 A 
ATOM      4  C   UNL     1      45.502   5.211  11.916  0.00  0.00    +0.000 A 
ATOM      5  N   UNL     1      46.096   6.326  12.392  0.00  0.00    +0.000 NA
ATOM      6  C   UNL     1      46.767   6.194  13.559  0.00  0.00    +0.000 A 
ATOM      7  C   UNL     1      46.874   5.013  14.297  0.00  0.00    +0.000 A 
ATOM      8  C   UNL     1      46.215   3.894  13.748  0.00  0.00    +0.000 A 
BRANCH   7   9
ATOM      9  C   UNL     1      47.649   4.942  15.558  0.00  0.00    +0.000 A 
ATOM     10  C   UNL     1      48.591   5.936  15.903  0.00  0.00    +0.000 A 
ATOM     11  C   UNL     1      49.342   5.866  17.083  0.00  0.00    +0.000 A 
ATOM     12  C   UNL     1      49.156   4.804  17.960  0.00  0.00    +0.000 A 
ATOM     13  C   UNL     1      48.228   3.823  17.646  0.00  0.00    +0.000 A 
ATOM     14  F   UNL     1      48.040   2.800  18.491  0.00  0.00    +0.000 F 
ATOM     15  C   UNL     1      47.487   3.880  16.466  0.00  0.00    +0.000 A 
ENDBRANCH   7   9
ENDBRANCH   1   3
BRANCH   1  16
ATOM     16  C   UNL     1      44.022   3.015  10.776  0.00  0.00    +0.000 C 
BRANCH  16  21
ATOM     17  C   UNL     1      46.288   2.044   7.872  0.00  0.00    +0.000 A 
ATOM     18  C   UNL     1      46.298   3.248   7.183  0.00  0.00    +0.000 A 
ATOM     19  N   UNL     1      45.589   4.336   7.566  0.00  0.00    +0.000 NA
ATOM     20  C   UNL     1      44.852   4.219   8.697  0.00  0.00    +0.000 A 
ATOM     21  C   UNL     1      44.781   3.066   9.476  0.00  0.00    +0.000 A 
ATOM     22  C   UNL     1      45.528   1.960   9.044  0.00  0.00    +0.000 A 
BRANCH  17  24
ATOM     23  N   UNL     1      46.702  -0.343   7.677  0.00  0.00    +0.000 N 
ATOM     24  C   UNL     1      47.102   0.925   7.355  0.00  0.00    +0.000 C 
ATOM     25  O   UNL     1      48.076   1.118   6.640  0.00  0.00    +0.000 OA
ATOM     26  H   UNL     1      47.202  -1.093   7.214  0.00  0.00    +0.000 HD
ATOM     27  H   UNL     1      45.772  -0.547   8.015  0.00  0.00    +0.000 HD
ENDBRANCH  17  24
ENDBRANCH  16  21
ENDBRANCH   1  16
TORSDOF 5
ENDMDL
MODEL 9
REMARK VINA RESULT:    -7.816      2.481      3.392
REMARK INTER + INTRA:         -10.745
REMARK INTER:                 -10.046
REMARK INTRA:                  -0.698
REMARK UNBOUND:                -0.644
REMARK  Name = 
REMARK  5 active torsions:
REMARK  status: ('A' for Active; 'I' for Inactive)
REMARK    1  A    between atoms: C_2  and  C_4
REMARK    2  A    between atoms: C_8  and  C_9
REMARK    3  A    between atoms: C_9  and  N_10
REMARK    4  A    between atoms: N_10  and  C_11
REMARK    5  A    between atoms: C_15  and  C_16
REMARK                            x       y       z     vdW  Elec       q    Type
REMARK                         _______ _______ _______ _____ _____    ______ ____
ROOT
ATOM      1  N   UNL     1      45.039   5.186  13.242  0.00  0.00    +0.000 N 
ATOM      2  H   UNL     1      44.335   5.874  13.498  0.00  0.00    +0.000 HD
ENDROOT
BRANCH   1   3
ATOM      3  C   UNL     1      44.605   4.284  12.269  0.00  0.00    +0.000 A 
ATOM      4  C   UNL     1      43.533   3.430  12.535  0.00  0.00    +0.000 A 
ATOM      5  N   UNL     1      43.075   2.470  11.702  0.00  0.00    +0.000 NA
ATOM      6  C   UNL     1      43.751   2.312  10.542  0.00  0.00    +0.000 A 
ATOM      7  C   UNL     1      44.858   3.066  10.147  0.00  0.00    +0.000 A 
ATOM      8  C   UNL     1      45.270   4.061  11.057  0.00  0.00    +0.000 A 
BRANCH   7   9
ATOM      9  C   UNL     1      45.562   2.816   8.866  0.00  0.00    +0.000 A 
ATOM     10  C   UNL     1      45.846   3.865   7.964  0.00  0.00    +0.000 A 
ATOM     11  C   UNL     1      46.493   3.635   6.743  0.00  0.00    +0.000 A 
ATOM     12  C   UNL     1      46.889   2.347   6.400  0.00  0.00    +0.000 A 
ATOM     13  C   UNL     1      46.629   1.305   7.278  0.00  0.00    +0.000 A 
ATOM     14  F   UNL     1      47.013   0.063   6.955  0.00  0.00    +0.000 F 
ATOM     15  C   UNL     1      45.973   1.525   8.488  0.00  0.00    +0.000 A 
ENDBRANCH   7   9
ENDBRANCH   1   3
BRANCH   1  16
ATOM     16  C   UNL     1      46.387   5.743  13.222  0.00  0.00    +0.000 C 
BRANCH  16  21
ATOM     17  C   UNL     1      45.303   9.195  12.032  0.00  0.00    +0.000 A 
ATOM     18  C   UNL     1      46.463   9.903  12.307  0.00  0.00    +0.000 A 
ATOM     19  N   UNL     1      47.554   9.353  12.892  0.00  0.00    +0.000 NA
ATOM     20  C   UNL     1      47.486   8.035  13.198  0.00  0.00    +0.000 A 
ATOM     21  C   UNL     1      46.380   7.224  12.951  0.00  0.00    +0.000 A 
ATOM     22  C   UNL     1      45.269   7.832  12.346  0.00  0.00    +0.000 A 
BRANCH  17  24
ATOM     23  N   UNL     1      43.474  10.792  12.162  0.00  0.00    +0.000 N 
ATOM     24  C   UNL     1      44.176   9.905  11.392  0.00  0.00    +0.000 C 
ATOM     25  O   UNL     1      43.898   9.735  10.213  0.00  0.00    +0.000 OA
ATOM     26  H   UNL     1      42.787  11.352  11.672  0.00  0.00    +0.000 HD
ATOM     27  H   UNL     1      43.838  11.160  13.029  0.00  0.00    +0.000 HD
ENDBRANCH  17  24
ENDBRANCH  16  21
ENDBRANCH   1  16
TORSDOF 5
ENDMDL
