MODEL 1
REMARK VINA RESULT:    -9.280      0.000      0.000
REMARK INTER + INTRA:         -13.693
REMARK INTER:                 -12.535
REMARK INTRA:                  -1.158
REMARK UNBOUND:                -1.158
REMARK  Name = 
REMARK  6 active torsions:
REMARK  status: ('A' for Active; 'I' for Inactive)
REMARK    1  A    between atoms: C_2  and  C_4
REMARK    2  A    between atoms: C_7  and  N_8
REMARK    3  A    between atoms: N_8  and  C_9
REMARK    4  A    between atoms: C_9  and  C_10
REMARK    5  A    between atoms: C_10  and  C_13
REMARK    6  A    between atoms: C_18  and  C_19
REMARK                            x       y       z     vdW  Elec       q    Type
REMARK                         _______ _______ _______ _____ _____    ______ ____
ROOT
ATOM      1  C   UNL     1      43.315   5.219  12.400  0.00  0.00    +0.000 C 
ATOM      2  F   UNL     1      42.771   6.416  12.030  0.00  0.00    +0.000 F 
ATOM      3  F   UNL     1      42.574   4.805  13.475  0.00  0.00    +0.000 F 
ENDROOT
BRANCH   1   4
ATOM      4  C   UNL     1      44.787   5.357  12.751  0.00  0.00    +0.000 A 
ATOM      5  C   UNL     1      45.451   4.322  13.416  0.00  0.00    +0.000 A 
ATOM      6  C   UNL     1      46.794   4.463  13.735  0.00  0.00    +0.000 A 
ATOM      7  F   UNL     1      47.424   3.469  14.375  0.00  0.00    +0.000 F 
ATOM      8  C   UNL     1      47.500   5.613  13.397  0.00  0.00    +0.000 A 
ATOM      9  C   UNL     1      46.880   6.669  12.706  0.00  0.00    +0.000 A 
ATOM     10  C   UNL     1      45.510   6.517  12.398  0.00  0.00    +0.000 A 
BRANCH   9  11
ATOM     11  C   UNL     1      47.639   7.877  12.307  0.00  0.00    +0.000 A 
ATOM     12  C   UNL     1      48.990   7.832  11.932  0.00  0.00    +0.000 A 
ATOM     13  C   UNL     1      49.673   8.998  11.581  0.00  0.00    +0.000 A 
ATOM     14  C   UNL     1      48.986  10.197  11.602  0.00  0.00    +0.000 A 
ATOM     15  N   UNL     1      47.689  10.300  11.950  0.00  0.00    +0.000 NA
ATOM     16  C   UNL     1      47.058   9.149  12.291  0.00  0.00    +0.000 A 
ENDBRANCH   9  11
ENDBRANCH   1   4
BRANCH   1  17
ATOM     17  C   UNL     1      43.114   4.193  11.256  0.00  0.00    +0.000 C 
BRANCH  17  18
ATOM     18  N   UNL     1      43.646   4.658   9.960  0.00  0.00    +0.000 N 
ATOM     19  H   UNL     1      42.953   5.089   9.351  0.00  0.00    +0.000 HD
BRANCH  18  23
ATOM     20  C   UNL     1      46.433   2.351   7.788  0.00  0.00    +0.000 A 
ATOM     21  C   UNL     1      46.419   3.739   7.631  0.00  0.00    +0.000 A 
ATOM     22  C   UNL     1      45.514   4.518   8.365  0.00  0.00    +0.000 A 
ATOM     23  C   UNL     1      44.630   3.941   9.284  0.00  0.00    +0.000 A 
ATOM     24  C   UNL     1      44.649   2.546   9.417  0.00  0.00    +0.000 A 
ATOM     25  C   UNL     1      45.535   1.755   8.677  0.00  0.00    +0.000 A 
BRANCH  20  27
ATOM     26  N   UNL     1      48.484   2.064   6.506  0.00  0.00    +0.000 N 
ATOM     27  C   UNL     1      47.343   1.487   6.994  0.00  0.00    +0.000 C 
ATOM     28  O   UNL     1      47.106   0.301   6.807  0.00  0.00    +0.000 OA
ATOM     29  H   UNL     1      49.141   1.442   6.052  0.00  0.00    +0.000 HD
ATOM     30  H   UNL     1      48.831   2.949   6.846  0.00  0.00    +0.000 HD
ENDBRANCH  20  27
ENDBRANCH  18  23
ENDBRANCH  17  18
ENDBRANCH   1  17
TORSDOF 6
ENDMDL
MODEL 2
REMARK VINA RESULT:    -9.061      2.434      3.627
REMARK INTER + INTRA:         -13.398
REMARK INTER:                 -12.206
REMARK INTRA:                  -1.192
REMARK UNBOUND:                -1.158
REMARK  Name = 
REMARK  6 active torsions:
REMARK  status: ('A' for Active; 'I' for Inactive)
REMARK    1  A    between atoms: C_2  and  C_4
REMARK    2  A    between atoms: C_7  and  N_8
REMARK    3  A    between atoms: N_8  and  C_9
REMARK    4  A    between atoms: C_9  and  C_10
REMARK    5  A    between atoms: C_10  and  C_13
REMARK    6  A    between atoms: C_18  and  C_19
REMARK                            x       y       z     vdW  Elec       q    Type
REMARK                         _______ _______ _______ _____ _____    ______ ____
ROOT
ATOM      1  C   UNL     1      43.853   4.657  12.433  0.00  0.00    +0.000 C 
ATOM      2  F   UNL     1      42.901   5.165  13.271  0.00  0.00    +0.000 F 
ATOM      3  F   UNL     1      43.756   3.297  12.563  0.00  0.00    +0.000 F 
ENDROOT
BRANCH   1   4
ATOM      4  C   UNL     1      45.240   5.160  12.792  0.00  0.00    +0.000 A 
ATOM      5  C   UNL     1      45.923   6.021  11.927  0.00  0.00    +0.000 A 
ATOM      6  C   UNL     1      47.191   6.469  12.264  0.00  0.00    +0.000 A 
ATOM      7  F   UNL     1      47.840   7.290  11.429  0.00  0.00    +0.000 F 
ATOM      8  C   UNL     1      47.799   6.087  13.456  0.00  0.00    +0.000 A 
ATOM      9  C   UNL     1      47.141   5.243  14.368  0.00  0.00    +0.000 A 
ATOM     10  C   UNL     1      45.856   4.785  14.006  0.00  0.00    +0.000 A 
BRANCH   9  11
ATOM     11  C   UNL     1      47.768   4.867  15.657  0.00  0.00    +0.000 A 
ATOM     12  C   UNL     1      47.532   3.635  16.283  0.00  0.00    +0.000 A 
ATOM     13  C   UNL     1      48.129   3.328  17.507  0.00  0.00    +0.000 A 
ATOM     14  C   UNL     1      48.968   4.263  18.085  0.00  0.00    +0.000 A 
ATOM     15  N   UNL     1      49.235   5.461  17.528  0.00  0.00    +0.000 NA
ATOM     16  C   UNL     1      48.633   5.728  16.342  0.00  0.00    +0.000 A 
ENDBRANCH   9  11
ENDBRANCH   1   4
BRANCH   1  17
ATOM     17  C   UNL     1      43.493   5.027  10.971  0.00  0.00    +0.000 C 
BRANCH  17  18
ATOM     18  N   UNL     1      43.455   3.858  10.071  0.00  0.00    +0.000 N 
ATOM     19  H   UNL     1      42.936   3.062  10.436  0.00  0.00    +0.000 HD
BRANCH  18  23
ATOM     20  C   UNL     1      46.630   2.648   7.569  0.00  0.00    +0.000 A 
ATOM     21  C   UNL     1      46.284   3.999   7.636  0.00  0.00    +0.000 A 
ATOM     22  C   UNL     1      45.248   4.416   8.480  0.00  0.00    +0.000 A 
ATOM     23  C   UNL     1      44.556   3.510   9.293  0.00  0.00    +0.000 A 
ATOM     24  C   UNL     1      44.907   2.157   9.201  0.00  0.00    +0.000 A 
ATOM     25  C   UNL     1      45.929   1.724   8.348  0.00  0.00    +0.000 A 
BRANCH  20  27
ATOM     26  N   UNL     1      48.013   2.959   5.589  0.00  0.00    +0.000 N 
ATOM     27  C   UNL     1      47.690   2.160   6.651  0.00  0.00    +0.000 C 
ATOM     28  O   UNL     1      48.278   1.104   6.848  0.00  0.00    +0.000 OA
ATOM     29  H   UNL     1      48.802   2.661   5.028  0.00  0.00    +0.000 HD
ATOM     30  H   UNL     1      47.738   3.929   5.537  0.00  0.00    +0.000 HD
ENDBRANCH  20  27
ENDBRANCH  18  23
ENDBRANCH  17  18
ENDBRANCH   1  17
TORSDOF 6
ENDMDL
MODEL 3
REMARK VINA RESULT:    -8.767      1.947      2.492
REMARK INTER + INTRA:         -13.001
REMARK INTER:                 -12.252
REMARK INTRA:                  -0.748
REMARK UNBOUND:                -1.158
REMARK  Name = 
REMARK  6 active torsions:
REMARK  status: ('A' for Active; 'I' for Inactive)
REMARK    1  A    between atoms: C_2  and  C_4
REMARK    2  A    between atoms: C_7  and  N_8
REMARK    3  A    between atoms: N_8  and  C_9
REMARK    4  A    between atoms: C_9  and  C_10
REMARK    5  A    between atoms: C_10  and  C_13
REMARK    6  A    between atoms: C_18  and  C_19
REMARK                            x       y       z     vdW  Elec       q    Type
REMARK                         _______ _______ _______ _____ _____    ______ ____
ROOT
ATOM      1  C   UNL     1      43.957   4.146  12.520  0.00  0.00    +0.000 C 
ATOM      2  F   UNL     1      43.119   4.285  13.590  0.00  0.00    +0.000 F 
ATOM      3  F   UNL     1      44.622   2.969  12.737  0.00  0.00    +0.000 F 
ENDROOT
BRANCH   1   4
ATOM      4  C   UNL     1      44.914   5.320  12.403  0.00  0.00    +0.000 A 
ATOM      5  C   UNL     1      46.282   5.137  12.628  0.00  0.00    +0.000 A 
ATOM      6  C   UNL     1      47.145   6.218  12.522  0.00  0.00    +0.000 A 
ATOM      7  F   UNL     1      48.454   6.037  12.742  0.00  0.00    +0.000 F 
ATOM      8  C   UNL     1      46.678   7.485  12.187  0.00  0.00    +0.000 A 
ATOM      9  C   UNL     1      45.314   7.711  11.929  0.00  0.00    +0.000 A 
ATOM     10  C   UNL     1      44.447   6.605  12.051  0.00  0.00    +0.000 A 
BRANCH   9  11
ATOM     11  C   UNL     1      44.820   9.050  11.531  0.00  0.00    +0.000 A 
ATOM     12  C   UNL     1      45.534  10.229  11.791  0.00  0.00    +0.000 A 
ATOM     13  C   UNL     1      45.022  11.473  11.415  0.00  0.00    +0.000 A 
ATOM     14  C   UNL     1      43.799  11.516  10.771  0.00  0.00    +0.000 A 
ATOM     15  N   UNL     1      43.071  10.417  10.492  0.00  0.00    +0.000 NA
ATOM     16  C   UNL     1      43.595   9.227  10.877  0.00  0.00    +0.000 A 
ENDBRANCH   9  11
ENDBRANCH   1   4
BRANCH   1  17
ATOM     17  C   UNL     1      43.114   3.990  11.230  0.00  0.00    +0.000 C 
BRANCH  17  18
ATOM     18  N   UNL     1      43.738   4.619  10.050  0.00  0.00    +0.000 N 
ATOM     19  H   UNL     1      43.100   5.171   9.480  0.00  0.00    +0.000 HD
BRANCH  18  23
ATOM     20  C   UNL     1      46.542   2.503   7.711  0.00  0.00    +0.000 A 
ATOM     21  C   UNL     1      46.498   3.897   7.637  0.00  0.00    +0.000 A 
ATOM     22  C   UNL     1      45.588   4.611   8.426  0.00  0.00    +0.000 A 
ATOM     23  C   UNL     1      44.727   3.964   9.321  0.00  0.00    +0.000 A 
ATOM     24  C   UNL     1      44.776   2.564   9.370  0.00  0.00    +0.000 A 
ATOM     25  C   UNL     1      45.668   1.836   8.574  0.00  0.00    +0.000 A 
BRANCH  20  27
ATOM     26  N   UNL     1      48.559   2.346   6.356  0.00  0.00    +0.000 N 
ATOM     27  C   UNL     1      47.459   1.706   6.856  0.00  0.00    +0.000 C 
ATOM     28  O   UNL     1      47.263   0.519   6.631  0.00  0.00    +0.000 OA
ATOM     29  H   UNL     1      49.225   1.768   5.858  0.00  0.00    +0.000 HD
ATOM     30  H   UNL     1      48.883   3.231   6.719  0.00  0.00    +0.000 HD
ENDBRANCH  20  27
ENDBRANCH  18  23
ENDBRANCH  17  18
ENDBRANCH   1  17
TORSDOF 6
ENDMDL
MODEL 4
REMARK VINA RESULT:    -8.748      2.728      3.878
REMARK INTER + INTRA:         -12.975
REMARK INTER:                 -11.907
REMARK INTRA:                  -1.068
REMARK UNBOUND:                -1.158
REMARK  Name = 
REMARK  6 active torsions:
REMARK  status: ('A' for Active; 'I' for Inactive)
REMARK    1  A    between atoms: C_2  and  C_4
REMARK    2  A    between atoms: C_7  and  N_8
REMARK    3  A    between atoms: N_8  and  C_9
REMARK    4  A    between atoms: C_9  and  C_10
REMARK    5  A    between atoms: C_10  and  C_13
REMARK    6  A    between atoms: C_18  and  C_19
REMARK                            x       y       z     vdW  Elec       q    Type
REMARK                         _______ _______ _______ _____ _____    ______ ____
ROOT
ATOM      1  C   UNL     1      44.121   4.745  12.527  0.00  0.00    +0.000 C 
ATOM      2  F   UNL     1      43.142   5.321  13.286  0.00  0.00    +0.000 F 
ATOM      3  F   UNL     1      43.975   3.396  12.718  0.00  0.00    +0.000 F 
ENDROOT
BRANCH   1   4
ATOM      4  C   UNL     1      45.502   5.225  12.937  0.00  0.00    +0.000 A 
ATOM      5  C   UNL     1      46.212   6.108  12.117  0.00  0.00    +0.000 A 
ATOM      6  C   UNL     1      47.474   6.536  12.501  0.00  0.00    +0.000 A 
ATOM      7  F   UNL     1      48.149   7.379  11.709  0.00  0.00    +0.000 F 
ATOM      8  C   UNL     1      48.049   6.111  13.694  0.00  0.00    +0.000 A 
ATOM      9  C   UNL     1      47.364   5.243  14.562  0.00  0.00    +0.000 A 
ATOM     10  C   UNL     1      46.085   4.807  14.153  0.00  0.00    +0.000 A 
BRANCH   9  11
ATOM     11  C   UNL     1      47.956   4.822  15.853  0.00  0.00    +0.000 A 
ATOM     12  C   UNL     1      48.815   5.645  16.596  0.00  0.00    +0.000 A 
ATOM     13  C   UNL     1      49.366   5.201  17.799  0.00  0.00    +0.000 A 
ATOM     14  C   UNL     1      49.039   3.936  18.248  0.00  0.00    +0.000 A 
ATOM     15  N   UNL     1      48.217   3.104  17.580  0.00  0.00    +0.000 NA
ATOM     16  C   UNL     1      47.704   3.564  16.412  0.00  0.00    +0.000 A 
ENDBRANCH   9  11
ENDBRANCH   1   4
BRANCH   1  17
ATOM     17  C   UNL     1      43.851   5.049  11.032  0.00  0.00    +0.000 C 
BRANCH  17  18
ATOM     18  N   UNL     1      43.601   3.836  10.229  0.00  0.00    +0.000 N 
ATOM     19  H   UNL     1      43.135   3.085  10.735  0.00  0.00    +0.000 HD
BRANCH  18  23
ATOM     20  C   UNL     1      46.572   2.649   7.478  0.00  0.00    +0.000 A 
ATOM     21  C   UNL     1      45.925   1.682   8.250  0.00  0.00    +0.000 A 
ATOM     22  C   UNL     1      44.921   2.061   9.150  0.00  0.00    +0.000 A 
ATOM     23  C   UNL     1      44.520   3.397   9.280  0.00  0.00    +0.000 A 
ATOM     24  C   UNL     1      45.191   4.354   8.507  0.00  0.00    +0.000 A 
ATOM     25  C   UNL     1      46.209   3.991   7.617  0.00  0.00    +0.000 A 
BRANCH  20  27
ATOM     26  N   UNL     1      47.729   2.965   5.359  0.00  0.00    +0.000 N 
ATOM     27  C   UNL     1      47.674   2.292   6.548  0.00  0.00    +0.000 C 
ATOM     28  O   UNL     1      48.520   1.457   6.841  0.00  0.00    +0.000 OA
ATOM     29  H   UNL     1      48.539   2.783   4.778  0.00  0.00    +0.000 HD
ATOM     30  H   UNL     1      47.215   3.818   5.194  0.00  0.00    +0.000 HD
ENDBRANCH  20  27
ENDBRANCH  18  23
ENDBRANCH  17  18
ENDBRANCH   1  17
TORSDOF 6
ENDMDL
MODEL 5
REMARK VINA RESULT:    -8.492      1.999      2.793
REMARK INTER + INTRA:         -12.629
REMARK INTER:                 -11.498
REMARK INTRA:                  -1.131
REMARK UNBOUND:                -1.158
REMARK  Name = 
REMARK  6 active torsions:
REMARK  status: ('A' for Active; 'I' for Inactive)
REMARK    1  A    between atoms: C_2  and  C_4
REMARK    2  A    between atoms: C_7  and  N_8
REMARK    3  A    between atoms: N_8  and  C_9
REMARK    4  A    between atoms: C_9  and  C_10
REMARK    5  A    between atoms: C_10  and  C_13
REMARK    6  A    between atoms: C_18  and  C_19
REMARK                            x       y       z     vdW  Elec       q    Type
REMARK                         _______ _______ _______ _____ _____    ______ ____
ROOT
ATOM      1  C   UNL     1      44.102   4.200  12.582  0.00  0.00    +0.000 C 
ATOM      2  F   UNL     1      43.241   4.206  13.643  0.00  0.00    +0.000 F 
ATOM      3  F   UNL     1      44.946   3.146  12.811  0.00  0.00    +0.000 F 
ENDROOT
BRANCH   1   4
ATOM      4  C   UNL     1      44.858   5.512  12.469  0.00  0.00    +0.000 A 
ATOM      5  C   UNL     1      44.329   6.567  11.718  0.00  0.00    +0.000 A 
ATOM      6  C   UNL     1      45.032   7.758  11.618  0.00  0.00    +0.000 A 
ATOM      7  F   UNL     1      44.521   8.763  10.894  0.00  0.00    +0.000 F 
ATOM      8  C   UNL     1      46.254   7.932  12.260  0.00  0.00    +0.000 A 
ATOM      9  C   UNL     1      46.813   6.909  13.046  0.00  0.00    +0.000 A 
ATOM     10  C   UNL     1      46.093   5.698  13.129  0.00  0.00    +0.000 A 
BRANCH   9  11
ATOM     11  C   UNL     1      48.094   7.105  13.765  0.00  0.00    +0.000 A 
ATOM     12  C   UNL     1      49.036   8.072  13.383  0.00  0.00    +0.000 A 
ATOM     13  C   UNL     1      50.239   8.211  14.078  0.00  0.00    +0.000 A 
ATOM     14  C   UNL     1      50.478   7.381  15.156  0.00  0.00    +0.000 A 
ATOM     15  N   UNL     1      49.610   6.438  15.570  0.00  0.00    +0.000 NA
ATOM     16  C   UNL     1      48.454   6.326  14.869  0.00  0.00    +0.000 A 
ENDBRANCH   9  11
ENDBRANCH   1   4
BRANCH   1  17
ATOM     17  C   UNL     1      43.308   3.906  11.284  0.00  0.00    +0.000 C 
BRANCH  17  18
ATOM     18  N   UNL     1      43.781   2.701  10.576  0.00  0.00    +0.000 N 
ATOM     19  H   UNL     1      43.889   1.880  11.168  0.00  0.00    +0.000 HD
BRANCH  18  23
ATOM     20  C   UNL     1      46.457   2.813   7.315  0.00  0.00    +0.000 A 
ATOM     21  C   UNL     1      45.908   4.004   7.795  0.00  0.00    +0.000 A 
ATOM     22  C   UNL     1      45.037   3.982   8.892  0.00  0.00    +0.000 A 
ATOM     23  C   UNL     1      44.717   2.788   9.549  0.00  0.00    +0.000 A 
ATOM     24  C   UNL     1      45.266   1.602   9.044  0.00  0.00    +0.000 A 
ATOM     25  C   UNL     1      46.124   1.607   7.937  0.00  0.00    +0.000 A 
BRANCH  20  27
ATOM     26  N   UNL     1      48.671   2.530   6.342  0.00  0.00    +0.000 N 
ATOM     27  C   UNL     1      47.346   2.789   6.126  0.00  0.00    +0.000 C 
ATOM     28  O   UNL     1      46.913   2.961   4.993  0.00  0.00    +0.000 OA
ATOM     29  H   UNL     1      49.247   2.420   5.516  0.00  0.00    +0.000 HD
ATOM     30  H   UNL     1      49.012   2.141   7.209  0.00  0.00    +0.000 HD
ENDBRANCH  20  27
ENDBRANCH  18  23
ENDBRANCH  17  18
ENDBRANCH   1  17
TORSDOF 6
ENDMDL
MODEL 6
REMARK VINA RESULT:    -8.291      1.528      2.641
REMARK INTER + INTRA:         -12.357
REMARK INTER:                 -11.721
REMARK INTRA:                  -0.636
REMARK UNBOUND:                -1.158
REMARK  Name = 
REMARK  6 active torsions:
REMARK  status: ('A' for Active; 'I' for Inactive)
REMARK    1  A    between atoms: C_2  and  C_4
REMARK    2  A    between atoms: C_7  and  N_8
REMARK    3  A    between atoms: N_8  and  C_9
REMARK    4  A    between atoms: C_9  and  C_10
REMARK    5  A    between atoms: C_10  and  C_13
REMARK    6  A    between atoms: C_18  and  C_19
REMARK                            x       y       z     vdW  Elec       q    Type
REMARK                         _______ _______ _______ _____ _____    ______ ____
ROOT
ATOM      1  C   UNL     1      44.400   3.837  12.506  0.00  0.00    +0.000 C 
ATOM      2  F   UNL     1      43.829   3.713  13.740  0.00  0.00    +0.000 F 
ATOM      3  F   UNL     1      45.451   2.958  12.506  0.00  0.00    +0.000 F 
ENDROOT
BRANCH   1   4
ATOM      4  C   UNL     1      44.859   5.261  12.242  0.00  0.00    +0.000 A 
ATOM      5  C   UNL     1      43.953   6.216  11.769  0.00  0.00    +0.000 A 
ATOM      6  C   UNL     1      44.385   7.511  11.528  0.00  0.00    +0.000 A 
ATOM      7  F   UNL     1      43.512   8.420  11.072  0.00  0.00    +0.000 F 
ATOM      8  C   UNL     1      45.705   7.887  11.756  0.00  0.00    +0.000 A 
ATOM      9  C   UNL     1      46.645   6.968  12.254  0.00  0.00    +0.000 A 
ATOM     10  C   UNL     1      46.194   5.650  12.484  0.00  0.00    +0.000 A 
BRANCH   9  11
ATOM     11  C   UNL     1      48.041   7.375  12.538  0.00  0.00    +0.000 A 
ATOM     12  C   UNL     1      48.783   8.191  11.671  0.00  0.00    +0.000 A 
ATOM     13  C   UNL     1      50.103   8.536  11.968  0.00  0.00    +0.000 A 
ATOM     14  C   UNL     1      50.660   8.063  13.140  0.00  0.00    +0.000 A 
ATOM     15  N   UNL     1      49.996   7.280  14.012  0.00  0.00    +0.000 NA
ATOM     16  C   UNL     1      48.718   6.959  13.689  0.00  0.00    +0.000 A 
ENDBRANCH   9  11
ENDBRANCH   1   4
BRANCH   1  17
ATOM     17  C   UNL     1      43.388   3.374  11.427  0.00  0.00    +0.000 C 
BRANCH  17  18
ATOM     18  N   UNL     1      43.605   4.013  10.115  0.00  0.00    +0.000 N 
ATOM     19  H   UNL     1      42.762   4.388   9.685  0.00  0.00    +0.000 HD
BRANCH  18  23
ATOM     20  C   UNL     1      46.587   2.602   7.483  0.00  0.00    +0.000 A 
ATOM     21  C   UNL     1      45.887   1.693   8.280  0.00  0.00    +0.000 A 
ATOM     22  C   UNL     1      44.879   2.147   9.140  0.00  0.00    +0.000 A 
ATOM     23  C   UNL     1      44.527   3.501   9.206  0.00  0.00    +0.000 A 
ATOM     24  C   UNL     1      45.250   4.399   8.410  0.00  0.00    +0.000 A 
ATOM     25  C   UNL     1      46.272   3.962   7.559  0.00  0.00    +0.000 A 
BRANCH  20  27
ATOM     26  N   UNL     1      47.922   2.913   5.471  0.00  0.00    +0.000 N 
ATOM     27  C   UNL     1      47.694   2.167   6.594  0.00  0.00    +0.000 C 
ATOM     28  O   UNL     1      48.397   1.202   6.865  0.00  0.00    +0.000 OA
ATOM     29  H   UNL     1      48.739   2.663   4.926  0.00  0.00    +0.000 HD
ATOM     30  H   UNL     1      47.539   3.838   5.348  0.00  0.00    +0.000 HD
ENDBRANCH  20  27
ENDBRANCH  18  23
ENDBRANCH  17  18
ENDBRANCH   1  17
TORSDOF 6
ENDMDL
MODEL 7
REMARK VINA RESULT:    -8.110      3.436      7.093
REMARK INTER + INTRA:         -12.113
REMARK INTER:                 -11.143
REMARK INTRA:                  -0.970
REMARK UNBOUND:                -1.158
REMARK  Name = 
REMARK  6 active torsions:
REMARK  status: ('A' for Active; 'I' for Inactive)
REMARK    1  A    between atoms: C_2  and  C_4
REMARK    2  A    between atoms: C_7  and  N_8
REMARK    3  A    between atoms: N_8  and  C_9
REMARK    4  A    between atoms: C_9  and  C_10
REMARK    5  A    between atoms: C_10  and  C_13
REMARK    6  A    between atoms: C_18  and  C_19
REMARK                            x       y       z     vdW  Elec       q    Type
REMARK                         _______ _______ _______ _____ _____    ______ ____
ROOT
ATOM      1  C   UNL     1      45.982   7.809  12.072  0.00  0.00    +0.000 C 
ATOM      2  F   UNL     1      45.656   8.086  13.369  0.00  0.00    +0.000 F 
ATOM      3  F   UNL     1      45.780   8.981  11.393  0.00  0.00    +0.000 F 
ENDROOT
BRANCH   1   4
ATOM      4  C   UNL     1      45.135   6.680  11.511  0.00  0.00    +0.000 A 
ATOM      5  C   UNL     1      43.786   6.570  11.865  0.00  0.00    +0.000 A 
ATOM      6  C   UNL     1      43.025   5.532  11.349  0.00  0.00    +0.000 A 
ATOM      7  F   UNL     1      41.734   5.431  11.695  0.00  0.00    +0.000 F 
ATOM      8  C   UNL     1      43.573   4.598  10.476  0.00  0.00    +0.000 A 
ATOM      9  C   UNL     1      44.917   4.683  10.073  0.00  0.00    +0.000 A 
ATOM     10  C   UNL     1      45.684   5.738  10.615  0.00  0.00    +0.000 A 
BRANCH   9  11
ATOM     11  C   UNL     1      45.493   3.715   9.111  0.00  0.00    +0.000 A 
ATOM     12  C   UNL     1      46.157   4.113   7.941  0.00  0.00    +0.000 A 
ATOM     13  C   UNL     1      46.669   3.167   7.052  0.00  0.00    +0.000 A 
ATOM     14  C   UNL     1      46.516   1.827   7.354  0.00  0.00    +0.000 A 
ATOM     15  N   UNL     1      45.892   1.386   8.463  0.00  0.00    +0.000 NA
ATOM     16  C   UNL     1      45.401   2.332   9.302  0.00  0.00    +0.000 A 
ENDBRANCH   9  11
ENDBRANCH   1   4
BRANCH   1  17
ATOM     17  C   UNL     1      47.490   7.461  11.990  0.00  0.00    +0.000 C 
BRANCH  17  18
ATOM     18  N   UNL     1      48.166   7.496  13.301  0.00  0.00    +0.000 N 
ATOM     19  H   UNL     1      49.086   7.932  13.290  0.00  0.00    +0.000 HD
BRANCH  18  23
ATOM     20  C   UNL     1      47.696   4.465  16.200  0.00  0.00    +0.000 A 
ATOM     21  C   UNL     1      47.082   4.325  14.954  0.00  0.00    +0.000 A 
ATOM     22  C   UNL     1      47.250   5.313  13.975  0.00  0.00    +0.000 A 
ATOM     23  C   UNL     1      48.049   6.440  14.202  0.00  0.00    +0.000 A 
ATOM     24  C   UNL     1      48.646   6.570  15.463  0.00  0.00    +0.000 A 
ATOM     25  C   UNL     1      48.472   5.599  16.457  0.00  0.00    +0.000 A 
BRANCH  20  27
ATOM     26  N   UNL     1      48.571   3.216  18.098  0.00  0.00    +0.000 N 
ATOM     27  C   UNL     1      47.504   3.464  17.280  0.00  0.00    +0.000 C 
ATOM     28  O   UNL     1      46.429   2.903  17.456  0.00  0.00    +0.000 OA
ATOM     29  H   UNL     1      48.397   2.606  18.888  0.00  0.00    +0.000 HD
ATOM     30  H   UNL     1      49.372   3.828  18.144  0.00  0.00    +0.000 HD
ENDBRANCH  20  27
ENDBRANCH  18  23
ENDBRANCH  17  18
ENDBRANCH   1  17
TORSDOF 6
ENDMDL
MODEL 8
REMARK VINA RESULT:    -7.980      1.748      2.096
REMARK INTER + INTRA:         -11.938
REMARK INTER:                 -10.981
REMARK INTRA:                  -0.957
REMARK UNBOUND:                -1.158
REMARK  Name = 
REMARK  6 active torsions:
REMARK  status: ('A' for Active; 'I' for Inactive)
REMARK    1  A    between atoms: C_2  and  C_4
REMARK    2  A    between atoms: C_7  and  N_8
REMARK    3  A    between atoms: N_8  and  C_9
REMARK    4  A    between atoms: C_9  and  C_10
REMARK    5  A    between atoms: C_10  and  C_13
REMARK    6  A    between atoms: C_18  and  C_19
REMARK                            x       y       z     vdW  Elec       q    Type
REMARK                         _______ _______ _______ _____ _____    ______ ____
ROOT
ATOM      1  C   UNL     1      44.846   6.533  11.436  0.00  0.00    +0.000 C 
ATOM      2  F   UNL     1      45.378   6.880  10.227  0.00  0.00    +0.000 F 
ATOM      3  F   UNL     1      44.101   7.615  11.823  0.00  0.00    +0.000 F 
ENDROOT
BRANCH   1   4
ATOM      4  C   UNL     1      45.928   6.202  12.449  0.00  0.00    +0.000 A 
ATOM      5  C   UNL     1      45.729   5.180  13.382  0.00  0.00    +0.000 A 
ATOM      6  C   UNL     1      46.723   4.891  14.305  0.00  0.00    +0.000 A 
ATOM      7  F   UNL     1      46.524   3.913  15.199  0.00  0.00    +0.000 F 
ATOM      8  C   UNL     1      47.924   5.593  14.317  0.00  0.00    +0.000 A 
ATOM      9  C   UNL     1      48.179   6.612  13.382  0.00  0.00    +0.000 A 
ATOM     10  C   UNL     1      47.153   6.903  12.456  0.00  0.00    +0.000 A 
BRANCH   9  11
ATOM     11  C   UNL     1      49.473   7.333  13.365  0.00  0.00    +0.000 A 
ATOM     12  C   UNL     1      50.204   7.604  14.531  0.00  0.00    +0.000 A 
ATOM     13  C   UNL     1      51.411   8.303  14.472  0.00  0.00    +0.000 A 
ATOM     14  C   UNL     1      51.875   8.715  13.237  0.00  0.00    +0.000 A 
ATOM     15  N   UNL     1      51.218   8.480  12.084  0.00  0.00    +0.000 NA
ATOM     16  C   UNL     1      50.046   7.804  12.179  0.00  0.00    +0.000 A 
ENDBRANCH   9  11
ENDBRANCH   1   4
BRANCH   1  17
ATOM     17  C   UNL     1      43.884   5.333  11.243  0.00  0.00    +0.000 C 
BRANCH  17  18
ATOM     18  N   UNL     1      43.757   4.913   9.834  0.00  0.00    +0.000 N 
ATOM     19  H   UNL     1      42.796   4.808   9.511  0.00  0.00    +0.000 HD
BRANCH  18  23
ATOM     20  C   UNL     1      46.251   2.042   8.005  0.00  0.00    +0.000 A 
ATOM     21  C   UNL     1      46.410   3.392   7.688  0.00  0.00    +0.000 A 
ATOM     22  C   UNL     1      45.604   4.357   8.306  0.00  0.00    +0.000 A 
ATOM     23  C   UNL     1      44.648   4.006   9.267  0.00  0.00    +0.000 A 
ATOM     24  C   UNL     1      44.494   2.645   9.562  0.00  0.00    +0.000 A 
ATOM     25  C   UNL     1      45.280   1.669   8.938  0.00  0.00    +0.000 A 
BRANCH  20  27
ATOM     26  N   UNL     1      46.772  -0.312   7.665  0.00  0.00    +0.000 N 
ATOM     27  C   UNL     1      47.052   0.985   7.337  0.00  0.00    +0.000 C 
ATOM     28  O   UNL     1      47.907   1.255   6.502  0.00  0.00    +0.000 OA
ATOM     29  H   UNL     1      47.257  -1.024   7.132  0.00  0.00    +0.000 HD
ATOM     30  H   UNL     1      45.925  -0.579   8.144  0.00  0.00    +0.000 HD
ENDBRANCH  20  27
ENDBRANCH  18  23
ENDBRANCH  17  18
ENDBRANCH   1  17
TORSDOF 6
ENDMDL
MODEL 9
REMARK VINA RESULT:    -7.875      3.225      7.037
REMARK INTER + INTRA:         -11.795
REMARK INTER:                 -10.752
REMARK INTRA:                  -1.043
REMARK UNBOUND:                -1.158
REMARK  Name = 
REMARK  6 active torsions:
REMARK  status: ('A' for Active; 'I' for Inactive)
REMARK    1  A    between atoms: C_2  and  C_4
REMARK    2  A    between atoms: C_7  and  N_8
REMARK    3  A    between atoms: N_8  and  C_9
REMARK    4  A    between atoms: C_9  and  C_10
REMARK    5  A    between atoms: C_10  and  C_13
REMARK    6  A    between atoms: C_18  and  C_19
REMARK                            x       y       z     vdW  Elec       q    Type
REMARK                         _______ _______ _______ _____ _____    ______ ____
ROOT
ATOM      1  C   UNL     1      45.192   6.492  11.499  0.00  0.00    +0.000 C 
ATOM      2  F   UNL     1      44.546   6.710  12.683  0.00  0.00    +0.000 F 
ATOM      3  F   UNL     1      44.740   7.474  10.658  0.00  0.00    +0.000 F 
ENDROOT
BRANCH   1   4
ATOM      4  C   UNL     1      44.902   5.105  10.951  0.00  0.00    +0.000 A 
ATOM      5  C   UNL     1      43.940   4.294  11.561  0.00  0.00    +0.000 A 
ATOM      6  C   UNL     1      43.688   3.028  11.054  0.00  0.00    +0.000 A 
ATOM      7  F   UNL     1      42.767   2.256  11.645  0.00  0.00    +0.000 F 
ATOM      8  C   UNL     1      44.369   2.548   9.940  0.00  0.00    +0.000 A 
ATOM      9  C   UNL     1      45.327   3.336   9.279  0.00  0.00    +0.000 A 
ATOM     10  C   UNL     1      45.581   4.618   9.813  0.00  0.00    +0.000 A 
BRANCH   9  11
ATOM     11  C   UNL     1      46.024   2.844   8.067  0.00  0.00    +0.000 A 
ATOM     12  C   UNL     1      46.254   3.654   6.945  0.00  0.00    +0.000 A 
ATOM     13  C   UNL     1      46.899   3.144   5.816  0.00  0.00    +0.000 A 
ATOM     14  C   UNL     1      47.314   1.826   5.832  0.00  0.00    +0.000 A 
ATOM     15  N   UNL     1      47.123   1.003   6.882  0.00  0.00    +0.000 NA
ATOM     16  C   UNL     1      46.489   1.529   7.959  0.00  0.00    +0.000 A 
ENDBRANCH   9  11
ENDBRANCH   1   4
BRANCH   1  17
ATOM     17  C   UNL     1      46.714   6.698  11.704  0.00  0.00    +0.000 C 
BRANCH  17  18
ATOM     18  N   UNL     1      47.080   6.959  13.110  0.00  0.00    +0.000 N 
ATOM     19  H   UNL     1      47.642   7.796  13.250  0.00  0.00    +0.000 HD
BRANCH  18  23
ATOM     20  C   UNL     1      47.869   3.928  15.939  0.00  0.00    +0.000 A 
ATOM     21  C   UNL     1      47.176   3.612  14.768  0.00  0.00    +0.000 A 
ATOM     22  C   UNL     1      46.929   4.604  13.810  0.00  0.00    +0.000 A 
ATOM     23  C   UNL     1      47.386   5.917  13.981  0.00  0.00    +0.000 A 
ATOM     24  C   UNL     1      48.067   6.218  15.168  0.00  0.00    +0.000 A 
ATOM     25  C   UNL     1      48.305   5.240  16.142  0.00  0.00    +0.000 A 
BRANCH  20  27
ATOM     26  N   UNL     1      47.188   2.838  18.007  0.00  0.00    +0.000 N 
ATOM     27  C   UNL     1      48.109   2.916  16.999  0.00  0.00    +0.000 C 
ATOM     28  O   UNL     1      49.070   2.159  16.961  0.00  0.00    +0.000 OA
ATOM     29  H   UNL     1      47.312   2.081  18.668  0.00  0.00    +0.000 HD
ATOM     30  H   UNL     1      46.273   3.259  17.939  0.00  0.00    +0.000 HD
ENDBRANCH  20  27
ENDBRANCH  18  23
ENDBRANCH  17  18
ENDBRANCH   1  17
TORSDOF 6
ENDMDL
