MODEL 1
REMARK VINA RESULT:    -9.655      0.000      0.000
REMARK INTER + INTRA:         -13.552
REMARK INTER:                 -12.478
REMARK INTRA:                  -1.075
REMARK UNBOUND:                -1.075
REMARK  Name = 
REMARK  5 active torsions:
REMARK  status: ('A' for Active; 'I' for Inactive)
REMARK    1  A    between atoms: C_2  and  C_4
REMARK    2  A    between atoms: C_7  and  C_8
REMARK    3  A    between atoms: C_8  and  C_9
REMARK    4  A    between atoms: C_9  and  C_10
REMARK    5  A    between atoms: C_14  and  C_15
REMARK                            x       y       z     vdW  Elec       q    Type
REMARK                         _______ _______ _______ _____ _____    ______ ____
ROOT
ATOM      1  C   UNL     1      44.071   4.641  11.785  0.00  0.00    +0.000 C 
ATOM      2  C   UNL     1      43.394   3.555  12.623  0.00  0.00    +0.000 C 
ATOM      3  C   UNL     1      42.991   4.983  12.814  0.00  0.00    +0.000 C 
ENDROOT
BRANCH   1   4
ATOM      4  C   UNL     1      45.464   5.111  12.211  0.00  0.00    +0.000 A 
ATOM      5  C   UNL     1      46.066   6.224  11.606  0.00  0.00    +0.000 A 
ATOM      6  C   UNL     1      47.183   6.828  12.173  0.00  0.00    +0.000 A 
ATOM      7  C   UNL     1      47.711   6.327  13.360  0.00  0.00    +0.000 A 
ATOM      8  C   UNL     1      47.187   5.169  13.959  0.00  0.00    +0.000 A 
ATOM      9  C   UNL     1      46.098   4.547  13.328  0.00  0.00    +0.000 A 
BRANCH   8  10
ATOM     10  C   UNL     1      47.654   4.707  15.270  0.00  0.00    +0.000 A 
ATOM     11  C   UNL     1      48.266   5.539  16.208  0.00  0.00    +0.000 A 
ATOM     12  N   UNL     1      48.809   5.088  17.366  0.00  0.00    +0.000 NA
ATOM     13  C   UNL     1      48.721   3.752  17.554  0.00  0.00    +0.000 A 
ATOM     14  C   UNL     1      48.107   2.915  16.642  0.00  0.00    +0.000 A 
ATOM     15  N   UNL     1      47.555   3.370  15.496  0.00  0.00    +0.000 NA
ENDBRANCH   8  10
ENDBRANCH   1   4
BRANCH   1  16
ATOM     16  C   UNL     1      43.824   4.742  10.287  0.00  0.00    +0.000 C 
BRANCH  16  20
ATOM     17  C   UNL     1      46.391   2.294   7.815  0.00  0.00    +0.000 A 
ATOM     18  C   UNL     1      46.380   3.684   7.654  0.00  0.00    +0.000 A 
ATOM     19  C   UNL     1      45.519   4.471   8.427  0.00  0.00    +0.000 A 
ATOM     20  C   UNL     1      44.669   3.883   9.375  0.00  0.00    +0.000 A 
ATOM     21  C   UNL     1      44.671   2.487   9.511  0.00  0.00    +0.000 A 
ATOM     22  C   UNL     1      45.517   1.697   8.730  0.00  0.00    +0.000 A 
BRANCH  17  24
ATOM     23  N   UNL     1      48.429   1.992   6.511  0.00  0.00    +0.000 N 
ATOM     24  C   UNL     1      47.306   1.420   7.039  0.00  0.00    +0.000 C 
ATOM     25  O   UNL     1      47.094   0.216   6.905  0.00  0.00    +0.000 OA
ATOM     26  H   UNL     1      49.097   1.359   6.091  0.00  0.00    +0.000 HD
ATOM     27  H   UNL     1      48.765   2.894   6.814  0.00  0.00    +0.000 HD
ENDBRANCH  17  24
ENDBRANCH  16  20
ENDBRANCH   1  16
TORSDOF 5
ENDMDL
MODEL 2
REMARK VINA RESULT:    -8.777      1.753      2.420
REMARK INTER + INTRA:         -12.417
REMARK INTER:                 -11.328
REMARK INTRA:                  -1.089
REMARK UNBOUND:                -1.075
REMARK  Name = 
REMARK  5 active torsions:
REMARK  status: ('A' for Active; 'I' for Inactive)
REMARK    1  A    between atoms: C_2  and  C_4
REMARK    2  A    between atoms: C_7  and  C_8
REMARK    3  A    between atoms: C_8  and  C_9
REMARK    4  A    between atoms: C_9  and  C_10
REMARK    5  A    between atoms: C_14  and  C_15
REMARK                            x       y       z     vdW  Elec       q    Type
REMARK                         _______ _______ _______ _____ _____    ______ ____
ROOT
ATOM      1  C   UNL     1      44.285   4.877  11.702  0.00  0.00    +0.000 C 
ATOM      2  C   UNL     1      44.639   3.744  12.667  0.00  0.00    +0.000 C 
ATOM      3  C   UNL     1      43.463   4.619  12.967  0.00  0.00    +0.000 C 
ENDROOT
BRANCH   1   4
ATOM      4  C   UNL     1      45.105   6.167  11.781  0.00  0.00    +0.000 A 
ATOM      5  C   UNL     1      44.521   7.410  11.496  0.00  0.00    +0.000 A 
ATOM      6  C   UNL     1      45.161   8.596  11.841  0.00  0.00    +0.000 A 
ATOM      7  C   UNL     1      46.397   8.551  12.483  0.00  0.00    +0.000 A 
ATOM      8  C   UNL     1      47.051   7.331  12.719  0.00  0.00    +0.000 A 
ATOM      9  C   UNL     1      46.407   6.156  12.303  0.00  0.00    +0.000 A 
BRANCH   8  10
ATOM     10  C   UNL     1      48.289   7.266  13.504  0.00  0.00    +0.000 A 
ATOM     11  C   UNL     1      48.425   6.508  14.667  0.00  0.00    +0.000 A 
ATOM     12  N   UNL     1      49.526   6.544  15.459  0.00  0.00    +0.000 NA
ATOM     13  C   UNL     1      50.500   7.385  15.043  0.00  0.00    +0.000 A 
ATOM     14  C   UNL     1      50.386   8.134  13.887  0.00  0.00    +0.000 A 
ATOM     15  N   UNL     1      49.293   8.084  13.093  0.00  0.00    +0.000 NA
ENDBRANCH   8  10
ENDBRANCH   1   4
BRANCH   1  16
ATOM     16  C   UNL     1      43.744   4.581  10.311  0.00  0.00    +0.000 C 
BRANCH  16  20
ATOM     17  C   UNL     1      46.486   2.513   7.684  0.00  0.00    +0.000 A 
ATOM     18  C   UNL     1      46.407   3.910   7.657  0.00  0.00    +0.000 A 
ATOM     19  C   UNL     1      45.491   4.574   8.478  0.00  0.00    +0.000 A 
ATOM     20  C   UNL     1      44.652   3.856   9.343  0.00  0.00    +0.000 A 
ATOM     21  C   UNL     1      44.723   2.455   9.344  0.00  0.00    +0.000 A 
ATOM     22  C   UNL     1      45.624   1.788   8.513  0.00  0.00    +0.000 A 
BRANCH  17  24
ATOM     23  N   UNL     1      48.562   2.441   6.406  0.00  0.00    +0.000 N 
ATOM     24  C   UNL     1      47.461   1.764   6.851  0.00  0.00    +0.000 C 
ATOM     25  O   UNL     1      47.316   0.569   6.600  0.00  0.00    +0.000 OA
ATOM     26  H   UNL     1      49.270   1.885   5.945  0.00  0.00    +0.000 HD
ATOM     27  H   UNL     1      48.844   3.326   6.801  0.00  0.00    +0.000 HD
ENDBRANCH  17  24
ENDBRANCH  16  20
ENDBRANCH   1  16
TORSDOF 5
ENDMDL
MODEL 3
REMARK VINA RESULT:    -8.346      2.820      4.231
REMARK INTER + INTRA:         -11.861
REMARK INTER:                 -10.734
REMARK INTRA:                  -1.127
REMARK UNBOUND:                -1.075
REMARK  Name = 
REMARK  5 active torsions:
REMARK  status: ('A' for Active; 'I' for Inactive)
REMARK    1  A    between atoms: C_2  and  C_4
REMARK    2  A    between atoms: C_7  and  C_8
REMARK    3  A    between atoms: C_8  and  C_9
REMARK    4  A    between atoms: C_9  and  C_10
REMARK    5  A    between atoms: C_14  and  C_15
REMARK                            x       y       z     vdW  Elec       q    Type
REMARK                         _______ _______ _______ _____ _____    ______ ____
ROOT
ATOM      1  C   UNL     1      44.158   4.403  11.873  0.00  0.00    +0.000 C 
ATOM      2  C   UNL     1      43.918   3.023  12.489  0.00  0.00    +0.000 C 
ATOM      3  C   UNL     1      42.984   4.144  12.821  0.00  0.00    +0.000 C 
ENDROOT
BRANCH   1   4
ATOM      4  C   UNL     1      45.239   5.288  12.497  0.00  0.00    +0.000 A 
ATOM      5  C   UNL     1      46.436   4.734  12.977  0.00  0.00    +0.000 A 
ATOM      6  C   UNL     1      47.528   5.541  13.273  0.00  0.00    +0.000 A 
ATOM      7  C   UNL     1      47.439   6.919  13.087  0.00  0.00    +0.000 A 
ATOM      8  C   UNL     1      46.237   7.523  12.682  0.00  0.00    +0.000 A 
ATOM      9  C   UNL     1      45.134   6.686  12.451  0.00  0.00    +0.000 A 
BRANCH   8  10
ATOM     10  C   UNL     1      46.167   8.953  12.364  0.00  0.00    +0.000 A 
ATOM     11  C   UNL     1      44.970   9.644  12.179  0.00  0.00    +0.000 A 
ATOM     12  N   UNL     1      44.908  10.935  11.764  0.00  0.00    +0.000 NA
ATOM     13  C   UNL     1      46.105  11.516  11.530  0.00  0.00    +0.000 A 
ATOM     14  C   UNL     1      47.301  10.849  11.719  0.00  0.00    +0.000 A 
ATOM     15  N   UNL     1      47.359   9.569  12.147  0.00  0.00    +0.000 NA
ENDBRANCH   8  10
ENDBRANCH   1   4
BRANCH   1  16
ATOM     16  C   UNL     1      43.958   4.641  10.383  0.00  0.00    +0.000 C 
BRANCH  16  20
ATOM     17  C   UNL     1      46.618   2.795   7.518  0.00  0.00    +0.000 A 
ATOM     18  C   UNL     1      45.867   2.000   8.391  0.00  0.00    +0.000 A 
ATOM     19  C   UNL     1      45.038   2.600   9.344  0.00  0.00    +0.000 A 
ATOM     20  C   UNL     1      44.939   3.996   9.430  0.00  0.00    +0.000 A 
ATOM     21  C   UNL     1      45.715   4.784   8.567  0.00  0.00    +0.000 A 
ATOM     22  C   UNL     1      46.557   4.188   7.625  0.00  0.00    +0.000 A 
BRANCH  17  24
ATOM     23  N   UNL     1      47.818   2.992   5.403  0.00  0.00    +0.000 N 
ATOM     24  C   UNL     1      47.491   2.205   6.472  0.00  0.00    +0.000 C 
ATOM     25  O   UNL     1      47.943   1.065   6.572  0.00  0.00    +0.000 OA
ATOM     26  H   UNL     1      48.507   2.615   4.766  0.00  0.00    +0.000 HD
ATOM     27  H   UNL     1      47.688   3.993   5.415  0.00  0.00    +0.000 HD
ENDBRANCH  17  24
ENDBRANCH  16  20
ENDBRANCH   1  16
TORSDOF 5
ENDMDL
MODEL 4
REMARK VINA RESULT:    -8.137      3.918      5.583
REMARK INTER + INTRA:         -11.591
REMARK INTER:                 -10.544
REMARK INTRA:                  -1.047
REMARK UNBOUND:                -1.075
REMARK  Name = 
REMARK  5 active torsions:
REMARK  status: ('A' for Active; 'I' for Inactive)
REMARK    1  A    between atoms: C_2  and  C_4
REMARK    2  A    between atoms: C_7  and  C_8
REMARK    3  A    between atoms: C_8  and  C_9
REMARK    4  A    between atoms: C_9  and  C_10
REMARK    5  A    between atoms: C_14  and  C_15
REMARK                            x       y       z     vdW  Elec       q    Type
REMARK                         _______ _______ _______ _____ _____    ______ ____
ROOT
ATOM      1  C   UNL     1      44.720   5.121  11.876  0.00  0.00    +0.000 C 
ATOM      2  C   UNL     1      45.628   4.094  12.555  0.00  0.00    +0.000 C 
ATOM      3  C   UNL     1      44.305   4.421  13.172  0.00  0.00    +0.000 C 
ENDROOT
BRANCH   1   4
ATOM      4  C   UNL     1      45.038   6.604  12.080  0.00  0.00    +0.000 A 
ATOM      5  C   UNL     1      46.271   7.011  12.610  0.00  0.00    +0.000 A 
ATOM      6  C   UNL     1      46.681   8.337  12.530  0.00  0.00    +0.000 A 
ATOM      7  C   UNL     1      45.860   9.277  11.911  0.00  0.00    +0.000 A 
ATOM      8  C   UNL     1      44.585   8.928  11.434  0.00  0.00    +0.000 A 
ATOM      9  C   UNL     1      44.176   7.595  11.587  0.00  0.00    +0.000 A 
BRANCH   8  10
ATOM     10  C   UNL     1      43.767   9.878  10.672  0.00  0.00    +0.000 A 
ATOM     11  C   UNL     1      42.372   9.861  10.664  0.00  0.00    +0.000 A 
ATOM     12  N   UNL     1      41.619  10.657   9.864  0.00  0.00    +0.000 NA
ATOM     13  C   UNL     1      42.322  11.479   9.054  0.00  0.00    +0.000 A 
ATOM     14  C   UNL     1      43.703  11.516   9.056  0.00  0.00    +0.000 A 
ATOM     15  N   UNL     1      44.450  10.732   9.865  0.00  0.00    +0.000 NA
ENDBRANCH   8  10
ENDBRANCH   1   4
BRANCH   1  16
ATOM     16  C   UNL     1      44.053   4.816  10.542  0.00  0.00    +0.000 C 
BRANCH  16  20
ATOM     17  C   UNL     1      46.489   2.593   7.746  0.00  0.00    +0.000 A 
ATOM     18  C   UNL     1      46.454   3.991   7.690  0.00  0.00    +0.000 A 
ATOM     19  C   UNL     1      45.635   4.706   8.569  0.00  0.00    +0.000 A 
ATOM     20  C   UNL     1      44.850   4.039   9.520  0.00  0.00    +0.000 A 
ATOM     21  C   UNL     1      44.874   2.636   9.551  0.00  0.00    +0.000 A 
ATOM     22  C   UNL     1      45.678   1.918   8.664  0.00  0.00    +0.000 A 
BRANCH  17  24
ATOM     23  N   UNL     1      48.494   2.391   6.373  0.00  0.00    +0.000 N 
ATOM     24  C   UNL     1      47.363   1.792   6.853  0.00  0.00    +0.000 C 
ATOM     25  O   UNL     1      47.112   0.619   6.582  0.00  0.00    +0.000 OA
ATOM     26  H   UNL     1      49.135   1.794   5.867  0.00  0.00    +0.000 HD
ATOM     27  H   UNL     1      48.863   3.240   6.774  0.00  0.00    +0.000 HD
ENDBRANCH  17  24
ENDBRANCH  16  20
ENDBRANCH   1  16
TORSDOF 5
ENDMDL
MODEL 5
REMARK VINA RESULT:    -7.872      2.313      3.534
REMARK INTER + INTRA:         -11.248
REMARK INTER:                 -10.842
REMARK INTRA:                  -0.405
REMARK UNBOUND:                -1.075
REMARK  Name = 
REMARK  5 active torsions:
REMARK  status: ('A' for Active; 'I' for Inactive)
REMARK    1  A    between atoms: C_2  and  C_4
REMARK    2  A    between atoms: C_7  and  C_8
REMARK    3  A    between atoms: C_8  and  C_9
REMARK    4  A    between atoms: C_9  and  C_10
REMARK    5  A    between atoms: C_14  and  C_15
REMARK                            x       y       z     vdW  Elec       q    Type
REMARK                         _______ _______ _______ _____ _____    ______ ____
ROOT
ATOM      1  C   UNL     1      43.675   4.742  11.491  0.00  0.00    +0.000 C 
ATOM      2  C   UNL     1      42.381   5.429  11.932  0.00  0.00    +0.000 C 
ATOM      3  C   UNL     1      43.160   6.001  10.790  0.00  0.00    +0.000 C 
ENDROOT
BRANCH   1   4
ATOM      4  C   UNL     1      44.939   4.997  12.315  0.00  0.00    +0.000 A 
ATOM      5  C   UNL     1      45.564   3.955  13.017  0.00  0.00    +0.000 A 
ATOM      6  C   UNL     1      46.851   4.105  13.522  0.00  0.00    +0.000 A 
ATOM      7  C   UNL     1      47.534   5.304  13.325  0.00  0.00    +0.000 A 
ATOM      8  C   UNL     1      46.918   6.398  12.694  0.00  0.00    +0.000 A 
ATOM      9  C   UNL     1      45.596   6.234  12.252  0.00  0.00    +0.000 A 
BRANCH   8  10
ATOM     10  C   UNL     1      47.667   7.617  12.372  0.00  0.00    +0.000 A 
ATOM     11  C   UNL     1      47.086   8.883  12.301  0.00  0.00    +0.000 A 
ATOM     12  N   UNL     1      47.751   9.989  11.882  0.00  0.00    +0.000 NA
ATOM     13  C   UNL     1      49.038   9.778  11.525  0.00  0.00    +0.000 A 
ATOM     14  C   UNL     1      49.632   8.533  11.600  0.00  0.00    +0.000 A 
ATOM     15  N   UNL     1      48.971   7.437  12.032  0.00  0.00    +0.000 NA
ENDBRANCH   8  10
ENDBRANCH   1   4
BRANCH   1  16
ATOM     16  C   UNL     1      43.646   3.375  10.822  0.00  0.00    +0.000 C 
BRANCH  16  20
ATOM     17  C   UNL     1      46.440   2.748   7.582  0.00  0.00    +0.000 A 
ATOM     18  C   UNL     1      45.974   4.036   7.868  0.00  0.00    +0.000 A 
ATOM     19  C   UNL     1      45.040   4.231   8.890  0.00  0.00    +0.000 A 
ATOM     20  C   UNL     1      44.568   3.148   9.645  0.00  0.00    +0.000 A 
ATOM     21  C   UNL     1      45.023   1.858   9.335  0.00  0.00    +0.000 A 
ATOM     22  C   UNL     1      45.943   1.658   8.304  0.00  0.00    +0.000 A 
BRANCH  17  24
ATOM     23  N   UNL     1      47.410   3.281   5.409  0.00  0.00    +0.000 N 
ATOM     24  C   UNL     1      47.452   2.494   6.526  0.00  0.00    +0.000 C 
ATOM     25  O   UNL     1      48.327   1.639   6.658  0.00  0.00    +0.000 OA
ATOM     26  H   UNL     1      48.178   3.174   4.759  0.00  0.00    +0.000 HD
ATOM     27  H   UNL     1      46.889   4.145   5.381  0.00  0.00    +0.000 HD
ENDBRANCH  17  24
ENDBRANCH  16  20
ENDBRANCH   1  16
TORSDOF 5
ENDMDL
MODEL 6
REMARK VINA RESULT:    -7.042      2.662      4.458
REMARK INTER + INTRA:         -10.175
REMARK INTER:                  -9.341
REMARK INTRA:                  -0.834
REMARK UNBOUND:                -1.075
REMARK  Name = 
REMARK  5 active torsions:
REMARK  status: ('A' for Active; 'I' for Inactive)
REMARK    1  A    between atoms: C_2  and  C_4
REMARK    2  A    between atoms: C_7  and  C_8
REMARK    3  A    between atoms: C_8  and  C_9
REMARK    4  A    between atoms: C_9  and  C_10
REMARK    5  A    between atoms: C_14  and  C_15
REMARK                            x       y       z     vdW  Elec       q    Type
REMARK                         _______ _______ _______ _____ _____    ______ ____
ROOT
ATOM      1  C   UNL     1      47.811   8.162  12.657  0.00  0.00    +0.000 C 
ATOM      2  C   UNL     1      48.512   9.204  11.784  0.00  0.00    +0.000 C 
ATOM      3  C   UNL     1      48.725   7.751  11.501  0.00  0.00    +0.000 C 
ENDROOT
BRANCH   1   4
ATOM      4  C   UNL     1      48.416   7.853  14.029  0.00  0.00    +0.000 A 
ATOM      5  C   UNL     1      48.845   8.886  14.876  0.00  0.00    +0.000 A 
ATOM      6  C   UNL     1      49.120   8.642  16.217  0.00  0.00    +0.000 A 
ATOM      7  C   UNL     1      48.964   7.356  16.731  0.00  0.00    +0.000 A 
ATOM      8  C   UNL     1      48.610   6.279  15.901  0.00  0.00    +0.000 A 
ATOM      9  C   UNL     1      48.399   6.547  14.540  0.00  0.00    +0.000 A 
BRANCH   8  10
ATOM     10  C   UNL     1      48.322   4.951  16.453  0.00  0.00    +0.000 A 
ATOM     11  C   UNL     1      47.035   4.421  16.556  0.00  0.00    +0.000 A 
ATOM     12  N   UNL     1      46.757   3.248  17.178  0.00  0.00    +0.000 NA
ATOM     13  C   UNL     1      47.828   2.616  17.709  0.00  0.00    +0.000 A 
ATOM     14  C   UNL     1      49.110   3.121  17.606  0.00  0.00    +0.000 A 
ATOM     15  N   UNL     1      49.385   4.283  16.973  0.00  0.00    +0.000 NA
ENDBRANCH   8  10
ENDBRANCH   1   4
BRANCH   1  16
ATOM     16  C   UNL     1      46.301   7.980  12.600  0.00  0.00    +0.000 C 
BRANCH  16  20
ATOM     17  C   UNL     1      44.598   4.170  11.471  0.00  0.00    +0.000 A 
ATOM     18  C   UNL     1      44.729   4.507  12.823  0.00  0.00    +0.000 A 
ATOM     19  C   UNL     1      45.317   5.723  13.186  0.00  0.00    +0.000 A 
ATOM     20  C   UNL     1      45.771   6.620  12.209  0.00  0.00    +0.000 A 
ATOM     21  C   UNL     1      45.657   6.261  10.857  0.00  0.00    +0.000 A 
ATOM     22  C   UNL     1      45.086   5.041  10.491  0.00  0.00    +0.000 A 
BRANCH  17  24
ATOM     23  N   UNL     1      44.490   2.266   9.950  0.00  0.00    +0.000 N 
ATOM     24  C   UNL     1      43.957   2.904  11.035  0.00  0.00    +0.000 C 
ATOM     25  O   UNL     1      43.006   2.416  11.645  0.00  0.00    +0.000 OA
ATOM     26  H   UNL     1      44.116   1.349   9.744  0.00  0.00    +0.000 HD
ATOM     27  H   UNL     1      45.407   2.489   9.594  0.00  0.00    +0.000 HD
ENDBRANCH  17  24
ENDBRANCH  16  20
ENDBRANCH   1  16
TORSDOF 5
ENDMDL
MODEL 7
REMARK VINA RESULT:    -7.017      2.936      7.504
REMARK INTER + INTRA:         -10.142
REMARK INTER:                  -9.827
REMARK INTRA:                  -0.315
REMARK UNBOUND:                -1.075
REMARK  Name = 
REMARK  5 active torsions:
REMARK  status: ('A' for Active; 'I' for Inactive)
REMARK    1  A    between atoms: C_2  and  C_4
REMARK    2  A    between atoms: C_7  and  C_8
REMARK    3  A    between atoms: C_8  and  C_9
REMARK    4  A    between atoms: C_9  and  C_10
REMARK    5  A    between atoms: C_14  and  C_15
REMARK                            x       y       z     vdW  Elec       q    Type
REMARK                         _______ _______ _______ _____ _____    ______ ____
ROOT
ATOM      1  C   UNL     1      46.365   7.476  12.293  0.00  0.00    +0.000 C 
ATOM      2  C   UNL     1      46.234   8.904  11.758  0.00  0.00    +0.000 C 
ATOM      3  C   UNL     1      45.669   8.572  13.103  0.00  0.00    +0.000 C 
ENDROOT
BRANCH   1   4
ATOM      4  C   UNL     1      45.391   6.421  11.763  0.00  0.00    +0.000 A 
ATOM      5  C   UNL     1      44.009   6.547  11.972  0.00  0.00    +0.000 A 
ATOM      6  C   UNL     1      43.106   5.766  11.259  0.00  0.00    +0.000 A 
ATOM      7  C   UNL     1      43.575   4.850  10.320  0.00  0.00    +0.000 A 
ATOM      8  C   UNL     1      44.951   4.638  10.135  0.00  0.00    +0.000 A 
ATOM      9  C   UNL     1      45.837   5.398  10.914  0.00  0.00    +0.000 A 
BRANCH   8  10
ATOM     10  C   UNL     1      45.454   3.770   9.065  0.00  0.00    +0.000 A 
ATOM     11  C   UNL     1      45.500   2.378   9.159  0.00  0.00    +0.000 A 
ATOM     12  N   UNL     1      46.078   1.584   8.223  0.00  0.00    +0.000 NA
ATOM     13  C   UNL     1      46.625   2.242   7.177  0.00  0.00    +0.000 A 
ATOM     14  C   UNL     1      46.579   3.619   7.063  0.00  0.00    +0.000 A 
ATOM     15  N   UNL     1      45.989   4.406   7.989  0.00  0.00    +0.000 NA
ENDBRANCH   8  10
ENDBRANCH   1   4
BRANCH   1  16
ATOM     16  C   UNL     1      47.720   6.911  12.693  0.00  0.00    +0.000 C 
BRANCH  16  20
ATOM     17  C   UNL     1      47.773   4.692  16.403  0.00  0.00    +0.000 A 
ATOM     18  C   UNL     1      48.504   5.879  16.285  0.00  0.00    +0.000 A 
ATOM     19  C   UNL     1      48.518   6.574  15.071  0.00  0.00    +0.000 A 
ATOM     20  C   UNL     1      47.796   6.100  13.967  0.00  0.00    +0.000 A 
ATOM     21  C   UNL     1      47.086   4.897  14.089  0.00  0.00    +0.000 A 
ATOM     22  C   UNL     1      47.083   4.191  15.293  0.00  0.00    +0.000 A 
BRANCH  17  24
ATOM     23  N   UNL     1      46.990   2.769  17.683  0.00  0.00    +0.000 N 
ATOM     24  C   UNL     1      47.704   3.934  17.678  0.00  0.00    +0.000 C 
ATOM     25  O   UNL     1      48.299   4.309  18.687  0.00  0.00    +0.000 OA
ATOM     26  H   UNL     1      47.056   2.209  18.523  0.00  0.00    +0.000 HD
ATOM     27  H   UNL     1      46.716   2.304  16.831  0.00  0.00    +0.000 HD
ENDBRANCH  17  24
ENDBRANCH  16  20
ENDBRANCH   1  16
TORSDOF 5
ENDMDL
