MODEL 1
REMARK VINA RESULT:    -9.134      0.000      0.000
REMARK INTER + INTRA:         -12.066
REMARK INTER:                 -11.270
REMARK INTRA:                  -0.796
REMARK UNBOUND:                -0.796
REMARK  Name = 
REMARK  4 active torsions:
REMARK  status: ('A' for Active; 'I' for Inactive)
REMARK    1  A    between atoms: C_2  and  C_4
REMARK    2  A    between atoms: N_8  and  C_9
REMARK    3  A    between atoms: C_9  and  C_10
REMARK    4  A    between atoms: C_14  and  C_15
REMARK                            x       y       z     vdW  Elec       q    Type
REMARK                         _______ _______ _______ _____ _____    ______ ____
ROOT
ATOM      1  C   UNL     1      44.072   4.773  11.523  0.00  0.00    +0.000 C 
ATOM      2  C   UNL     1      42.704   4.832  12.191  0.00  0.00    +0.000 C 
ATOM      3  C   UNL     1      43.054   5.828  11.137  0.00  0.00    +0.000 C 
ENDROOT
BRANCH   1   8
ATOM      4  C   UNL     1      46.582   2.715   7.410  0.00  0.00    +0.000 A 
ATOM      5  C   UNL     1      46.450   4.051   7.785  0.00  0.00    +0.000 A 
ATOM      6  C   UNL     1      45.696   4.371   8.919  0.00  0.00    +0.000 A 
ATOM      7  C   UNL     1      45.113   3.352   9.662  0.00  0.00    +0.000 A 
ATOM      8  N   UNL     1      44.288   3.551  10.758  0.00  0.00    +0.000 N 
ATOM      9  N   UNL     1      45.257   2.053   9.315  0.00  0.00    +0.000 NA
ATOM     10  C   UNL     1      45.963   1.763   8.198  0.00  0.00    +0.000 A 
ATOM     11  H   UNL     1      44.122   2.650  11.197  0.00  0.00    +0.000 HD
BRANCH   4  13
ATOM     12  N   UNL     1      47.191   3.067   5.087  0.00  0.00    +0.000 N 
ATOM     13  C   UNL     1      47.301   2.279   6.197  0.00  0.00    +0.000 C 
ATOM     14  O   UNL     1      47.992   1.271   6.190  0.00  0.00    +0.000 OA
ATOM     15  H   UNL     1      47.767   2.813   4.297  0.00  0.00    +0.000 HD
ATOM     16  H   UNL     1      46.854   4.021   5.131  0.00  0.00    +0.000 HD
ENDBRANCH   4  13
ENDBRANCH   1   8
BRANCH   1  17
ATOM     17  C   UNL     1      45.310   5.226  12.279  0.00  0.00    +0.000 A 
ATOM     18  C   UNL     1      45.976   6.415  11.974  0.00  0.00    +0.000 A 
ATOM     19  C   UNL     1      47.011   6.838  12.791  0.00  0.00    +0.000 A 
ATOM     20  N   UNL     1      47.441   6.160  13.877  0.00  0.00    +0.000 NA
ATOM     21  C   UNL     1      46.823   4.987  14.175  0.00  0.00    +0.000 A 
ATOM     22  C   UNL     1      45.776   4.506  13.390  0.00  0.00    +0.000 A 
BRANCH  21  23
ATOM     23  C   UNL     1      47.303   4.258  15.372  0.00  0.00    +0.000 A 
ATOM     24  C   UNL     1      47.199   4.794  16.655  0.00  0.00    +0.000 A 
ATOM     25  C   UNL     1      47.676   4.072  17.747  0.00  0.00    +0.000 A 
ATOM     26  C   UNL     1      48.258   2.827  17.539  0.00  0.00    +0.000 A 
ATOM     27  C   UNL     1      48.324   2.353  16.242  0.00  0.00    +0.000 A 
ATOM     28  N   UNL     1      47.864   3.028  15.165  0.00  0.00    +0.000 NA
ENDBRANCH  21  23
ENDBRANCH   1  17
TORSDOF 4
ENDMDL
MODEL 2
REMARK VINA RESULT:    -8.736      1.650      3.831
REMARK INTER + INTRA:         -11.575
REMARK INTER:                 -10.682
REMARK INTRA:                  -0.894
REMARK UNBOUND:                -0.796
REMARK  Name = 
REMARK  4 active torsions:
REMARK  status: ('A' for Active; 'I' for Inactive)
REMARK    1  A    between atoms: C_2  and  C_4
REMARK    2  A    between atoms: N_8  and  C_9
REMARK    3  A    between atoms: C_9  and  C_10
REMARK    4  A    between atoms: C_14  and  C_15
REMARK                            x       y       z     vdW  Elec       q    Type
REMARK                         _______ _______ _______ _____ _____    ______ ____
ROOT
ATOM      1  C   UNL     1      44.050   4.779  11.475  0.00  0.00    +0.000 C 
ATOM      2  C   UNL     1      42.657   4.858  12.085  0.00  0.00    +0.000 C 
ATOM      3  C   UNL     1      43.068   5.854  11.053  0.00  0.00    +0.000 C 
ENDROOT
BRANCH   1   8
ATOM      4  C   UNL     1      46.593   2.737   7.374  0.00  0.00    +0.000 A 
ATOM      5  C   UNL     1      46.451   4.072   7.748  0.00  0.00    +0.000 A 
ATOM      6  C   UNL     1      45.689   4.387   8.878  0.00  0.00    +0.000 A 
ATOM      7  C   UNL     1      45.110   3.364   9.619  0.00  0.00    +0.000 A 
ATOM      8  N   UNL     1      44.278   3.558  10.711  0.00  0.00    +0.000 N 
ATOM      9  N   UNL     1      45.263   2.067   9.273  0.00  0.00    +0.000 NA
ATOM     10  C   UNL     1      45.977   1.781   8.159  0.00  0.00    +0.000 A 
ATOM     11  H   UNL     1      44.116   2.657  11.150  0.00  0.00    +0.000 HD
BRANCH   4  13
ATOM     12  N   UNL     1      47.159   3.056   5.036  0.00  0.00    +0.000 N 
ATOM     13  C   UNL     1      47.321   2.304   6.165  0.00  0.00    +0.000 C 
ATOM     14  O   UNL     1      48.063   1.334   6.177  0.00  0.00    +0.000 OA
ATOM     15  H   UNL     1      47.739   2.810   4.246  0.00  0.00    +0.000 HD
ATOM     16  H   UNL     1      46.774   3.993   5.059  0.00  0.00    +0.000 HD
ENDBRANCH   4  13
ENDBRANCH   1   8
BRANCH   1  17
ATOM     17  C   UNL     1      45.263   5.206  12.286  0.00  0.00    +0.000 A 
ATOM     18  C   UNL     1      45.739   4.460  13.366  0.00  0.00    +0.000 A 
ATOM     19  C   UNL     1      46.928   4.830  13.971  0.00  0.00    +0.000 A 
ATOM     20  N   UNL     1      47.669   5.893  13.592  0.00  0.00    +0.000 NA
ATOM     21  C   UNL     1      47.208   6.649  12.560  0.00  0.00    +0.000 A 
ATOM     22  C   UNL     1      46.016   6.329  11.911  0.00  0.00    +0.000 A 
BRANCH  21  23
ATOM     23  C   UNL     1      48.034   7.809  12.153  0.00  0.00    +0.000 A 
ATOM     24  C   UNL     1      49.381   7.677  11.819  0.00  0.00    +0.000 A 
ATOM     25  C   UNL     1      50.117   8.802  11.453  0.00  0.00    +0.000 A 
ATOM     26  C   UNL     1      49.497  10.046  11.436  0.00  0.00    +0.000 A 
ATOM     27  C   UNL     1      48.158  10.105  11.774  0.00  0.00    +0.000 A 
ATOM     28  N   UNL     1      47.418   9.030  12.126  0.00  0.00    +0.000 NA
ENDBRANCH  21  23
ENDBRANCH   1  17
TORSDOF 4
ENDMDL
MODEL 3
REMARK VINA RESULT:    -7.359      1.876      3.104
REMARK INTER + INTRA:          -9.876
REMARK INTER:                  -9.745
REMARK INTRA:                  -0.131
REMARK UNBOUND:                -0.796
REMARK  Name = 
REMARK  4 active torsions:
REMARK  status: ('A' for Active; 'I' for Inactive)
REMARK    1  A    between atoms: C_2  and  C_4
REMARK    2  A    between atoms: N_8  and  C_9
REMARK    3  A    between atoms: C_9  and  C_10
REMARK    4  A    between atoms: C_14  and  C_15
REMARK                            x       y       z     vdW  Elec       q    Type
REMARK                         _______ _______ _______ _____ _____    ______ ____
ROOT
ATOM      1  C   UNL     1      44.393   5.431  11.155  0.00  0.00    +0.000 C 
ATOM      2  C   UNL     1      43.078   4.661  11.132  0.00  0.00    +0.000 C 
ATOM      3  C   UNL     1      43.070   6.129  11.400  0.00  0.00    +0.000 C 
ENDROOT
BRANCH   1   8
ATOM      4  C   UNL     1      46.584   2.415   7.473  0.00  0.00    +0.000 A 
ATOM      5  C   UNL     1      46.148   2.070   8.751  0.00  0.00    +0.000 A 
ATOM      6  C   UNL     1      45.618   3.062   9.583  0.00  0.00    +0.000 A 
ATOM      7  C   UNL     1      45.516   4.365   9.112  0.00  0.00    +0.000 A 
ATOM      8  N   UNL     1      45.077   5.442   9.867  0.00  0.00    +0.000 N 
ATOM      9  N   UNL     1      45.917   4.701   7.865  0.00  0.00    +0.000 NA
ATOM     10  C   UNL     1      46.456   3.735   7.085  0.00  0.00    +0.000 A 
ATOM     11  H   UNL     1      44.961   6.238   9.247  0.00  0.00    +0.000 HD
BRANCH   4  13
ATOM     12  N   UNL     1      48.204   1.935   5.730  0.00  0.00    +0.000 N 
ATOM     13  C   UNL     1      47.215   1.457   6.544  0.00  0.00    +0.000 C 
ATOM     14  O   UNL     1      46.893   0.279   6.520  0.00  0.00    +0.000 OA
ATOM     15  H   UNL     1      48.696   1.251   5.172  0.00  0.00    +0.000 HD
ATOM     16  H   UNL     1      48.669   2.818   5.904  0.00  0.00    +0.000 HD
ENDBRANCH   4  13
ENDBRANCH   1   8
BRANCH   1  17
ATOM     17  C   UNL     1      45.343   5.281  12.332  0.00  0.00    +0.000 A 
ATOM     18  C   UNL     1      45.461   4.089  13.048  0.00  0.00    +0.000 A 
ATOM     19  C   UNL     1      46.445   3.977  14.016  0.00  0.00    +0.000 A 
ATOM     20  N   UNL     1      47.308   4.966  14.333  0.00  0.00    +0.000 NA
ATOM     21  C   UNL     1      47.192   6.144  13.665  0.00  0.00    +0.000 A 
ATOM     22  C   UNL     1      46.219   6.320  12.681  0.00  0.00    +0.000 A 
BRANCH  21  23
ATOM     23  C   UNL     1      48.148   7.218  14.021  0.00  0.00    +0.000 A 
ATOM     24  C   UNL     1      47.776   8.561  14.042  0.00  0.00    +0.000 A 
ATOM     25  C   UNL     1      48.717   9.535  14.373  0.00  0.00    +0.000 A 
ATOM     26  C   UNL     1      50.019   9.150  14.669  0.00  0.00    +0.000 A 
ATOM     27  C   UNL     1      50.319   7.801  14.635  0.00  0.00    +0.000 A 
ATOM     28  N   UNL     1      49.425   6.835  14.324  0.00  0.00    +0.000 NA
ENDBRANCH  21  23
ENDBRANCH   1  17
TORSDOF 4
ENDMDL
MODEL 4
REMARK VINA RESULT:    -7.121      3.258      7.322
REMARK INTER + INTRA:          -9.582
REMARK INTER:                  -8.789
REMARK INTRA:                  -0.793
REMARK UNBOUND:                -0.796
REMARK  Name = 
REMARK  4 active torsions:
REMARK  status: ('A' for Active; 'I' for Inactive)
REMARK    1  A    between atoms: C_2  and  C_4
REMARK    2  A    between atoms: N_8  and  C_9
REMARK    3  A    between atoms: C_9  and  C_10
REMARK    4  A    between atoms: C_14  and  C_15
REMARK                            x       y       z     vdW  Elec       q    Type
REMARK                         _______ _______ _______ _____ _____    ______ ____
ROOT
ATOM      1  C   UNL     1      44.002   5.533  11.542  0.00  0.00    +0.000 C 
ATOM      2  C   UNL     1      42.642   6.208  11.422  0.00  0.00    +0.000 C 
ATOM      3  C   UNL     1      43.050   5.598  12.721  0.00  0.00    +0.000 C 
ENDROOT
BRANCH   1   8
ATOM      4  C   UNL     1      48.660   6.985  13.451  0.00  0.00    +0.000 A 
ATOM      5  C   UNL     1      47.708   6.131  14.004  0.00  0.00    +0.000 A 
ATOM      6  C   UNL     1      46.507   5.913  13.321  0.00  0.00    +0.000 A 
ATOM      7  C   UNL     1      46.296   6.533  12.095  0.00  0.00    +0.000 A 
ATOM      8  N   UNL     1      45.120   6.451  11.365  0.00  0.00    +0.000 N 
ATOM      9  N   UNL     1      47.225   7.345  11.544  0.00  0.00    +0.000 NA
ATOM     10  C   UNL     1      48.369   7.569  12.233  0.00  0.00    +0.000 A 
ATOM     11  H   UNL     1      45.284   6.868  10.453  0.00  0.00    +0.000 HD
BRANCH   4  13
ATOM     12  N   UNL     1      50.947   7.790  13.333  0.00  0.00    +0.000 N 
ATOM     13  C   UNL     1      49.929   7.330  14.120  0.00  0.00    +0.000 C 
ATOM     14  O   UNL     1      50.060   7.240  15.332  0.00  0.00    +0.000 OA
ATOM     15  H   UNL     1      51.774   8.117  13.813  0.00  0.00    +0.000 HD
ATOM     16  H   UNL     1      50.793   8.121  12.388  0.00  0.00    +0.000 HD
ENDBRANCH   4  13
ENDBRANCH   1   8
BRANCH   1  17
ATOM     17  C   UNL     1      44.239   4.176  10.899  0.00  0.00    +0.000 A 
ATOM     18  C   UNL     1      43.578   3.023  11.325  0.00  0.00    +0.000 A 
ATOM     19  C   UNL     1      43.734   1.850  10.605  0.00  0.00    +0.000 A 
ATOM     20  N   UNL     1      44.510   1.737   9.506  0.00  0.00    +0.000 NA
ATOM     21  C   UNL     1      45.183   2.842   9.091  0.00  0.00    +0.000 A 
ATOM     22  C   UNL     1      45.070   4.052   9.774  0.00  0.00    +0.000 A 
BRANCH  21  23
ATOM     23  C   UNL     1      46.027   2.703   7.881  0.00  0.00    +0.000 A 
ATOM     24  C   UNL     1      46.795   1.564   7.642  0.00  0.00    +0.000 A 
ATOM     25  C   UNL     1      47.580   1.488   6.493  0.00  0.00    +0.000 A 
ATOM     26  C   UNL     1      47.593   2.556   5.604  0.00  0.00    +0.000 A 
ATOM     27  C   UNL     1      46.804   3.653   5.900  0.00  0.00    +0.000 A 
ATOM     28  N   UNL     1      46.027   3.751   7.002  0.00  0.00    +0.000 NA
ENDBRANCH  21  23
ENDBRANCH   1  17
TORSDOF 4
ENDMDL
MODEL 5
REMARK VINA RESULT:    -6.927      3.178      7.617
REMARK INTER + INTRA:          -9.343
REMARK INTER:                  -9.611
REMARK INTRA:                   0.268
REMARK UNBOUND:                -0.796
REMARK  Name = 
REMARK  4 active torsions:
REMARK  status: ('A' for Active; 'I' for Inactive)
REMARK    1  A    between atoms: C_2  and  C_4
REMARK    2  A    between atoms: N_8  and  C_9
REMARK    3  A    between atoms: C_9  and  C_10
REMARK    4  A    between atoms: C_14  and  C_15
REMARK                            x       y       z     vdW  Elec       q    Type
REMARK                         _______ _______ _______ _____ _____    ______ ____
ROOT
ATOM      1  C   UNL     1      48.510   7.984  12.599  0.00  0.00    +0.000 C 
ATOM      2  C   UNL     1      49.683   7.599  11.707  0.00  0.00    +0.000 C 
ATOM      3  C   UNL     1      49.267   9.028  11.802  0.00  0.00    +0.000 C 
ENDROOT
BRANCH   1   8
ATOM      4  C   UNL     1      47.751   4.561  16.493  0.00  0.00    +0.000 A 
ATOM      5  C   UNL     1      47.196   4.579  15.214  0.00  0.00    +0.000 A 
ATOM      6  C   UNL     1      47.524   5.624  14.343  0.00  0.00    +0.000 A 
ATOM      7  C   UNL     1      48.412   6.608  14.760  0.00  0.00    +0.000 A 
ATOM      8  N   UNL     1      48.753   7.726  14.014  0.00  0.00    +0.000 N 
ATOM      9  N   UNL     1      48.969   6.582  15.991  0.00  0.00    +0.000 NA
ATOM     10  C   UNL     1      48.618   5.582  16.832  0.00  0.00    +0.000 A 
ATOM     11  H   UNL     1      49.521   8.197  14.483  0.00  0.00    +0.000 HD
BRANCH   4  13
ATOM     12  N   UNL     1      48.292   3.390  18.549  0.00  0.00    +0.000 N 
ATOM     13  C   UNL     1      47.421   3.540  17.507  0.00  0.00    +0.000 C 
ATOM     14  O   UNL     1      46.397   2.877  17.439  0.00  0.00    +0.000 OA
ATOM     15  H   UNL     1      48.006   2.762  19.286  0.00  0.00    +0.000 HD
ATOM     16  H   UNL     1      48.993   4.086  18.773  0.00  0.00    +0.000 HD
ENDBRANCH   4  13
ENDBRANCH   1   8
BRANCH   1  17
ATOM     17  C   UNL     1      47.088   7.660  12.172  0.00  0.00    +0.000 A 
ATOM     18  C   UNL     1      46.038   8.566  12.330  0.00  0.00    +0.000 A 
ATOM     19  C   UNL     1      44.798   8.263  11.792  0.00  0.00    +0.000 A 
ATOM     20  N   UNL     1      44.523   7.122  11.124  0.00  0.00    +0.000 NA
ATOM     21  C   UNL     1      45.526   6.216  10.983  0.00  0.00    +0.000 A 
ATOM     22  C   UNL     1      46.796   6.461  11.504  0.00  0.00    +0.000 A 
BRANCH  21  23
ATOM     23  C   UNL     1      45.211   4.971  10.243  0.00  0.00    +0.000 A 
ATOM     24  C   UNL     1      45.640   4.761   8.933  0.00  0.00    +0.000 A 
ATOM     25  C   UNL     1      45.307   3.577   8.278  0.00  0.00    +0.000 A 
ATOM     26  C   UNL     1      44.541   2.625   8.939  0.00  0.00    +0.000 A 
ATOM     27  C   UNL     1      44.153   2.895  10.238  0.00  0.00    +0.000 A 
ATOM     28  N   UNL     1      44.467   4.031  10.901  0.00  0.00    +0.000 NA
ENDBRANCH  21  23
ENDBRANCH   1  17
TORSDOF 4
ENDMDL
MODEL 6
REMARK VINA RESULT:    -6.688      3.920      8.481
REMARK INTER + INTRA:          -9.048
REMARK INTER:                  -8.379
REMARK INTRA:                  -0.669
REMARK UNBOUND:                -0.796
REMARK  Name = 
REMARK  4 active torsions:
REMARK  status: ('A' for Active; 'I' for Inactive)
REMARK    1  A    between atoms: C_2  and  C_4
REMARK    2  A    between atoms: N_8  and  C_9
REMARK    3  A    between atoms: C_9  and  C_10
REMARK    4  A    between atoms: C_14  and  C_15
REMARK                            x       y       z     vdW  Elec       q    Type
REMARK                         _______ _______ _______ _____ _____    ______ ____
ROOT
ATOM      1  C   UNL     1      48.221   4.830  17.330  0.00  0.00    +0.000 C 
ATOM      2  C   UNL     1      47.218   5.156  18.429  0.00  0.00    +0.000 C 
ATOM      3  C   UNL     1      47.145   3.840  17.730  0.00  0.00    +0.000 C 
ENDROOT
BRANCH   1   8
ATOM      4  C   UNL     1      52.418   1.721  17.743  0.00  0.00    +0.000 A 
ATOM      5  C   UNL     1      51.116   1.399  17.364  0.00  0.00    +0.000 A 
ATOM      6  C   UNL     1      50.139   2.401  17.358  0.00  0.00    +0.000 A 
ATOM      7  C   UNL     1      50.490   3.700  17.707  0.00  0.00    +0.000 A 
ATOM      8  N   UNL     1      49.597   4.755  17.808  0.00  0.00    +0.000 N 
ATOM      9  N   UNL     1      51.756   4.021  18.054  0.00  0.00    +0.000 NA
ATOM     10  C   UNL     1      52.682   3.034  18.085  0.00  0.00    +0.000 A 
ATOM     11  H   UNL     1      50.129   5.610  17.932  0.00  0.00    +0.000 HD
BRANCH   4  13
ATOM     12  N   UNL     1      53.183  -0.501  18.349  0.00  0.00    +0.000 N 
ATOM     13  C   UNL     1      53.504   0.727  17.844  0.00  0.00    +0.000 C 
ATOM     14  O   UNL     1      54.638   0.977  17.465  0.00  0.00    +0.000 OA
ATOM     15  H   UNL     1      53.909  -1.203  18.319  0.00  0.00    +0.000 HD
ATOM     16  H   UNL     1      52.225  -0.823  18.423  0.00  0.00    +0.000 HD
ENDBRANCH   4  13
ENDBRANCH   1   8
BRANCH   1  17
ATOM     17  C   UNL     1      48.101   5.493  15.967  0.00  0.00    +0.000 A 
ATOM     18  C   UNL     1      48.946   6.530  15.565  0.00  0.00    +0.000 A 
ATOM     19  C   UNL     1      48.875   6.991  14.262  0.00  0.00    +0.000 A 
ATOM     20  N   UNL     1      48.018   6.511  13.336  0.00  0.00    +0.000 NA
ATOM     21  C   UNL     1      47.169   5.520  13.715  0.00  0.00    +0.000 A 
ATOM     22  C   UNL     1      47.189   5.013  15.014  0.00  0.00    +0.000 A 
BRANCH  21  23
ATOM     23  C   UNL     1      46.238   4.999  12.687  0.00  0.00    +0.000 A 
ATOM     24  C   UNL     1      45.922   5.727  11.540  0.00  0.00    +0.000 A 
ATOM     25  C   UNL     1      45.032   5.197  10.608  0.00  0.00    +0.000 A 
ATOM     26  C   UNL     1      44.462   3.951  10.842  0.00  0.00    +0.000 A 
ATOM     27  C   UNL     1      44.823   3.281  11.997  0.00  0.00    +0.000 A 
ATOM     28  N   UNL     1      45.689   3.767  12.914  0.00  0.00    +0.000 NA
ENDBRANCH  21  23
ENDBRANCH   1  17
TORSDOF 4
ENDMDL
MODEL 7
REMARK VINA RESULT:    -6.438      3.676      5.243
REMARK INTER + INTRA:          -8.739
REMARK INTER:                  -7.898
REMARK INTRA:                  -0.841
REMARK UNBOUND:                -0.796
REMARK  Name = 
REMARK  4 active torsions:
REMARK  status: ('A' for Active; 'I' for Inactive)
REMARK    1  A    between atoms: C_2  and  C_4
REMARK    2  A    between atoms: N_8  and  C_9
REMARK    3  A    between atoms: C_9  and  C_10
REMARK    4  A    between atoms: C_14  and  C_15
REMARK                            x       y       z     vdW  Elec       q    Type
REMARK                         _______ _______ _______ _____ _____    ______ ____
ROOT
ATOM      1  C   UNL     1      48.792   8.390  12.606  0.00  0.00    +0.000 C 
ATOM      2  C   UNL     1      49.786   9.306  11.904  0.00  0.00    +0.000 C 
ATOM      3  C   UNL     1      49.925   7.826  11.771  0.00  0.00    +0.000 C 
ENDROOT
BRANCH   1   8
ATOM      4  C   UNL     1      44.349   5.812  11.573  0.00  0.00    +0.000 A 
ATOM      5  C   UNL     1      45.607   5.307  11.894  0.00  0.00    +0.000 A 
ATOM      6  C   UNL     1      46.668   6.196  12.099  0.00  0.00    +0.000 A 
ATOM      7  C   UNL     1      46.442   7.564  12.002  0.00  0.00    +0.000 A 
ATOM      8  N   UNL     1      47.427   8.533  12.112  0.00  0.00    +0.000 N 
ATOM      9  N   UNL     1      45.219   8.059  11.713  0.00  0.00    +0.000 NA
ATOM     10  C   UNL     1      44.211   7.185  11.487  0.00  0.00    +0.000 A 
ATOM     11  H   UNL     1      46.975   9.441  12.150  0.00  0.00    +0.000 HD
BRANCH   4  13
ATOM     12  N   UNL     1      41.953   5.432  11.641  0.00  0.00    +0.000 N 
ATOM     13  C   UNL     1      43.182   4.959  11.276  0.00  0.00    +0.000 C 
ATOM     14  O   UNL     1      43.301   3.888  10.700  0.00  0.00    +0.000 OA
ATOM     15  H   UNL     1      41.156   4.887  11.343  0.00  0.00    +0.000 HD
ATOM     16  H   UNL     1      41.794   6.405  11.873  0.00  0.00    +0.000 HD
ENDBRANCH   4  13
ENDBRANCH   1   8
BRANCH   1  17
ATOM     17  C   UNL     1      48.861   8.202  14.113  0.00  0.00    +0.000 A 
ATOM     18  C   UNL     1      48.685   9.261  15.005  0.00  0.00    +0.000 A 
ATOM     19  C   UNL     1      48.620   8.996  16.363  0.00  0.00    +0.000 A 
ATOM     20  N   UNL     1      48.733   7.761  16.898  0.00  0.00    +0.000 NA
ATOM     21  C   UNL     1      48.932   6.720  16.047  0.00  0.00    +0.000 A 
ATOM     22  C   UNL     1      49.009   6.922  14.669  0.00  0.00    +0.000 A 
BRANCH  21  23
ATOM     23  C   UNL     1      49.049   5.371  16.648  0.00  0.00    +0.000 A 
ATOM     24  C   UNL     1      47.939   4.553  16.849  0.00  0.00    +0.000 A 
ATOM     25  C   UNL     1      48.101   3.296  17.428  0.00  0.00    +0.000 A 
ATOM     26  C   UNL     1      49.372   2.880  17.807  0.00  0.00    +0.000 A 
ATOM     27  C   UNL     1      50.430   3.739  17.575  0.00  0.00    +0.000 A 
ATOM     28  N   UNL     1      50.303   4.960  17.008  0.00  0.00    +0.000 NA
ENDBRANCH  21  23
ENDBRANCH   1  17
TORSDOF 4
ENDMDL
MODEL 8
REMARK VINA RESULT:    -6.361      3.741      7.561
REMARK INTER + INTRA:          -8.644
REMARK INTER:                  -8.062
REMARK INTRA:                  -0.583
REMARK UNBOUND:                -0.796
REMARK  Name = 
REMARK  4 active torsions:
REMARK  status: ('A' for Active; 'I' for Inactive)
REMARK    1  A    between atoms: C_2  and  C_4
REMARK    2  A    between atoms: N_8  and  C_9
REMARK    3  A    between atoms: C_9  and  C_10
REMARK    4  A    between atoms: C_14  and  C_15
REMARK                            x       y       z     vdW  Elec       q    Type
REMARK                         _______ _______ _______ _____ _____    ______ ____
ROOT
ATOM      1  C   UNL     1      45.608   7.989  11.835  0.00  0.00    +0.000 C 
ATOM      2  C   UNL     1      45.009   9.313  11.378  0.00  0.00    +0.000 C 
ATOM      3  C   UNL     1      44.867   8.891  12.802  0.00  0.00    +0.000 C 
ENDROOT
BRANCH   1   8
ATOM      4  C   UNL     1      50.053   7.469  14.560  0.00  0.00    +0.000 A 
ATOM      5  C   UNL     1      48.751   7.651  15.023  0.00  0.00    +0.000 A 
ATOM      6  C   UNL     1      47.712   7.800  14.098  0.00  0.00    +0.000 A 
ATOM      7  C   UNL     1      47.994   7.742  12.738  0.00  0.00    +0.000 A 
ATOM      8  N   UNL     1      47.062   7.949  11.733  0.00  0.00    +0.000 N 
ATOM      9  N   UNL     1      49.252   7.544  12.285  0.00  0.00    +0.000 NA
ATOM     10  C   UNL     1      50.250   7.433  13.192  0.00  0.00    +0.000 A 
ATOM     11  H   UNL     1      47.494   7.705  10.846  0.00  0.00    +0.000 HD
BRANCH   4  13
ATOM     12  N   UNL     1      52.454   7.588  14.895  0.00  0.00    +0.000 N 
ATOM     13  C   UNL     1      51.225   7.366  15.451  0.00  0.00    +0.000 C 
ATOM     14  O   UNL     1      51.106   7.122  16.642  0.00  0.00    +0.000 OA
ATOM     15  H   UNL     1      53.237   7.614  15.534  0.00  0.00    +0.000 HD
ATOM     16  H   UNL     1      52.568   8.041  13.997  0.00  0.00    +0.000 HD
ENDBRANCH   4  13
ENDBRANCH   1   8
BRANCH   1  17
ATOM     17  C   UNL     1      44.948   6.677  11.443  0.00  0.00    +0.000 A 
ATOM     18  C   UNL     1      43.685   6.309  11.910  0.00  0.00    +0.000 A 
ATOM     19  C   UNL     1      43.084   5.169  11.404  0.00  0.00    +0.000 A 
ATOM     20  N   UNL     1      43.651   4.362  10.483  0.00  0.00    +0.000 NA
ATOM     21  C   UNL     1      44.892   4.689  10.035  0.00  0.00    +0.000 A 
ATOM     22  C   UNL     1      45.552   5.823  10.508  0.00  0.00    +0.000 A 
BRANCH  21  23
ATOM     23  C   UNL     1      45.500   3.796   9.020  0.00  0.00    +0.000 A 
ATOM     24  C   UNL     1      45.474   2.408   9.147  0.00  0.00    +0.000 A 
ATOM     25  C   UNL     1      46.069   1.613   8.170  0.00  0.00    +0.000 A 
ATOM     26  C   UNL     1      46.691   2.219   7.085  0.00  0.00    +0.000 A 
ATOM     27  C   UNL     1      46.676   3.600   7.019  0.00  0.00    +0.000 A 
ATOM     28  N   UNL     1      46.100   4.395   7.948  0.00  0.00    +0.000 NA
ENDBRANCH  21  23
ENDBRANCH   1  17
TORSDOF 4
ENDMDL
MODEL 9
REMARK VINA RESULT:    -6.327      4.090      8.568
REMARK INTER + INTRA:          -8.603
REMARK INTER:                  -7.809
REMARK INTRA:                  -0.794
REMARK UNBOUND:                -0.796
REMARK  Name = 
REMARK  4 active torsions:
REMARK  status: ('A' for Active; 'I' for Inactive)
REMARK    1  A    between atoms: C_2  and  C_4
REMARK    2  A    between atoms: N_8  and  C_9
REMARK    3  A    between atoms: C_9  and  C_10
REMARK    4  A    between atoms: C_14  and  C_15
REMARK                            x       y       z     vdW  Elec       q    Type
REMARK                         _______ _______ _______ _____ _____    ______ ____
ROOT
ATOM      1  C   UNL     1      48.975   7.954  12.802  0.00  0.00    +0.000 C 
ATOM      2  C   UNL     1      50.004   8.209  11.708  0.00  0.00    +0.000 C 
ATOM      3  C   UNL     1      49.557   9.336  12.578  0.00  0.00    +0.000 C 
ENDROOT
BRANCH   1   8
ATOM      4  C   UNL     1      49.027   7.042  17.961  0.00  0.00    +0.000 A 
ATOM      5  C   UNL     1      48.602   8.176  17.270  0.00  0.00    +0.000 A 
ATOM      6  C   UNL     1      48.715   8.208  15.876  0.00  0.00    +0.000 A 
ATOM      7  C   UNL     1      49.223   7.101  15.206  0.00  0.00    +0.000 A 
ATOM      8  N   UNL     1      49.448   7.045  13.839  0.00  0.00    +0.000 N 
ATOM      9  N   UNL     1      49.615   5.991  15.870  0.00  0.00    +0.000 NA
ATOM     10  C   UNL     1      49.530   5.989  17.221  0.00  0.00    +0.000 A 
ATOM     11  H   UNL     1      49.680   6.087  13.595  0.00  0.00    +0.000 HD
BRANCH   4  13
ATOM     12  N   UNL     1      47.790   6.821  20.038  0.00  0.00    +0.000 N 
ATOM     13  C   UNL     1      49.010   6.934  19.433  0.00  0.00    +0.000 C 
ATOM     14  O   UNL     1      50.043   6.915  20.086  0.00  0.00    +0.000 OA
ATOM     15  H   UNL     1      47.797   6.646  21.033  0.00  0.00    +0.000 HD
ATOM     16  H   UNL     1      46.953   6.572  19.526  0.00  0.00    +0.000 HD
ENDBRANCH   4  13
ENDBRANCH   1   8
BRANCH   1  17
ATOM     17  C   UNL     1      47.515   7.733  12.439  0.00  0.00    +0.000 A 
ATOM     18  C   UNL     1      46.537   8.703  12.662  0.00  0.00    +0.000 A 
ATOM     19  C   UNL     1      45.256   8.493  12.180  0.00  0.00    +0.000 A 
ATOM     20  N   UNL     1      44.874   7.386  11.508  0.00  0.00    +0.000 NA
ATOM     21  C   UNL     1      45.806   6.417  11.304  0.00  0.00    +0.000 A 
ATOM     22  C   UNL     1      47.113   6.568  11.767  0.00  0.00    +0.000 A 
BRANCH  21  23
ATOM     23  C   UNL     1      45.373   5.211  10.562  0.00  0.00    +0.000 A 
ATOM     24  C   UNL     1      45.607   5.061   9.195  0.00  0.00    +0.000 A 
ATOM     25  C   UNL     1      45.170   3.911   8.541  0.00  0.00    +0.000 A 
ATOM     26  C   UNL     1      44.497   2.932   9.261  0.00  0.00    +0.000 A 
ATOM     27  C   UNL     1      44.303   3.142  10.614  0.00  0.00    +0.000 A 
ATOM     28  N   UNL     1      44.722   4.244  11.276  0.00  0.00    +0.000 NA
ENDBRANCH  21  23
ENDBRANCH   1  17
TORSDOF 4
ENDMDL
