MODEL 1
REMARK VINA RESULT:    -9.236      0.000      0.000
REMARK INTER + INTRA:         -13.488
REMARK INTER:                 -12.476
REMARK INTRA:                  -1.012
REMARK UNBOUND:                -1.012
REMARK  Name = 
REMARK  8 active torsions:
REMARK  status: ('A' for Active; 'I' for Inactive)
REMARK    1  A    between atoms: C_1  and  C_2
REMARK    2  A    between atoms: C_4  and  C_5
REMARK    3  A    between atoms: C_5  and  C_6
REMARK    4  A    between atoms: C_5  and  N_7
REMARK    5  A    between atoms: C_8  and  C_10
REMARK    6  A    between atoms: C_22  and  C_23
REMARK    7  A    between atoms: C_23  and  O_24
REMARK    8  A    between atoms: O_24  and  C_25
REMARK                            x       y       z     vdW  Elec       q    Type
REMARK                         _______ _______ _______ _____ _____    ______ ____
ROOT
ATOM      1  C   UNL     1      46.668   7.633  12.860  0.00  0.00    +0.000 C 
ATOM      2  C   UNL     1      45.726   8.819  13.102  0.00  0.00    +0.000 C 
ENDROOT
BRANCH   1   6
ATOM      3  C   UNL     1      43.709   3.540  12.532  0.00  0.00    +0.000 C 
ATOM      4  C   UNL     1      44.601   4.535  11.841  0.00  0.00    +0.000 A 
ATOM      5  C   UNL     1      45.225   5.529  12.617  0.00  0.00    +0.000 A 
ATOM      6  C   UNL     1      46.042   6.516  12.043  0.00  0.00    +0.000 A 
ATOM      7  C   UNL     1      46.281   6.451  10.665  0.00  0.00    +0.000 A 
ATOM      8  C   UNL     1      45.672   5.469   9.882  0.00  0.00    +0.000 A 
ATOM      9  C   UNL     1      44.823   4.504  10.452  0.00  0.00    +0.000 A 
BRANCH   9  10
ATOM     10  C   UNL     1      44.174   3.483   9.539  0.00  0.00    +0.000 C 
BRANCH  10  11
ATOM     11  O   UNL     1      44.949   2.283   9.551  0.00  0.00    +0.000 OA
BRANCH  11  12
ATOM     12  C   UNL     1      45.718   2.140   8.410  0.00  0.00    +0.000 A 
ATOM     13  C   UNL     1      45.719   3.206   7.522  0.00  0.00    +0.000 A 
ATOM     14  C   UNL     1      46.490   3.103   6.367  0.00  0.00    +0.000 A 
ATOM     15  C   UNL     1      47.234   1.950   6.147  0.00  0.00    +0.000 A 
ATOM     16  C   UNL     1      47.170   0.939   7.092  0.00  0.00    +0.000 A 
ATOM     17  N   UNL     1      46.426   1.007   8.216  0.00  0.00    +0.000 NA
ENDBRANCH  11  12
ENDBRANCH  10  11
ENDBRANCH   9  10
ENDBRANCH   1   6
BRANCH   1  18
ATOM     18  N   UNL     1      47.134   7.129  14.137  0.00  0.00    +0.000 N 
ATOM     19  C   UNL     1      48.410   6.678  14.348  0.00  0.00    +0.000 C 
ATOM     20  O   UNL     1      49.261   6.669  13.462  0.00  0.00    +0.000 OA
ATOM     21  H   UNL     1      46.416   6.926  14.825  0.00  0.00    +0.000 HD
BRANCH  19  22
ATOM     22  C   UNL     1      48.738   6.273  15.723  0.00  0.00    +0.000 A 
ATOM     23  C   UNL     1      49.590   7.065  16.483  0.00  0.00    +0.000 A 
ATOM     24  S   UNL     1      49.844   6.480  18.063  0.00  0.00    +0.000 S 
ATOM     25  C   UNL     1      48.861   5.122  17.777  0.00  0.00    +0.000 A 
ATOM     26  N   UNL     1      48.677   4.179  18.739  0.00  0.00    +0.000 NA
ATOM     27  C   UNL     1      47.936   3.186  18.379  0.00  0.00    +0.000 A 
ATOM     28  N   UNL     1      47.347   3.058  17.147  0.00  0.00    +0.000 N 
ATOM     29  C   UNL     1      47.450   4.018  16.169  0.00  0.00    +0.000 A 
ATOM     30  O   UNL     1      46.814   3.926  15.124  0.00  0.00    +0.000 OA
ATOM     31  C   UNL     1      48.317   5.133  16.504  0.00  0.00    +0.000 A 
ATOM     32  H   UNL     1      46.754   2.270  16.938  0.00  0.00    +0.000 HD
ENDBRANCH  19  22
ENDBRANCH   1  18
TORSDOF 6
ENDMDL
MODEL 2
REMARK VINA RESULT:    -8.531      1.695      2.086
REMARK INTER + INTRA:         -12.535
REMARK INTER:                 -11.150
REMARK INTRA:                  -1.386
REMARK UNBOUND:                -1.012
REMARK  Name = 
REMARK  8 active torsions:
REMARK  status: ('A' for Active; 'I' for Inactive)
REMARK    1  A    between atoms: C_1  and  C_2
REMARK    2  A    between atoms: C_4  and  C_5
REMARK    3  A    between atoms: C_5  and  C_6
REMARK    4  A    between atoms: C_5  and  N_7
REMARK    5  A    between atoms: C_8  and  C_10
REMARK    6  A    between atoms: C_22  and  C_23
REMARK    7  A    between atoms: C_23  and  O_24
REMARK    8  A    between atoms: O_24  and  C_25
REMARK                            x       y       z     vdW  Elec       q    Type
REMARK                         _______ _______ _______ _____ _____    ______ ____
ROOT
ATOM      1  C   UNL     1      47.863   7.729  13.536  0.00  0.00    +0.000 C 
ATOM      2  C   UNL     1      47.698   9.226  13.246  0.00  0.00    +0.000 C 
ENDROOT
BRANCH   1   6
ATOM      3  C   UNL     1      45.666   3.223  12.837  0.00  0.00    +0.000 C 
ATOM      4  C   UNL     1      45.709   4.692  12.514  0.00  0.00    +0.000 A 
ATOM      5  C   UNL     1      46.725   5.476  13.090  0.00  0.00    +0.000 A 
ATOM      6  C   UNL     1      46.811   6.860  12.868  0.00  0.00    +0.000 A 
ATOM      7  C   UNL     1      45.888   7.444  11.993  0.00  0.00    +0.000 A 
ATOM      8  C   UNL     1      44.876   6.678  11.410  0.00  0.00    +0.000 A 
ATOM      9  C   UNL     1      44.767   5.300  11.663  0.00  0.00    +0.000 A 
BRANCH   9  10
ATOM     10  C   UNL     1      43.629   4.535  11.019  0.00  0.00    +0.000 C 
BRANCH  10  11
ATOM     11  O   UNL     1      43.670   4.734   9.605  0.00  0.00    +0.000 OA
BRANCH  11  12
ATOM     12  C   UNL     1      44.609   3.930   8.986  0.00  0.00    +0.000 A 
ATOM     13  C   UNL     1      44.589   2.582   9.314  0.00  0.00    +0.000 A 
ATOM     14  C   UNL     1      45.513   1.739   8.701  0.00  0.00    +0.000 A 
ATOM     15  C   UNL     1      46.412   2.268   7.784  0.00  0.00    +0.000 A 
ATOM     16  C   UNL     1      46.355   3.627   7.519  0.00  0.00    +0.000 A 
ATOM     17  N   UNL     1      45.476   4.470   8.103  0.00  0.00    +0.000 NA
ENDBRANCH  11  12
ENDBRANCH  10  11
ENDBRANCH   9  10
ENDBRANCH   1   6
BRANCH   1  18
ATOM     18  N   UNL     1      47.858   7.521  14.971  0.00  0.00    +0.000 N 
ATOM     19  C   UNL     1      48.913   6.982  15.657  0.00  0.00    +0.000 C 
ATOM     20  O   UNL     1      49.952   6.633  15.101  0.00  0.00    +0.000 OA
ATOM     21  H   UNL     1      46.956   7.599  15.429  0.00  0.00    +0.000 HD
BRANCH  19  22
ATOM     22  C   UNL     1      48.773   6.912  17.119  0.00  0.00    +0.000 A 
ATOM     23  C   UNL     1      48.600   8.083  17.846  0.00  0.00    +0.000 A 
ATOM     24  S   UNL     1      48.419   7.832  19.521  0.00  0.00    +0.000 S 
ATOM     25  C   UNL     1      48.608   6.151  19.344  0.00  0.00    +0.000 A 
ATOM     26  N   UNL     1      48.586   5.329  20.427  0.00  0.00    +0.000 NA
ATOM     27  C   UNL     1      48.774   4.081  20.155  0.00  0.00    +0.000 A 
ATOM     28  N   UNL     1      48.966   3.579  18.895  0.00  0.00    +0.000 N 
ATOM     29  C   UNL     1      48.929   4.362  17.766  0.00  0.00    +0.000 A 
ATOM     30  O   UNL     1      48.986   3.861  16.647  0.00  0.00    +0.000 OA
ATOM     31  C   UNL     1      48.772   5.782  18.020  0.00  0.00    +0.000 A 
ATOM     32  H   UNL     1      49.079   2.587  18.746  0.00  0.00    +0.000 HD
ENDBRANCH  19  22
ENDBRANCH   1  18
TORSDOF 6
ENDMDL
MODEL 3
REMARK VINA RESULT:    -8.487      1.729      2.173
REMARK INTER + INTRA:         -12.476
REMARK INTER:                 -11.636
REMARK INTRA:                  -0.840
REMARK UNBOUND:                -1.012
REMARK  Name = 
REMARK  8 active torsions:
REMARK  status: ('A' for Active; 'I' for Inactive)
REMARK    1  A    between atoms: C_1  and  C_2
REMARK    2  A    between atoms: C_4  and  C_5
REMARK    3  A    between atoms: C_5  and  C_6
REMARK    4  A    between atoms: C_5  and  N_7
REMARK    5  A    between atoms: C_8  and  C_10
REMARK    6  A    between atoms: C_22  and  C_23
REMARK    7  A    between atoms: C_23  and  O_24
REMARK    8  A    between atoms: O_24  and  C_25
REMARK                            x       y       z     vdW  Elec       q    Type
REMARK                         _______ _______ _______ _____ _____    ______ ____
ROOT
ATOM      1  C   UNL     1      47.475   7.018  13.486  0.00  0.00    +0.000 C 
ATOM      2  C   UNL     1      46.970   8.454  13.666  0.00  0.00    +0.000 C 
ENDROOT
BRANCH   1   6
ATOM      3  C   UNL     1      44.142   3.318  12.577  0.00  0.00    +0.000 C 
ATOM      4  C   UNL     1      45.014   4.419  12.037  0.00  0.00    +0.000 A 
ATOM      5  C   UNL     1      45.828   5.133  12.936  0.00  0.00    +0.000 A 
ATOM      6  C   UNL     1      46.641   6.197  12.516  0.00  0.00    +0.000 A 
ATOM      7  C   UNL     1      46.677   6.499  11.150  0.00  0.00    +0.000 A 
ATOM      8  C   UNL     1      45.877   5.798  10.245  0.00  0.00    +0.000 A 
ATOM      9  C   UNL     1      45.034   4.757  10.671  0.00  0.00    +0.000 A 
BRANCH   9  10
ATOM     10  C   UNL     1      44.173   4.056   9.640  0.00  0.00    +0.000 C 
BRANCH  10  11
ATOM     11  O   UNL     1      44.568   2.686   9.551  0.00  0.00    +0.000 OA
BRANCH  11  12
ATOM     12  C   UNL     1      45.449   2.456   8.511  0.00  0.00    +0.000 A 
ATOM     13  C   UNL     1      45.609   3.483   7.592  0.00  0.00    +0.000 A 
ATOM     14  C   UNL     1      46.497   3.293   6.536  0.00  0.00    +0.000 A 
ATOM     15  C   UNL     1      47.194   2.095   6.441  0.00  0.00    +0.000 A 
ATOM     16  C   UNL     1      46.968   1.128   7.407  0.00  0.00    +0.000 A 
ATOM     17  N   UNL     1      46.109   1.281   8.437  0.00  0.00    +0.000 NA
ENDBRANCH  11  12
ENDBRANCH  10  11
ENDBRANCH   9  10
ENDBRANCH   1   6
BRANCH   1  18
ATOM     18  N   UNL     1      47.533   6.369  14.782  0.00  0.00    +0.000 N 
ATOM     19  C   UNL     1      48.684   6.255  15.515  0.00  0.00    +0.000 C 
ATOM     20  O   UNL     1      49.761   6.700  15.125  0.00  0.00    +0.000 OA
ATOM     21  H   UNL     1      46.724   5.814  15.039  0.00  0.00    +0.000 HD
BRANCH  19  22
ATOM     22  C   UNL     1      48.551   5.637  16.843  0.00  0.00    +0.000 A 
ATOM     23  C   UNL     1      48.703   4.262  16.974  0.00  0.00    +0.000 A 
ATOM     24  S   UNL     1      48.555   3.705  18.577  0.00  0.00    +0.000 S 
ATOM     25  C   UNL     1      48.238   5.274  19.151  0.00  0.00    +0.000 A 
ATOM     26  N   UNL     1      47.984   5.498  20.468  0.00  0.00    +0.000 NA
ATOM     27  C   UNL     1      47.727   6.728  20.762  0.00  0.00    +0.000 A 
ATOM     28  N   UNL     1      47.718   7.759  19.859  0.00  0.00    +0.000 N 
ATOM     29  C   UNL     1      48.034   7.592  18.532  0.00  0.00    +0.000 A 
ATOM     30  O   UNL     1      48.130   8.556  17.778  0.00  0.00    +0.000 OA
ATOM     31  C   UNL     1      48.280   6.217  18.138  0.00  0.00    +0.000 A 
ATOM     32  H   UNL     1      47.538   8.706  20.158  0.00  0.00    +0.000 HD
ENDBRANCH  19  22
ENDBRANCH   1  18
TORSDOF 6
ENDMDL
MODEL 4
REMARK VINA RESULT:    -8.005      2.202      2.809
REMARK INTER + INTRA:         -11.825
REMARK INTER:                 -10.270
REMARK INTRA:                  -1.554
REMARK UNBOUND:                -1.012
REMARK  Name = 
REMARK  8 active torsions:
REMARK  status: ('A' for Active; 'I' for Inactive)
REMARK    1  A    between atoms: C_1  and  C_2
REMARK    2  A    between atoms: C_4  and  C_5
REMARK    3  A    between atoms: C_5  and  C_6
REMARK    4  A    between atoms: C_5  and  N_7
REMARK    5  A    between atoms: C_8  and  C_10
REMARK    6  A    between atoms: C_22  and  C_23
REMARK    7  A    between atoms: C_23  and  O_24
REMARK    8  A    between atoms: O_24  and  C_25
REMARK                            x       y       z     vdW  Elec       q    Type
REMARK                         _______ _______ _______ _____ _____    ______ ____
ROOT
ATOM      1  C   UNL     1      48.033   7.299  13.511  0.00  0.00    +0.000 C 
ATOM      2  C   UNL     1      47.962   8.823  13.352  0.00  0.00    +0.000 C 
ENDROOT
BRANCH   1   6
ATOM      3  C   UNL     1      45.445   3.046  12.604  0.00  0.00    +0.000 C 
ATOM      4  C   UNL     1      45.620   4.518  12.350  0.00  0.00    +0.000 A 
ATOM      5  C   UNL     1      46.700   5.181  12.962  0.00  0.00    +0.000 A 
ATOM      6  C   UNL     1      46.911   6.560  12.804  0.00  0.00    +0.000 A 
ATOM      7  C   UNL     1      46.047   7.264  11.957  0.00  0.00    +0.000 A 
ATOM      8  C   UNL     1      44.973   6.620  11.340  0.00  0.00    +0.000 A 
ATOM      9  C   UNL     1      44.740   5.247  11.529  0.00  0.00    +0.000 A 
BRANCH   9  10
ATOM     10  C   UNL     1      43.541   4.618  10.850  0.00  0.00    +0.000 C 
BRANCH  10  11
ATOM     11  O   UNL     1      43.688   4.733   9.434  0.00  0.00    +0.000 OA
BRANCH  11  12
ATOM     12  C   UNL     1      44.571   3.803   8.917  0.00  0.00    +0.000 A 
ATOM     13  C   UNL     1      45.553   4.284   8.063  0.00  0.00    +0.000 A 
ATOM     14  C   UNL     1      46.468   3.378   7.532  0.00  0.00    +0.000 A 
ATOM     15  C   UNL     1      46.374   2.036   7.877  0.00  0.00    +0.000 A 
ATOM     16  C   UNL     1      45.359   1.650   8.738  0.00  0.00    +0.000 A 
ATOM     17  N   UNL     1      44.454   2.503   9.262  0.00  0.00    +0.000 NA
ENDBRANCH  11  12
ENDBRANCH  10  11
ENDBRANCH   9  10
ENDBRANCH   1   6
BRANCH   1  18
ATOM     18  N   UNL     1      48.048   6.971  14.924  0.00  0.00    +0.000 N 
ATOM     19  C   UNL     1      49.199   6.762  15.636  0.00  0.00    +0.000 C 
ATOM     20  O   UNL     1      50.314   6.841  15.126  0.00  0.00    +0.000 OA
ATOM     21  H   UNL     1      47.159   6.694  15.327  0.00  0.00    +0.000 HD
BRANCH  19  22
ATOM     22  C   UNL     1      49.038   6.514  17.077  0.00  0.00    +0.000 A 
ATOM     23  C   UNL     1      49.452   5.300  17.611  0.00  0.00    +0.000 A 
ATOM     24  S   UNL     1      49.229   5.180  19.296  0.00  0.00    +0.000 S 
ATOM     25  C   UNL     1      48.530   6.729  19.369  0.00  0.00    +0.000 A 
ATOM     26  N   UNL     1      48.079   7.236  20.547  0.00  0.00    +0.000 NA
ATOM     27  C   UNL     1      47.542   8.406  20.455  0.00  0.00    +0.000 A 
ATOM     28  N   UNL     1      47.429   9.123  19.291  0.00  0.00    +0.000 N 
ATOM     29  C   UNL     1      47.931   8.679  18.091  0.00  0.00    +0.000 A 
ATOM     30  O   UNL     1      47.917   9.398  17.096  0.00  0.00    +0.000 OA
ATOM     31  C   UNL     1      48.499   7.345  18.129  0.00  0.00    +0.000 A 
ATOM     32  H   UNL     1      47.024  10.047  19.291  0.00  0.00    +0.000 HD
ENDBRANCH  19  22
ENDBRANCH   1  18
TORSDOF 6
ENDMDL
MODEL 5
REMARK VINA RESULT:    -7.899      2.494      3.392
REMARK INTER + INTRA:         -11.682
REMARK INTER:                 -10.593
REMARK INTRA:                  -1.089
REMARK UNBOUND:                -1.012
REMARK  Name = 
REMARK  8 active torsions:
REMARK  status: ('A' for Active; 'I' for Inactive)
REMARK    1  A    between atoms: C_1  and  C_2
REMARK    2  A    between atoms: C_4  and  C_5
REMARK    3  A    between atoms: C_5  and  C_6
REMARK    4  A    between atoms: C_5  and  N_7
REMARK    5  A    between atoms: C_8  and  C_10
REMARK    6  A    between atoms: C_22  and  C_23
REMARK    7  A    between atoms: C_23  and  O_24
REMARK    8  A    between atoms: O_24  and  C_25
REMARK                            x       y       z     vdW  Elec       q    Type
REMARK                         _______ _______ _______ _____ _____    ______ ____
ROOT
ATOM      1  C   UNL     1      48.265   6.327  14.272  0.00  0.00    +0.000 C 
ATOM      2  C   UNL     1      48.690   7.742  13.860  0.00  0.00    +0.000 C 
ENDROOT
BRANCH   1   6
ATOM      3  C   UNL     1      44.170   7.195  11.427  0.00  0.00    +0.000 C 
ATOM      4  C   UNL     1      45.044   6.205  12.145  0.00  0.00    +0.000 A 
ATOM      5  C   UNL     1      46.148   6.687  12.872  0.00  0.00    +0.000 A 
ATOM      6  C   UNL     1      47.033   5.824  13.538  0.00  0.00    +0.000 A 
ATOM      7  C   UNL     1      46.754   4.453  13.519  0.00  0.00    +0.000 A 
ATOM      8  C   UNL     1      45.661   3.959  12.805  0.00  0.00    +0.000 A 
ATOM      9  C   UNL     1      44.797   4.820  12.106  0.00  0.00    +0.000 A 
BRANCH   9  10
ATOM     10  C   UNL     1      43.645   4.214  11.330  0.00  0.00    +0.000 C 
BRANCH  10  11
ATOM     11  O   UNL     1      43.717   4.645   9.969  0.00  0.00    +0.000 OA
BRANCH  11  12
ATOM     12  C   UNL     1      44.616   3.901   9.227  0.00  0.00    +0.000 A 
ATOM     13  C   UNL     1      44.598   2.527   9.421  0.00  0.00    +0.000 A 
ATOM     14  C   UNL     1      45.482   1.743   8.683  0.00  0.00    +0.000 A 
ATOM     15  C   UNL     1      46.339   2.356   7.777  0.00  0.00    +0.000 A 
ATOM     16  C   UNL     1      46.283   3.734   7.651  0.00  0.00    +0.000 A 
ATOM     17  N   UNL     1      45.444   4.520   8.359  0.00  0.00    +0.000 NA
ENDBRANCH  11  12
ENDBRANCH  10  11
ENDBRANCH   9  10
ENDBRANCH   1   6
BRANCH   1  18
ATOM     18  N   UNL     1      48.051   6.296  15.706  0.00  0.00    +0.000 N 
ATOM     19  C   UNL     1      49.015   5.919  16.602  0.00  0.00    +0.000 C 
ATOM     20  O   UNL     1      50.144   5.580  16.254  0.00  0.00    +0.000 OA
ATOM     21  H   UNL     1      47.087   6.365  16.014  0.00  0.00    +0.000 HD
BRANCH  19  22
ATOM     22  C   UNL     1      48.656   6.018  18.025  0.00  0.00    +0.000 A 
ATOM     23  C   UNL     1      48.762   4.895  18.836  0.00  0.00    +0.000 A 
ATOM     24  S   UNL     1      48.342   5.180  20.462  0.00  0.00    +0.000 S 
ATOM     25  C   UNL     1      47.961   6.805  20.136  0.00  0.00    +0.000 A 
ATOM     26  N   UNL     1      47.498   7.623  21.118  0.00  0.00    +0.000 NA
ATOM     27  C   UNL     1      47.217   8.821  20.727  0.00  0.00    +0.000 A 
ATOM     28  N   UNL     1      47.374   9.279  19.445  0.00  0.00    +0.000 N 
ATOM     29  C   UNL     1      47.901   8.509  18.437  0.00  0.00    +0.000 A 
ATOM     30  O   UNL     1      48.136   8.988  17.332  0.00  0.00    +0.000 OA
ATOM     31  C   UNL     1      48.185   7.136  18.811  0.00  0.00    +0.000 A 
ATOM     32  H   UNL     1      47.163  10.238  19.210  0.00  0.00    +0.000 HD
ENDBRANCH  19  22
ENDBRANCH   1  18
TORSDOF 6
ENDMDL
MODEL 6
REMARK VINA RESULT:    -7.631      2.397      4.102
REMARK INTER + INTRA:         -11.320
REMARK INTER:                 -10.079
REMARK INTRA:                  -1.241
REMARK UNBOUND:                -1.012
REMARK  Name = 
REMARK  8 active torsions:
REMARK  status: ('A' for Active; 'I' for Inactive)
REMARK    1  A    between atoms: C_1  and  C_2
REMARK    2  A    between atoms: C_4  and  C_5
REMARK    3  A    between atoms: C_5  and  C_6
REMARK    4  A    between atoms: C_5  and  N_7
REMARK    5  A    between atoms: C_8  and  C_10
REMARK    6  A    between atoms: C_22  and  C_23
REMARK    7  A    between atoms: C_23  and  O_24
REMARK    8  A    between atoms: O_24  and  C_25
REMARK                            x       y       z     vdW  Elec       q    Type
REMARK                         _______ _______ _______ _____ _____    ______ ____
ROOT
ATOM      1  C   UNL     1      47.126   5.115  15.044  0.00  0.00    +0.000 C 
ATOM      2  C   UNL     1      47.534   3.870  15.841  0.00  0.00    +0.000 C 
ENDROOT
BRANCH   1   6
ATOM      3  C   UNL     1      44.106   6.616  11.271  0.00  0.00    +0.000 C 
ATOM      4  C   UNL     1      44.840   5.496  11.957  0.00  0.00    +0.000 A 
ATOM      5  C   UNL     1      45.556   5.784  13.133  0.00  0.00    +0.000 A 
ATOM      6  C   UNL     1      46.296   4.803  13.811  0.00  0.00    +0.000 A 
ATOM      7  C   UNL     1      46.254   3.492  13.321  0.00  0.00    +0.000 A 
ATOM      8  C   UNL     1      45.545   3.190  12.157  0.00  0.00    +0.000 A 
ATOM      9  C   UNL     1      44.836   4.181  11.457  0.00  0.00    +0.000 A 
BRANCH   9  10
ATOM     10  C   UNL     1      44.110   3.788  10.186  0.00  0.00    +0.000 C 
BRANCH  10  11
ATOM     11  O   UNL     1      44.471   2.452   9.832  0.00  0.00    +0.000 OA
BRANCH  11  12
ATOM     12  C   UNL     1      45.340   2.408   8.758  0.00  0.00    +0.000 A 
ATOM     13  C   UNL     1      45.450   3.562   7.996  0.00  0.00    +0.000 A 
ATOM     14  C   UNL     1      46.324   3.559   6.912  0.00  0.00    +0.000 A 
ATOM     15  C   UNL     1      47.058   2.412   6.634  0.00  0.00    +0.000 A 
ATOM     16  C   UNL     1      46.882   1.308   7.452  0.00  0.00    +0.000 A 
ATOM     17  N   UNL     1      46.037   1.279   8.505  0.00  0.00    +0.000 NA
ENDBRANCH  11  12
ENDBRANCH  10  11
ENDBRANCH   9  10
ENDBRANCH   1   6
BRANCH   1  18
ATOM     18  N   UNL     1      48.318   5.856  14.681  0.00  0.00    +0.000 N 
ATOM     19  C   UNL     1      48.934   6.748  15.519  0.00  0.00    +0.000 C 
ATOM     20  O   UNL     1      48.519   6.984  16.651  0.00  0.00    +0.000 OA
ATOM     21  H   UNL     1      48.566   5.848  13.698  0.00  0.00    +0.000 HD
BRANCH  19  22
ATOM     22  C   UNL     1      50.177   7.357  15.022  0.00  0.00    +0.000 A 
ATOM     23  C   UNL     1      51.329   7.287  15.796  0.00  0.00    +0.000 A 
ATOM     24  S   UNL     1      52.690   8.009  15.068  0.00  0.00    +0.000 S 
ATOM     25  C   UNL     1      51.781   8.480  13.709  0.00  0.00    +0.000 A 
ATOM     26  N   UNL     1      52.354   9.183  12.696  0.00  0.00    +0.000 NA
ATOM     27  C   UNL     1      51.545   9.504  11.744  0.00  0.00    +0.000 A 
ATOM     28  N   UNL     1      50.216   9.172  11.705  0.00  0.00    +0.000 N 
ATOM     29  C   UNL     1      49.610   8.406  12.673  0.00  0.00    +0.000 A 
ATOM     30  O   UNL     1      48.449   8.029  12.545  0.00  0.00    +0.000 OA
ATOM     31  C   UNL     1      50.464   8.062  13.794  0.00  0.00    +0.000 A 
ATOM     32  H   UNL     1      49.642   9.429  10.916  0.00  0.00    +0.000 HD
ENDBRANCH  19  22
ENDBRANCH   1  18
TORSDOF 6
ENDMDL
MODEL 7
REMARK VINA RESULT:    -7.563      3.396      8.105
REMARK INTER + INTRA:         -11.228
REMARK INTER:                  -9.957
REMARK INTRA:                  -1.271
REMARK UNBOUND:                -1.012
REMARK  Name = 
REMARK  8 active torsions:
REMARK  status: ('A' for Active; 'I' for Inactive)
REMARK    1  A    between atoms: C_1  and  C_2
REMARK    2  A    between atoms: C_4  and  C_5
REMARK    3  A    between atoms: C_5  and  C_6
REMARK    4  A    between atoms: C_5  and  N_7
REMARK    5  A    between atoms: C_8  and  C_10
REMARK    6  A    between atoms: C_22  and  C_23
REMARK    7  A    between atoms: C_23  and  O_24
REMARK    8  A    between atoms: O_24  and  C_25
REMARK                            x       y       z     vdW  Elec       q    Type
REMARK                         _______ _______ _______ _____ _____    ______ ____
ROOT
ATOM      1  C   UNL     1      48.263   7.219  13.149  0.00  0.00    +0.000 C 
ATOM      2  C   UNL     1      49.481   7.624  12.310  0.00  0.00    +0.000 C 
ENDROOT
BRANCH   1   6
ATOM      3  C   UNL     1      47.348   4.052  16.989  0.00  0.00    +0.000 C 
ATOM      4  C   UNL     1      48.221   5.120  16.390  0.00  0.00    +0.000 A 
ATOM      5  C   UNL     1      47.844   5.680  15.155  0.00  0.00    +0.000 A 
ATOM      6  C   UNL     1      48.624   6.655  14.512  0.00  0.00    +0.000 A 
ATOM      7  C   UNL     1      49.772   7.115  15.168  0.00  0.00    +0.000 A 
ATOM      8  C   UNL     1      50.157   6.573  16.395  0.00  0.00    +0.000 A 
ATOM      9  C   UNL     1      49.396   5.569  17.020  0.00  0.00    +0.000 A 
BRANCH   9  10
ATOM     10  C   UNL     1      49.886   5.006  18.338  0.00  0.00    +0.000 C 
BRANCH  10  11
ATOM     11  O   UNL     1      51.309   4.885  18.298  0.00  0.00    +0.000 OA
BRANCH  11  12
ATOM     12  C   UNL     1      51.723   3.580  18.105  0.00  0.00    +0.000 A 
ATOM     13  C   UNL     1      50.798   2.709  17.546  0.00  0.00    +0.000 A 
ATOM     14  C   UNL     1      51.182   1.388  17.326  0.00  0.00    +0.000 A 
ATOM     15  C   UNL     1      52.470   0.990  17.664  0.00  0.00    +0.000 A 
ATOM     16  C   UNL     1      53.323   1.931  18.217  0.00  0.00    +0.000 A 
ATOM     17  N   UNL     1      52.977   3.215  18.448  0.00  0.00    +0.000 NA
ENDBRANCH  11  12
ENDBRANCH  10  11
ENDBRANCH   9  10
ENDBRANCH   1   6
BRANCH   1  18
ATOM     18  N   UNL     1      47.466   6.267  12.399  0.00  0.00    +0.000 N 
ATOM     19  C   UNL     1      46.335   6.612  11.709  0.00  0.00    +0.000 C 
ATOM     20  O   UNL     1      45.910   7.764  11.672  0.00  0.00    +0.000 OA
ATOM     21  H   UNL     1      47.661   5.287  12.574  0.00  0.00    +0.000 HD
BRANCH  19  22
ATOM     22  C   UNL     1      45.689   5.538  10.939  0.00  0.00    +0.000 A 
ATOM     23  C   UNL     1      45.749   5.562   9.551  0.00  0.00    +0.000 A 
ATOM     24  S   UNL     1      44.984   4.233   8.808  0.00  0.00    +0.000 S 
ATOM     25  C   UNL     1      44.505   3.599  10.311  0.00  0.00    +0.000 A 
ATOM     26  N   UNL     1      43.770   2.457  10.384  0.00  0.00    +0.000 NA
ATOM     27  C   UNL     1      43.447   2.105  11.583  0.00  0.00    +0.000 A 
ATOM     28  N   UNL     1      43.807   2.784  12.719  0.00  0.00    +0.000 N 
ATOM     29  C   UNL     1      44.605   3.902  12.697  0.00  0.00    +0.000 A 
ATOM     30  O   UNL     1      45.005   4.414  13.739  0.00  0.00    +0.000 OA
ATOM     31  C   UNL     1      44.954   4.371  11.369  0.00  0.00    +0.000 A 
ATOM     32  H   UNL     1      43.547   2.439  13.630  0.00  0.00    +0.000 HD
ENDBRANCH  19  22
ENDBRANCH   1  18
TORSDOF 6
ENDMDL
MODEL 8
REMARK VINA RESULT:    -7.525      2.772      3.853
REMARK INTER + INTRA:         -11.177
REMARK INTER:                 -10.194
REMARK INTRA:                  -0.983
REMARK UNBOUND:                -1.012
REMARK  Name = 
REMARK  8 active torsions:
REMARK  status: ('A' for Active; 'I' for Inactive)
REMARK    1  A    between atoms: C_1  and  C_2
REMARK    2  A    between atoms: C_4  and  C_5
REMARK    3  A    between atoms: C_5  and  C_6
REMARK    4  A    between atoms: C_5  and  N_7
REMARK    5  A    between atoms: C_8  and  C_10
REMARK    6  A    between atoms: C_22  and  C_23
REMARK    7  A    between atoms: C_23  and  O_24
REMARK    8  A    between atoms: O_24  and  C_25
REMARK                            x       y       z     vdW  Elec       q    Type
REMARK                         _______ _______ _______ _____ _____    ______ ____
ROOT
ATOM      1  C   UNL     1      47.004   5.947  14.180  0.00  0.00    +0.000 C 
ATOM      2  C   UNL     1      47.372   4.859  15.196  0.00  0.00    +0.000 C 
ENDROOT
BRANCH   1   6
ATOM      3  C   UNL     1      43.608   2.817  12.109  0.00  0.00    +0.000 C 
ATOM      4  C   UNL     1      44.609   3.925  11.925  0.00  0.00    +0.000 A 
ATOM      5  C   UNL     1      45.336   4.366  13.046  0.00  0.00    +0.000 A 
ATOM      6  C   UNL     1      46.261   5.419  12.965  0.00  0.00    +0.000 A 
ATOM      7  C   UNL     1      46.499   5.990  11.709  0.00  0.00    +0.000 A 
ATOM      8  C   UNL     1      45.788   5.561  10.586  0.00  0.00    +0.000 A 
ATOM      9  C   UNL     1      44.834   4.533  10.676  0.00  0.00    +0.000 A 
BRANCH   9  10
ATOM     10  C   UNL     1      44.080   4.136   9.423  0.00  0.00    +0.000 C 
BRANCH  10  11
ATOM     11  O   UNL     1      44.274   2.741   9.180  0.00  0.00    +0.000 OA
BRANCH  11  12
ATOM     12  C   UNL     1      45.348   2.496   8.345  0.00  0.00    +0.000 A 
ATOM     13  C   UNL     1      45.721   3.522   7.489  0.00  0.00    +0.000 A 
ATOM     14  C   UNL     1      46.806   3.316   6.641  0.00  0.00    +0.000 A 
ATOM     15  C   UNL     1      47.480   2.102   6.684  0.00  0.00    +0.000 A 
ATOM     16  C   UNL     1      47.036   1.137   7.573  0.00  0.00    +0.000 A 
ATOM     17  N   UNL     1      45.983   1.305   8.401  0.00  0.00    +0.000 NA
ENDBRANCH  11  12
ENDBRANCH  10  11
ENDBRANCH   9  10
ENDBRANCH   1   6
BRANCH   1  18
ATOM     18  N   UNL     1      48.209   6.645  13.776  0.00  0.00    +0.000 N 
ATOM     19  C   UNL     1      48.354   8.005  13.856  0.00  0.00    +0.000 C 
ATOM     20  O   UNL     1      47.466   8.739  14.283  0.00  0.00    +0.000 OA
ATOM     21  H   UNL     1      48.874   6.107  13.231  0.00  0.00    +0.000 HD
BRANCH  19  22
ATOM     22  C   UNL     1      49.669   8.543  13.477  0.00  0.00    +0.000 A 
ATOM     23  C   UNL     1      49.753   9.490  12.463  0.00  0.00    +0.000 A 
ATOM     24  S   UNL     1      51.338  10.038  12.165  0.00  0.00    +0.000 S 
ATOM     25  C   UNL     1      51.979   8.999  13.349  0.00  0.00    +0.000 A 
ATOM     26  N   UNL     1      53.317   8.950  13.584  0.00  0.00    +0.000 NA
ATOM     27  C   UNL     1      53.671   8.095  14.485  0.00  0.00    +0.000 A 
ATOM     28  N   UNL     1      52.804   7.296  15.184  0.00  0.00    +0.000 N 
ATOM     29  C   UNL     1      51.440   7.359  15.028  0.00  0.00    +0.000 A 
ATOM     30  O   UNL     1      50.690   6.714  15.754  0.00  0.00    +0.000 OA
ATOM     31  C   UNL     1      50.992   8.268  13.989  0.00  0.00    +0.000 A 
ATOM     32  H   UNL     1      53.142   6.668  15.897  0.00  0.00    +0.000 HD
ENDBRANCH  19  22
ENDBRANCH   1  18
TORSDOF 6
ENDMDL
MODEL 9
REMARK VINA RESULT:    -7.525      2.428      3.809
REMARK INTER + INTRA:         -11.177
REMARK INTER:                  -9.860
REMARK INTRA:                  -1.317
REMARK UNBOUND:                -1.012
REMARK  Name = 
REMARK  8 active torsions:
REMARK  status: ('A' for Active; 'I' for Inactive)
REMARK    1  A    between atoms: C_1  and  C_2
REMARK    2  A    between atoms: C_4  and  C_5
REMARK    3  A    between atoms: C_5  and  C_6
REMARK    4  A    between atoms: C_5  and  N_7
REMARK    5  A    between atoms: C_8  and  C_10
REMARK    6  A    between atoms: C_22  and  C_23
REMARK    7  A    between atoms: C_23  and  O_24
REMARK    8  A    between atoms: O_24  and  C_25
REMARK                            x       y       z     vdW  Elec       q    Type
REMARK                         _______ _______ _______ _____ _____    ______ ____
ROOT
ATOM      1  C   UNL     1      47.163   4.322  15.724  0.00  0.00    +0.000 C 
ATOM      2  C   UNL     1      47.891   2.972  15.743  0.00  0.00    +0.000 C 
ENDROOT
BRANCH   1   6
ATOM      3  C   UNL     1      47.734   7.338  11.700  0.00  0.00    +0.000 C 
ATOM      4  C   UNL     1      46.997   6.202  12.356  0.00  0.00    +0.000 A 
ATOM      5  C   UNL     1      47.356   5.838  13.668  0.00  0.00    +0.000 A 
ATOM      6  C   UNL     1      46.741   4.766  14.335  0.00  0.00    +0.000 A 
ATOM      7  C   UNL     1      45.700   4.095  13.682  0.00  0.00    +0.000 A 
ATOM      8  C   UNL     1      45.331   4.447  12.383  0.00  0.00    +0.000 A 
ATOM      9  C   UNL     1      45.972   5.495  11.701  0.00  0.00    +0.000 A 
BRANCH   9  10
ATOM     10  C   UNL     1      45.539   5.807  10.282  0.00  0.00    +0.000 C 
BRANCH  10  11
ATOM     11  O   UNL     1      44.714   4.745   9.799  0.00  0.00    +0.000 OA
BRANCH  11  12
ATOM     12  C   UNL     1      45.386   3.910   8.927  0.00  0.00    +0.000 A 
ATOM     13  C   UNL     1      45.287   2.547   9.168  0.00  0.00    +0.000 A 
ATOM     14  C   UNL     1      45.942   1.673   8.303  0.00  0.00    +0.000 A 
ATOM     15  C   UNL     1      46.660   2.189   7.231  0.00  0.00    +0.000 A 
ATOM     16  C   UNL     1      46.700   3.564   7.070  0.00  0.00    +0.000 A 
ATOM     17  N   UNL     1      46.082   4.436   7.896  0.00  0.00    +0.000 NA
ENDBRANCH  11  12
ENDBRANCH  10  11
ENDBRANCH   9  10
ENDBRANCH   1   6
BRANCH   1  18
ATOM     18  N   UNL     1      48.009   5.324  16.345  0.00  0.00    +0.000 N 
ATOM     19  C   UNL     1      47.909   5.681  17.663  0.00  0.00    +0.000 C 
ATOM     20  O   UNL     1      47.090   5.172  18.424  0.00  0.00    +0.000 OA
ATOM     21  H   UNL     1      48.546   5.907  15.712  0.00  0.00    +0.000 HD
BRANCH  19  22
ATOM     22  C   UNL     1      48.895   6.659  18.149  0.00  0.00    +0.000 A 
ATOM     23  C   UNL     1      48.456   7.801  18.807  0.00  0.00    +0.000 A 
ATOM     24  S   UNL     1      49.719   8.815  19.337  0.00  0.00    +0.000 S 
ATOM     25  C   UNL     1      50.898   7.788  18.668  0.00  0.00    +0.000 A 
ATOM     26  N   UNL     1      52.219   8.100  18.745  0.00  0.00    +0.000 NA
ATOM     27  C   UNL     1      53.003   7.252  18.168  0.00  0.00    +0.000 A 
ATOM     28  N   UNL     1      52.585   6.111  17.534  0.00  0.00    +0.000 N 
ATOM     29  C   UNL     1      51.268   5.722  17.489  0.00  0.00    +0.000 A 
ATOM     30  O   UNL     1      50.945   4.637  17.015  0.00  0.00    +0.000 OA
ATOM     31  C   UNL     1      50.338   6.668  18.078  0.00  0.00    +0.000 A 
ATOM     32  H   UNL     1      53.252   5.473  17.126  0.00  0.00    +0.000 HD
ENDBRANCH  19  22
ENDBRANCH   1  18
TORSDOF 6
ENDMDL
