MODEL 1
REMARK VINA RESULT:    -9.544      0.000      0.000
REMARK INTER + INTRA:         -11.053
REMARK INTER:                 -11.218
REMARK INTRA:                   0.165
REMARK UNBOUND:                 0.165
REMARK  Name = 
REMARK  5 active torsions:
REMARK  status: ('A' for Active; 'I' for Inactive)
REMARK    1  A    between atoms: C_1  and  C_2
REMARK    2  A    between atoms: C_9  and  C_10
REMARK    3  A    between atoms: C_10  and  N_11
REMARK    4  A    between atoms: C_15  and  C_16
REMARK    5  A    between atoms: C_25  and  C_26
REMARK                            x       y       z     vdW  Elec       q    Type
REMARK                         _______ _______ _______ _____ _____    ______ ____
ROOT
ATOM      1  C   UNL     1      43.891   4.659  11.578  0.00  0.00    +0.000 C 
ATOM      2  C   UNL     1      43.319   6.028  11.217  0.00  0.00    +0.000 C 
ATOM      3  C   UNL     1      42.563   5.139  12.152  0.00  0.00    +0.000 C 
ENDROOT
BRANCH   1  12
ATOM      4  C   UNL     1      49.205   7.519  11.467  0.00  0.00    +0.000 C 
ATOM      5  C   UNL     1      48.948   8.478  12.626  0.00  0.00    +0.000 C 
ATOM      6  C   UNL     1      48.415   7.797  13.908  0.00  0.00    +0.000 C 
ATOM      7  N   UNL     1      46.999   7.461  13.792  0.00  0.00    +0.000 N 
ATOM      8  C   UNL     1      46.666   6.166  13.464  0.00  0.00    +0.000 A 
ATOM      9  N   UNL     1      47.454   5.142  13.817  0.00  0.00    +0.000 NA
ATOM     10  C   UNL     1      47.034   3.900  13.505  0.00  0.00    +0.000 A 
ATOM     11  C   UNL     1      45.874   3.637  12.820  0.00  0.00    +0.000 A 
ATOM     12  C   UNL     1      45.131   4.741  12.458  0.00  0.00    +0.000 A 
ATOM     13  N   UNL     1      45.520   5.981  12.812  0.00  0.00    +0.000 NA
ATOM     14  C   UNL     1      46.145   8.544  13.281  0.00  0.00    +0.000 C 
ATOM     15  C   UNL     1      46.737   9.180  12.008  0.00  0.00    +0.000 C 
ATOM     16  C   UNL     1      45.960  10.438  11.631  0.00  0.00    +0.000 C 
ATOM     17  O   UNL     1      48.108   9.573  12.208  0.00  0.00    +0.000 OA
ENDBRANCH   1  12
BRANCH   1  18
ATOM     18  N   UNL     1      43.845   3.562  10.590  0.00  0.00    +0.000 N 
ATOM     19  C   UNL     1      44.823   3.381   9.601  0.00  0.00    +0.000 A 
ATOM     20  C   UNL     1      45.422   4.419   8.891  0.00  0.00    +0.000 A 
ATOM     21  C   UNL     1      46.296   4.128   7.834  0.00  0.00    +0.000 A 
ATOM     22  C   UNL     1      46.559   2.804   7.507  0.00  0.00    +0.000 A 
ATOM     23  C   UNL     1      45.943   1.829   8.278  0.00  0.00    +0.000 A 
ATOM     24  N   UNL     1      45.098   2.090   9.311  0.00  0.00    +0.000 NA
ATOM     25  H   UNL     1      43.688   2.627  10.960  0.00  0.00    +0.000 HD
BRANCH  22  26
ATOM     26  C   UNL     1      47.399   2.377   6.366  0.00  0.00    +0.000 C 
ATOM     27  N   UNL     1      47.285   3.057   5.185  0.00  0.00    +0.000 N 
ATOM     28  O   UNL     1      48.190   1.448   6.476  0.00  0.00    +0.000 OA
ATOM     29  H   UNL     1      46.801   3.937   5.096  0.00  0.00    +0.000 HD
ATOM     30  H   UNL     1      47.921   2.790   4.445  0.00  0.00    +0.000 HD
ENDBRANCH  22  26
ENDBRANCH   1  18
TORSDOF 3
ENDMDL
MODEL 2
REMARK VINA RESULT:    -6.890      3.724      6.128
REMARK INTER + INTRA:          -7.933
REMARK INTER:                  -7.651
REMARK INTRA:                  -0.282
REMARK UNBOUND:                 0.165
REMARK  Name = 
REMARK  5 active torsions:
REMARK  status: ('A' for Active; 'I' for Inactive)
REMARK    1  A    between atoms: C_1  and  C_2
REMARK    2  A    between atoms: C_9  and  C_10
REMARK    3  A    between atoms: C_10  and  N_11
REMARK    4  A    between atoms: C_15  and  C_16
REMARK    5  A    between atoms: C_25  and  C_26
REMARK                            x       y       z     vdW  Elec       q    Type
REMARK                         _______ _______ _______ _____ _____    ______ ____
ROOT
ATOM      1  C   UNL     1      48.432   8.167  13.262  0.00  0.00    +0.000 C 
ATOM      2  C   UNL     1      48.155   9.668  13.200  0.00  0.00    +0.000 C 
ATOM      3  C   UNL     1      47.283   8.794  14.043  0.00  0.00    +0.000 C 
ENDROOT
BRANCH   1  12
ATOM      4  C   UNL     1      50.364   8.259  18.978  0.00  0.00    +0.000 C 
ATOM      5  C   UNL     1      50.445   6.750  19.194  0.00  0.00    +0.000 C 
ATOM      6  C   UNL     1      51.211   5.990  18.087  0.00  0.00    +0.000 C 
ATOM      7  N   UNL     1      50.403   5.836  16.880  0.00  0.00    +0.000 N 
ATOM      8  C   UNL     1      50.615   6.717  15.844  0.00  0.00    +0.000 A 
ATOM      9  N   UNL     1      51.819   7.267  15.641  0.00  0.00    +0.000 NA
ATOM     10  C   UNL     1      51.958   8.080  14.575  0.00  0.00    +0.000 A 
ATOM     11  C   UNL     1      50.933   8.399  13.721  0.00  0.00    +0.000 A 
ATOM     12  C   UNL     1      49.713   7.825  14.011  0.00  0.00    +0.000 A 
ATOM     13  N   UNL     1      49.580   6.971  15.044  0.00  0.00    +0.000 NA
ATOM     14  C   UNL     1      49.033   5.354  17.109  0.00  0.00    +0.000 C 
ATOM     15  C   UNL     1      48.332   6.150  18.227  0.00  0.00    +0.000 C 
ATOM     16  C   UNL     1      47.007   5.490  18.599  0.00  0.00    +0.000 C 
ATOM     17  O   UNL     1      49.134   6.194  19.421  0.00  0.00    +0.000 OA
ENDBRANCH   1  12
BRANCH   1  18
ATOM     18  N   UNL     1      48.080   7.309  12.112  0.00  0.00    +0.000 N 
ATOM     19  C   UNL     1      47.030   6.380  12.144  0.00  0.00    +0.000 A 
ATOM     20  C   UNL     1      46.728   5.575  13.240  0.00  0.00    +0.000 A 
ATOM     21  C   UNL     1      45.740   4.587  13.129  0.00  0.00    +0.000 A 
ATOM     22  C   UNL     1      45.069   4.421  11.924  0.00  0.00    +0.000 A 
ATOM     23  C   UNL     1      45.410   5.278  10.888  0.00  0.00    +0.000 A 
ATOM     24  N   UNL     1      46.361   6.247  10.978  0.00  0.00    +0.000 NA
ATOM     25  H   UNL     1      47.971   7.779  11.215  0.00  0.00    +0.000 HD
BRANCH  22  26
ATOM     26  C   UNL     1      44.067   3.364  11.666  0.00  0.00    +0.000 C 
ATOM     27  N   UNL     1      43.865   2.412  12.627  0.00  0.00    +0.000 N 
ATOM     28  O   UNL     1      43.420   3.346  10.626  0.00  0.00    +0.000 OA
ATOM     29  H   UNL     1      44.221   2.487  13.566  0.00  0.00    +0.000 HD
ATOM     30  H   UNL     1      43.124   1.743  12.454  0.00  0.00    +0.000 HD
ENDBRANCH  22  26
ENDBRANCH   1  18
TORSDOF 3
ENDMDL
MODEL 3
REMARK VINA RESULT:    -6.861      3.935      6.335
REMARK INTER + INTRA:          -7.899
REMARK INTER:                  -8.806
REMARK INTRA:                   0.907
REMARK UNBOUND:                 0.165
REMARK  Name = 
REMARK  5 active torsions:
REMARK  status: ('A' for Active; 'I' for Inactive)
REMARK    1  A    between atoms: C_1  and  C_2
REMARK    2  A    between atoms: C_9  and  C_10
REMARK    3  A    between atoms: C_10  and  N_11
REMARK    4  A    between atoms: C_15  and  C_16
REMARK    5  A    between atoms: C_25  and  C_26
REMARK                            x       y       z     vdW  Elec       q    Type
REMARK                         _______ _______ _______ _____ _____    ______ ____
ROOT
ATOM      1  C   UNL     1      48.724   7.404  13.765  0.00  0.00    +0.000 C 
ATOM      2  C   UNL     1      49.390   7.274  12.397  0.00  0.00    +0.000 C 
ATOM      3  C   UNL     1      48.770   8.577  12.793  0.00  0.00    +0.000 C 
ENDROOT
BRANCH   1  12
ATOM      4  C   UNL     1      48.561   6.436  19.720  0.00  0.00    +0.000 C 
ATOM      5  C   UNL     1      49.302   5.103  19.734  0.00  0.00    +0.000 C 
ATOM      6  C   UNL     1      50.632   5.107  18.946  0.00  0.00    +0.000 C 
ATOM      7  N   UNL     1      50.405   5.036  17.504  0.00  0.00    +0.000 N 
ATOM      8  C   UNL     1      50.454   6.208  16.784  0.00  0.00    +0.000 A 
ATOM      9  N   UNL     1      51.231   7.226  17.175  0.00  0.00    +0.000 NA
ATOM     10  C   UNL     1      51.264   8.319  16.388  0.00  0.00    +0.000 A 
ATOM     11  C   UNL     1      50.522   8.456  15.242  0.00  0.00    +0.000 A 
ATOM     12  C   UNL     1      49.718   7.383  14.919  0.00  0.00    +0.000 A 
ATOM     13  N   UNL     1      49.721   6.267  15.674  0.00  0.00    +0.000 NA
ATOM     14  C   UNL     1      49.451   4.002  17.078  0.00  0.00    +0.000 C 
ATOM     15  C   UNL     1      48.153   4.051  17.908  0.00  0.00    +0.000 C 
ATOM     16  C   UNL     1      47.281   2.836  17.604  0.00  0.00    +0.000 C 
ATOM     17  O   UNL     1      48.433   4.029  19.320  0.00  0.00    +0.000 OA
ENDBRANCH   1  12
BRANCH   1  18
ATOM     18  N   UNL     1      47.410   6.772  14.004  0.00  0.00    +0.000 N 
ATOM     19  C   UNL     1      46.690   6.103  13.003  0.00  0.00    +0.000 A 
ATOM     20  C   UNL     1      46.596   6.535  11.682  0.00  0.00    +0.000 A 
ATOM     21  C   UNL     1      45.749   5.867  10.787  0.00  0.00    +0.000 A 
ATOM     22  C   UNL     1      45.011   4.776  11.228  0.00  0.00    +0.000 A 
ATOM     23  C   UNL     1      45.179   4.392  12.551  0.00  0.00    +0.000 A 
ATOM     24  N   UNL     1      46.001   5.023  13.432  0.00  0.00    +0.000 NA
ATOM     25  H   UNL     1      47.345   6.157  14.812  0.00  0.00    +0.000 HD
BRANCH  22  26
ATOM     26  C   UNL     1      44.028   4.043  10.400  0.00  0.00    +0.000 C 
ATOM     27  N   UNL     1      43.929   4.364   9.074  0.00  0.00    +0.000 N 
ATOM     28  O   UNL     1      43.329   3.160  10.881  0.00  0.00    +0.000 OA
ATOM     29  H   UNL     1      44.603   4.936   8.590  0.00  0.00    +0.000 HD
ATOM     30  H   UNL     1      43.300   3.799   8.517  0.00  0.00    +0.000 HD
ENDBRANCH  22  26
ENDBRANCH   1  18
TORSDOF 3
ENDMDL
