MODEL 1
REMARK VINA RESULT:    -9.279      0.000      0.000
REMARK INTER + INTRA:         -12.186
REMARK INTER:                 -12.263
REMARK INTRA:                   0.076
REMARK UNBOUND:                 0.076
REMARK  Name = 
REMARK  6 active torsions:
REMARK  status: ('A' for Active; 'I' for Inactive)
REMARK    1  A    between atoms: N_1  and  C_2
REMARK    2  A    between atoms: C_5  and  C_6
REMARK    3  A    between atoms: C_6  and  C_7
REMARK    4  A    between atoms: C_10  and  C_11
REMARK    5  A    between atoms: C_11  and  N_12
REMARK    6  A    between atoms: C_13  and  C_15
REMARK                            x       y       z     vdW  Elec       q    Type
REMARK                         _______ _______ _______ _____ _____    ______ ____
ROOT
ATOM      1  C   UNL     1      44.950   4.062  10.342  0.00  0.00    +0.000 A 
ATOM      2  C   UNL     1      45.130   3.836  11.705  0.00  0.00    +0.000 A 
ATOM      3  C   UNL     1      45.651   4.858  12.500  0.00  0.00    +0.000 A 
ATOM      4  C   UNL     1      45.998   6.079  11.925  0.00  0.00    +0.000 A 
ATOM      5  C   UNL     1      45.783   6.217  10.559  0.00  0.00    +0.000 A 
ATOM      6  N   UNL     1      45.270   5.245   9.762  0.00  0.00    +0.000 NA
ENDROOT
BRANCH   1   7
ATOM      7  C   UNL     1      44.342   2.989   9.463  0.00  0.00    +0.000 C 
BRANCH   7  11
ATOM      8  C   UNL     1      47.742   2.216   6.753  0.00  0.00    +0.000 C 
ATOM      9  C   UNL     1      46.842   3.429   6.502  0.00  0.00    +0.000 C 
ATOM     10  C   UNL     1      46.060   3.806   7.759  0.00  0.00    +0.000 C 
ATOM     11  C   UNL     1      45.200   2.625   8.237  0.00  0.00    +0.000 C 
ATOM     12  C   UNL     1      46.117   1.425   8.539  0.00  0.00    +0.000 C 
ATOM     13  C   UNL     1      46.945   1.030   7.311  0.00  0.00    +0.000 C 
BRANCH   8  14
ATOM     14  N   UNL     1      48.418   1.824   5.516  0.00  0.00    +0.000 NA
ATOM     15  H   UNL     1      47.722   1.577   4.812  0.00  0.00    +0.000 HD
ATOM     16  H   UNL     1      48.959   0.974   5.676  0.00  0.00    +0.000 HD
ENDBRANCH   8  14
ENDBRANCH   7  11
ENDBRANCH   1   7
BRANCH   4  17
ATOM     17  C   UNL     1      46.533   7.209  12.755  0.00  0.00    +0.000 C 
BRANCH  17  18
ATOM     18  N   UNL     1      46.958   6.758  14.058  0.00  0.00    +0.000 N 
ATOM     19  C   UNL     1      48.288   6.558  14.337  0.00  0.00    +0.000 C 
ATOM     20  O   UNL     1      49.162   6.778  13.502  0.00  0.00    +0.000 OA
ATOM     21  H   UNL     1      46.254   6.356  14.670  0.00  0.00    +0.000 HD
BRANCH  19  22
ATOM     22  C   UNL     1      48.624   6.126  15.701  0.00  0.00    +0.000 A 
ATOM     23  C   UNL     1      49.442   6.925  16.489  0.00  0.00    +0.000 A 
ATOM     24  S   UNL     1      49.694   6.312  18.059  0.00  0.00    +0.000 S 
ATOM     25  C   UNL     1      48.764   4.928  17.728  0.00  0.00    +0.000 A 
ATOM     26  N   UNL     1      48.595   3.957  18.665  0.00  0.00    +0.000 NA
ATOM     27  C   UNL     1      47.890   2.951  18.271  0.00  0.00    +0.000 A 
ATOM     28  N   UNL     1      47.333   2.829  17.025  0.00  0.00    +0.000 N 
ATOM     29  C   UNL     1      47.454   3.797  16.055  0.00  0.00    +0.000 A 
ATOM     30  O   UNL     1      46.911   3.677  14.962  0.00  0.00    +0.000 OA
ATOM     31  C   UNL     1      48.248   4.945  16.443  0.00  0.00    +0.000 A 
ATOM     32  H   UNL     1      46.783   2.018  16.783  0.00  0.00    +0.000 HD
ENDBRANCH  19  22
ENDBRANCH  17  18
ENDBRANCH   4  17
TORSDOF 6
ENDMDL
MODEL 2
REMARK VINA RESULT:    -9.030      1.611      2.166
REMARK INTER + INTRA:         -11.857
REMARK INTER:                 -11.509
REMARK INTRA:                  -0.348
REMARK UNBOUND:                 0.076
REMARK  Name = 
REMARK  6 active torsions:
REMARK  status: ('A' for Active; 'I' for Inactive)
REMARK    1  A    between atoms: N_1  and  C_2
REMARK    2  A    between atoms: C_5  and  C_6
REMARK    3  A    between atoms: C_6  and  C_7
REMARK    4  A    between atoms: C_10  and  C_11
REMARK    5  A    between atoms: C_11  and  N_12
REMARK    6  A    between atoms: C_13  and  C_15
REMARK                            x       y       z     vdW  Elec       q    Type
REMARK                         _______ _______ _______ _____ _____    ______ ____
ROOT
ATOM      1  C   UNL     1      44.984   4.245  10.420  0.00  0.00    +0.000 A 
ATOM      2  C   UNL     1      45.205   3.671  11.669  0.00  0.00    +0.000 A 
ATOM      3  C   UNL     1      45.866   4.410  12.651  0.00  0.00    +0.000 A 
ATOM      4  C   UNL     1      46.310   5.701  12.368  0.00  0.00    +0.000 A 
ATOM      5  C   UNL     1      46.046   6.194  11.096  0.00  0.00    +0.000 A 
ATOM      6  N   UNL     1      45.397   5.502  10.125  0.00  0.00    +0.000 NA
ENDROOT
BRANCH   1   7
ATOM      7  C   UNL     1      44.227   3.485   9.351  0.00  0.00    +0.000 C 
BRANCH   7  11
ATOM      8  C   UNL     1      47.694   2.211   6.931  0.00  0.00    +0.000 C 
ATOM      9  C   UNL     1      46.919   3.468   6.530  0.00  0.00    +0.000 C 
ATOM     10  C   UNL     1      46.103   4.013   7.701  0.00  0.00    +0.000 C 
ATOM     11  C   UNL     1      45.118   2.950   8.214  0.00  0.00    +0.000 C 
ATOM     12  C   UNL     1      45.908   1.708   8.667  0.00  0.00    +0.000 C 
ATOM     13  C   UNL     1      46.766   1.145   7.529  0.00  0.00    +0.000 C 
BRANCH   8  14
ATOM     14  N   UNL     1      48.402   1.663   5.773  0.00  0.00    +0.000 NA
ATOM     15  H   UNL     1      48.190   2.224   4.948  0.00  0.00    +0.000 HD
ATOM     16  H   UNL     1      48.048   0.729   5.566  0.00  0.00    +0.000 HD
ENDBRANCH   8  14
ENDBRANCH   7  11
ENDBRANCH   1   7
BRANCH   4  17
ATOM     17  C   UNL     1      46.999   6.535  13.408  0.00  0.00    +0.000 C 
BRANCH  17  18
ATOM     18  N   UNL     1      47.127   5.827  14.659  0.00  0.00    +0.000 N 
ATOM     19  C   UNL     1      48.300   5.860  15.372  0.00  0.00    +0.000 C 
ATOM     20  O   UNL     1      49.271   6.509  14.988  0.00  0.00    +0.000 OA
ATOM     21  H   UNL     1      46.435   5.114  14.870  0.00  0.00    +0.000 HD
BRANCH  19  22
ATOM     22  C   UNL     1      48.324   5.132  16.649  0.00  0.00    +0.000 A 
ATOM     23  C   UNL     1      48.240   3.746  16.648  0.00  0.00    +0.000 A 
ATOM     24  S   UNL     1      48.334   3.051  18.201  0.00  0.00    +0.000 S 
ATOM     25  C   UNL     1      48.437   4.579  18.939  0.00  0.00    +0.000 A 
ATOM     26  N   UNL     1      48.517   4.700  20.292  0.00  0.00    +0.000 NA
ATOM     27  C   UNL     1      48.562   5.917  20.718  0.00  0.00    +0.000 A 
ATOM     28  N   UNL     1      48.540   7.026  19.914  0.00  0.00    +0.000 N 
ATOM     29  C   UNL     1      48.487   6.953  18.541  0.00  0.00    +0.000 A 
ATOM     30  O   UNL     1      48.510   7.962  17.846  0.00  0.00    +0.000 OA
ATOM     31  C   UNL     1      48.423   5.606  18.010  0.00  0.00    +0.000 A 
ATOM     32  H   UNL     1      48.587   7.953  20.311  0.00  0.00    +0.000 HD
ENDBRANCH  19  22
ENDBRANCH  17  18
ENDBRANCH   4  17
TORSDOF 6
ENDMDL
MODEL 3
REMARK VINA RESULT:    -9.014      2.464      4.290
REMARK INTER + INTRA:         -11.835
REMARK INTER:                 -11.058
REMARK INTRA:                  -0.777
REMARK UNBOUND:                 0.076
REMARK  Name = 
REMARK  6 active torsions:
REMARK  status: ('A' for Active; 'I' for Inactive)
REMARK    1  A    between atoms: N_1  and  C_2
REMARK    2  A    between atoms: C_5  and  C_6
REMARK    3  A    between atoms: C_6  and  C_7
REMARK    4  A    between atoms: C_10  and  C_11
REMARK    5  A    between atoms: C_11  and  N_12
REMARK    6  A    between atoms: C_13  and  C_15
REMARK                            x       y       z     vdW  Elec       q    Type
REMARK                         _______ _______ _______ _____ _____    ______ ____
ROOT
ATOM      1  C   UNL     1      44.803   3.990  10.366  0.00  0.00    +0.000 A 
ATOM      2  C   UNL     1      45.301   5.284  10.492  0.00  0.00    +0.000 A 
ATOM      3  C   UNL     1      45.960   5.649  11.667  0.00  0.00    +0.000 A 
ATOM      4  C   UNL     1      46.098   4.725  12.702  0.00  0.00    +0.000 A 
ATOM      5  C   UNL     1      45.572   3.456  12.490  0.00  0.00    +0.000 A 
ATOM      6  N   UNL     1      44.935   3.071  11.354  0.00  0.00    +0.000 NA
ENDROOT
BRANCH   1   7
ATOM      7  C   UNL     1      44.126   3.552   9.084  0.00  0.00    +0.000 C 
BRANCH   7  11
ATOM      8  C   UNL     1      47.767   2.327   6.905  0.00  0.00    +0.000 C 
ATOM      9  C   UNL     1      46.979   3.550   6.425  0.00  0.00    +0.000 C 
ATOM     10  C   UNL     1      46.080   4.097   7.533  0.00  0.00    +0.000 C 
ATOM     11  C   UNL     1      45.099   3.017   8.015  0.00  0.00    +0.000 C 
ATOM     12  C   UNL     1      45.897   1.812   8.546  0.00  0.00    +0.000 C 
ATOM     13  C   UNL     1      46.838   1.249   7.476  0.00  0.00    +0.000 C 
BRANCH   8  14
ATOM     14  N   UNL     1      48.558   1.774   5.805  0.00  0.00    +0.000 NA
ATOM     15  H   UNL     1      49.537   2.036   5.925  0.00  0.00    +0.000 HD
ATOM     16  H   UNL     1      48.267   2.201   4.926  0.00  0.00    +0.000 HD
ENDBRANCH   8  14
ENDBRANCH   7  11
ENDBRANCH   1   7
BRANCH   4  17
ATOM     17  C   UNL     1      46.826   5.072  13.967  0.00  0.00    +0.000 C 
BRANCH  17  18
ATOM     18  N   UNL     1      47.219   6.461  13.991  0.00  0.00    +0.000 N 
ATOM     19  C   UNL     1      48.364   6.860  14.635  0.00  0.00    +0.000 C 
ATOM     20  O   UNL     1      49.107   6.053  15.189  0.00  0.00    +0.000 OA
ATOM     21  H   UNL     1      46.516   7.153  13.748  0.00  0.00    +0.000 HD
BRANCH  19  22
ATOM     22  C   UNL     1      48.696   8.291  14.579  0.00  0.00    +0.000 A 
ATOM     23  C   UNL     1      48.829   9.009  15.760  0.00  0.00    +0.000 A 
ATOM     24  S   UNL     1      49.266  10.640  15.527  0.00  0.00    +0.000 S 
ATOM     25  C   UNL     1      49.241  10.462  13.836  0.00  0.00    +0.000 A 
ATOM     26  N   UNL     1      49.506  11.516  13.017  0.00  0.00    +0.000 NA
ATOM     27  C   UNL     1      49.425  11.247  11.757  0.00  0.00    +0.000 A 
ATOM     28  N   UNL     1      49.108  10.018  11.241  0.00  0.00    +0.000 N 
ATOM     29  C   UNL     1      48.859   8.918  12.029  0.00  0.00    +0.000 A 
ATOM     30  O   UNL     1      48.618   7.821  11.537  0.00  0.00    +0.000 OA
ATOM     31  C   UNL     1      48.926   9.169  13.455  0.00  0.00    +0.000 A 
ATOM     32  H   UNL     1      49.071   9.872  10.243  0.00  0.00    +0.000 HD
ENDBRANCH  19  22
ENDBRANCH  17  18
ENDBRANCH   4  17
TORSDOF 6
ENDMDL
MODEL 4
REMARK VINA RESULT:    -8.377      1.912      2.546
REMARK INTER + INTRA:         -10.994
REMARK INTER:                 -10.140
REMARK INTRA:                  -0.854
REMARK UNBOUND:                 0.076
REMARK  Name = 
REMARK  6 active torsions:
REMARK  status: ('A' for Active; 'I' for Inactive)
REMARK    1  A    between atoms: N_1  and  C_2
REMARK    2  A    between atoms: C_5  and  C_6
REMARK    3  A    between atoms: C_6  and  C_7
REMARK    4  A    between atoms: C_10  and  C_11
REMARK    5  A    between atoms: C_11  and  N_12
REMARK    6  A    between atoms: C_13  and  C_15
REMARK                            x       y       z     vdW  Elec       q    Type
REMARK                         _______ _______ _______ _____ _____    ______ ____
ROOT
ATOM      1  C   UNL     1      44.611   4.432  10.415  0.00  0.00    +0.000 A 
ATOM      2  C   UNL     1      43.450   5.128  10.745  0.00  0.00    +0.000 A 
ATOM      3  C   UNL     1      43.556   6.382  11.348  0.00  0.00    +0.000 A 
ATOM      4  C   UNL     1      44.814   6.914  11.628  0.00  0.00    +0.000 A 
ATOM      5  C   UNL     1      45.918   6.152  11.264  0.00  0.00    +0.000 A 
ATOM      6  N   UNL     1      45.844   4.935  10.667  0.00  0.00    +0.000 NA
ENDROOT
BRANCH   1   7
ATOM      7  C   UNL     1      44.526   3.092   9.715  0.00  0.00    +0.000 C 
BRANCH   7  11
ATOM      8  C   UNL     1      47.112   1.918   6.332  0.00  0.00    +0.000 C 
ATOM      9  C   UNL     1      47.021   1.008   7.561  0.00  0.00    +0.000 C 
ATOM     10  C   UNL     1      45.764   1.303   8.376  0.00  0.00    +0.000 C 
ATOM     11  C   UNL     1      45.746   2.772   8.829  0.00  0.00    +0.000 C 
ATOM     12  C   UNL     1      45.782   3.682   7.587  0.00  0.00    +0.000 C 
ATOM     13  C   UNL     1      47.014   3.398   6.722  0.00  0.00    +0.000 C 
BRANCH   8  14
ATOM     14  N   UNL     1      48.362   1.672   5.613  0.00  0.00    +0.000 NA
ATOM     15  H   UNL     1      49.143   2.047   6.151  0.00  0.00    +0.000 HD
ATOM     16  H   UNL     1      48.360   2.193   4.736  0.00  0.00    +0.000 HD
ENDBRANCH   8  14
ENDBRANCH   7  11
ENDBRANCH   1   7
BRANCH   4  17
ATOM     17  C   UNL     1      44.967   8.272  12.250  0.00  0.00    +0.000 C 
BRANCH  17  18
ATOM     18  N   UNL     1      45.941   8.263  13.315  0.00  0.00    +0.000 N 
ATOM     19  C   UNL     1      47.209   8.749  13.116  0.00  0.00    +0.000 C 
ATOM     20  O   UNL     1      47.554   9.231  12.039  0.00  0.00    +0.000 OA
ATOM     21  H   UNL     1      45.754   7.670  14.119  0.00  0.00    +0.000 HD
BRANCH  19  22
ATOM     22  C   UNL     1      48.120   8.725  14.269  0.00  0.00    +0.000 A 
ATOM     23  C   UNL     1      48.748   9.896  14.670  0.00  0.00    +0.000 A 
ATOM     24  S   UNL     1      49.729   9.712  16.052  0.00  0.00    +0.000 S 
ATOM     25  C   UNL     1      49.395   8.047  16.134  0.00  0.00    +0.000 A 
ATOM     26  N   UNL     1      49.957   7.268  17.098  0.00  0.00    +0.000 NA
ATOM     27  C   UNL     1      49.639   6.019  17.026  0.00  0.00    +0.000 A 
ATOM     28  N   UNL     1      48.807   5.478  16.082  0.00  0.00    +0.000 N 
ATOM     29  C   UNL     1      48.195   6.231  15.106  0.00  0.00    +0.000 A 
ATOM     30  O   UNL     1      47.423   5.726  14.299  0.00  0.00    +0.000 OA
ATOM     31  C   UNL     1      48.528   7.641  15.135  0.00  0.00    +0.000 A 
ATOM     32  H   UNL     1      48.591   4.492  16.087  0.00  0.00    +0.000 HD
ENDBRANCH  19  22
ENDBRANCH  17  18
ENDBRANCH   4  17
TORSDOF 6
ENDMDL
MODEL 5
REMARK VINA RESULT:    -8.333      3.240      4.469
REMARK INTER + INTRA:         -10.935
REMARK INTER:                 -10.514
REMARK INTRA:                  -0.422
REMARK UNBOUND:                 0.076
REMARK  Name = 
REMARK  6 active torsions:
REMARK  status: ('A' for Active; 'I' for Inactive)
REMARK    1  A    between atoms: N_1  and  C_2
REMARK    2  A    between atoms: C_5  and  C_6
REMARK    3  A    between atoms: C_6  and  C_7
REMARK    4  A    between atoms: C_10  and  C_11
REMARK    5  A    between atoms: C_11  and  N_12
REMARK    6  A    between atoms: C_13  and  C_15
REMARK                            x       y       z     vdW  Elec       q    Type
REMARK                         _______ _______ _______ _____ _____    ______ ____
ROOT
ATOM      1  C   UNL     1      44.720   3.751  10.312  0.00  0.00    +0.000 A 
ATOM      2  C   UNL     1      45.037   5.084  10.061  0.00  0.00    +0.000 A 
ATOM      3  C   UNL     1      45.621   5.847  11.074  0.00  0.00    +0.000 A 
ATOM      4  C   UNL     1      45.865   5.275  12.322  0.00  0.00    +0.000 A 
ATOM      5  C   UNL     1      45.518   3.939  12.483  0.00  0.00    +0.000 A 
ATOM      6  N   UNL     1      44.958   3.171  11.514  0.00  0.00    +0.000 NA
ENDROOT
BRANCH   1   7
ATOM      7  C   UNL     1      44.130   2.886   9.218  0.00  0.00    +0.000 C 
BRANCH   7  11
ATOM      8  C   UNL     1      47.804   2.213   6.860  0.00  0.00    +0.000 C 
ATOM      9  C   UNL     1      46.919   3.422   6.544  0.00  0.00    +0.000 C 
ATOM     10  C   UNL     1      46.006   3.762   7.721  0.00  0.00    +0.000 C 
ATOM     11  C   UNL     1      45.117   2.561   8.079  0.00  0.00    +0.000 C 
ATOM     12  C   UNL     1      46.012   1.363   8.448  0.00  0.00    +0.000 C 
ATOM     13  C   UNL     1      46.968   1.006   7.305  0.00  0.00    +0.000 C 
BRANCH   8  14
ATOM     14  N   UNL     1      48.610   1.858   5.691  0.00  0.00    +0.000 NA
ATOM     15  H   UNL     1      49.236   1.089   5.931  0.00  0.00    +0.000 HD
ATOM     16  H   UNL     1      49.219   2.639   5.446  0.00  0.00    +0.000 HD
ENDBRANCH   8  14
ENDBRANCH   7  11
ENDBRANCH   1   7
BRANCH   4  17
ATOM     17  C   UNL     1      46.518   6.057  13.424  0.00  0.00    +0.000 C 
BRANCH  17  18
ATOM     18  N   UNL     1      47.610   6.862  12.932  0.00  0.00    +0.000 N 
ATOM     19  C   UNL     1      47.532   8.233  12.932  0.00  0.00    +0.000 C 
ATOM     20  O   UNL     1      46.548   8.823  13.372  0.00  0.00    +0.000 OA
ATOM     21  H   UNL     1      48.315   6.402  12.363  0.00  0.00    +0.000 HD
BRANCH  19  22
ATOM     22  C   UNL     1      48.706   8.966  12.438  0.00  0.00    +0.000 A 
ATOM     23  C   UNL     1      48.542   9.947  11.469  0.00  0.00    +0.000 A 
ATOM     24  S   UNL     1      49.989  10.740  11.041  0.00  0.00    +0.000 S 
ATOM     25  C   UNL     1      50.899   9.765  12.097  0.00  0.00    +0.000 A 
ATOM     26  N   UNL     1      52.248   9.912  12.197  0.00  0.00    +0.000 NA
ATOM     27  C   UNL     1      52.815   9.089  13.014  0.00  0.00    +0.000 A 
ATOM     28  N   UNL     1      52.156   8.137  13.745  0.00  0.00    +0.000 N 
ATOM     29  C   UNL     1      50.790   7.970  13.697  0.00  0.00    +0.000 A 
ATOM     30  O   UNL     1      50.224   7.135  14.393  0.00  0.00    +0.000 OA
ATOM     31  C   UNL     1      50.105   8.862  12.784  0.00  0.00    +0.000 A 
ATOM     32  H   UNL     1      52.658   7.529  14.375  0.00  0.00    +0.000 HD
ENDBRANCH  19  22
ENDBRANCH  17  18
ENDBRANCH   4  17
TORSDOF 6
ENDMDL
MODEL 6
REMARK VINA RESULT:    -8.307      1.077      1.437
REMARK INTER + INTRA:         -10.901
REMARK INTER:                 -10.183
REMARK INTRA:                  -0.718
REMARK UNBOUND:                 0.076
REMARK  Name = 
REMARK  6 active torsions:
REMARK  status: ('A' for Active; 'I' for Inactive)
REMARK    1  A    between atoms: N_1  and  C_2
REMARK    2  A    between atoms: C_5  and  C_6
REMARK    3  A    between atoms: C_6  and  C_7
REMARK    4  A    between atoms: C_10  and  C_11
REMARK    5  A    between atoms: C_11  and  N_12
REMARK    6  A    between atoms: C_13  and  C_15
REMARK                            x       y       z     vdW  Elec       q    Type
REMARK                         _______ _______ _______ _____ _____    ______ ____
ROOT
ATOM      1  C   UNL     1      44.779   5.124  11.038  0.00  0.00    +0.000 A 
ATOM      2  C   UNL     1      44.888   6.487  10.770  0.00  0.00    +0.000 A 
ATOM      3  C   UNL     1      45.799   7.253  11.498  0.00  0.00    +0.000 A 
ATOM      4  C   UNL     1      46.575   6.654  12.490  0.00  0.00    +0.000 A 
ATOM      5  C   UNL     1      46.401   5.290  12.690  0.00  0.00    +0.000 A 
ATOM      6  N   UNL     1      45.529   4.519  11.991  0.00  0.00    +0.000 NA
ENDROOT
BRANCH   1   7
ATOM      7  C   UNL     1      43.834   4.260  10.231  0.00  0.00    +0.000 C 
BRANCH   7  11
ATOM      8  C   UNL     1      46.780   2.230   7.642  0.00  0.00    +0.000 C 
ATOM      9  C   UNL     1      46.240   3.603   7.233  0.00  0.00    +0.000 C 
ATOM     10  C   UNL     1      45.643   4.341   8.430  0.00  0.00    +0.000 C 
ATOM     11  C   UNL     1      44.510   3.517   9.063  0.00  0.00    +0.000 C 
ATOM     12  C   UNL     1      45.071   2.158   9.521  0.00  0.00    +0.000 C 
ATOM     13  C   UNL     1      45.709   1.395   8.355  0.00  0.00    +0.000 C 
BRANCH   8  14
ATOM     14  N   UNL     1      47.273   1.511   6.467  0.00  0.00    +0.000 NA
ATOM     15  H   UNL     1      47.067   2.052   5.626  0.00  0.00    +0.000 HD
ATOM     16  H   UNL     1      46.760   0.636   6.361  0.00  0.00    +0.000 HD
ENDBRANCH   8  14
ENDBRANCH   7  11
ENDBRANCH   1   7
BRANCH   4  17
ATOM     17  C   UNL     1      47.585   7.441  13.273  0.00  0.00    +0.000 C 
BRANCH  17  18
ATOM     18  N   UNL     1      47.769   6.901  14.599  0.00  0.00    +0.000 N 
ATOM     19  C   UNL     1      48.993   6.955  15.219  0.00  0.00    +0.000 C 
ATOM     20  O   UNL     1      49.965   7.483  14.685  0.00  0.00    +0.000 OA
ATOM     21  H   UNL     1      47.058   6.268  14.952  0.00  0.00    +0.000 HD
BRANCH  19  22
ATOM     22  C   UNL     1      49.074   6.406  16.580  0.00  0.00    +0.000 A 
ATOM     23  C   UNL     1      49.637   7.169  17.594  0.00  0.00    +0.000 A 
ATOM     24  S   UNL     1      49.609   6.413  19.121  0.00  0.00    +0.000 S 
ATOM     25  C   UNL     1      48.892   5.013  18.475  0.00  0.00    +0.000 A 
ATOM     26  N   UNL     1      48.616   3.940  19.264  0.00  0.00    +0.000 NA
ATOM     27  C   UNL     1      48.099   2.936  18.640  0.00  0.00    +0.000 A 
ATOM     28  N   UNL     1      47.827   2.909  17.297  0.00  0.00    +0.000 N 
ATOM     29  C   UNL     1      48.063   3.979  16.465  0.00  0.00    +0.000 A 
ATOM     30  O   UNL     1      47.771   3.940  15.275  0.00  0.00    +0.000 OA
ATOM     31  C   UNL     1      48.656   5.130  17.116  0.00  0.00    +0.000 A 
ATOM     32  H   UNL     1      47.412   2.094  16.871  0.00  0.00    +0.000 HD
ENDBRANCH  19  22
ENDBRANCH  17  18
ENDBRANCH   4  17
TORSDOF 6
ENDMDL
MODEL 7
REMARK VINA RESULT:    -8.238      3.856      4.786
REMARK INTER + INTRA:         -10.811
REMARK INTER:                 -10.193
REMARK INTRA:                  -0.618
REMARK UNBOUND:                 0.076
REMARK  Name = 
REMARK  6 active torsions:
REMARK  status: ('A' for Active; 'I' for Inactive)
REMARK    1  A    between atoms: N_1  and  C_2
REMARK    2  A    between atoms: C_5  and  C_6
REMARK    3  A    between atoms: C_6  and  C_7
REMARK    4  A    between atoms: C_10  and  C_11
REMARK    5  A    between atoms: C_11  and  N_12
REMARK    6  A    between atoms: C_13  and  C_15
REMARK                            x       y       z     vdW  Elec       q    Type
REMARK                         _______ _______ _______ _____ _____    ______ ____
ROOT
ATOM      1  C   UNL     1      44.414   3.708  10.369  0.00  0.00    +0.000 A 
ATOM      2  C   UNL     1      43.461   4.717  10.241  0.00  0.00    +0.000 A 
ATOM      3  C   UNL     1      43.638   5.913  10.939  0.00  0.00    +0.000 A 
ATOM      4  C   UNL     1      44.750   6.079  11.763  0.00  0.00    +0.000 A 
ATOM      5  C   UNL     1      45.650   5.021  11.831  0.00  0.00    +0.000 A 
ATOM      6  N   UNL     1      45.508   3.851  11.156  0.00  0.00    +0.000 NA
ENDROOT
BRANCH   1   7
ATOM      7  C   UNL     1      44.273   2.420   9.587  0.00  0.00    +0.000 C 
BRANCH   7  11
ATOM      8  C   UNL     1      47.711   2.413   6.814  0.00  0.00    +0.000 C 
ATOM      9  C   UNL     1      46.730   3.589   6.793  0.00  0.00    +0.000 C 
ATOM     10  C   UNL     1      45.928   3.664   8.091  0.00  0.00    +0.000 C 
ATOM     11  C   UNL     1      45.151   2.358   8.322  0.00  0.00    +0.000 C 
ATOM     12  C   UNL     1      46.148   1.186   8.397  0.00  0.00    +0.000 C 
ATOM     13  C   UNL     1      46.997   1.091   7.125  0.00  0.00    +0.000 C 
BRANCH   8  14
ATOM     14  N   UNL     1      48.409   2.314   5.532  0.00  0.00    +0.000 NA
ATOM     15  H   UNL     1      48.110   3.076   4.923  0.00  0.00    +0.000 HD
ATOM     16  H   UNL     1      48.128   1.457   5.055  0.00  0.00    +0.000 HD
ENDBRANCH   8  14
ENDBRANCH   7  11
ENDBRANCH   1   7
BRANCH   4  17
ATOM     17  C   UNL     1      44.988   7.361  12.505  0.00  0.00    +0.000 C 
BRANCH  17  18
ATOM     18  N   UNL     1      46.096   8.100  11.951  0.00  0.00    +0.000 N 
ATOM     19  C   UNL     1      47.033   8.686  12.766  0.00  0.00    +0.000 C 
ATOM     20  O   UNL     1      46.978   8.583  13.989  0.00  0.00    +0.000 OA
ATOM     21  H   UNL     1      46.031   8.388  10.978  0.00  0.00    +0.000 HD
BRANCH  19  22
ATOM     22  C   UNL     1      48.141   9.392  12.107  0.00  0.00    +0.000 A 
ATOM     23  C   UNL     1      47.965  10.706  11.693  0.00  0.00    +0.000 A 
ATOM     24  S   UNL     1      49.357  11.399  10.995  0.00  0.00    +0.000 S 
ATOM     25  C   UNL     1      50.232   9.952  11.171  0.00  0.00    +0.000 A 
ATOM     26  N   UNL     1      51.519   9.855  10.739  0.00  0.00    +0.000 NA
ATOM     27  C   UNL     1      52.053   8.692  10.909  0.00  0.00    +0.000 A 
ATOM     28  N   UNL     1      51.420   7.618  11.477  0.00  0.00    +0.000 N 
ATOM     29  C   UNL     1      50.130   7.677  11.953  0.00  0.00    +0.000 A 
ATOM     30  O   UNL     1      49.604   6.711  12.493  0.00  0.00    +0.000 OA
ATOM     31  C   UNL     1      49.479   8.959  11.775  0.00  0.00    +0.000 A 
ATOM     32  H   UNL     1      51.899   6.737  11.590  0.00  0.00    +0.000 HD
ENDBRANCH  19  22
ENDBRANCH  17  18
ENDBRANCH   4  17
TORSDOF 6
ENDMDL
MODEL 8
REMARK VINA RESULT:    -8.081      2.586      3.987
REMARK INTER + INTRA:         -10.602
REMARK INTER:                  -9.920
REMARK INTRA:                  -0.682
REMARK UNBOUND:                 0.076
REMARK  Name = 
REMARK  6 active torsions:
REMARK  status: ('A' for Active; 'I' for Inactive)
REMARK    1  A    between atoms: N_1  and  C_2
REMARK    2  A    between atoms: C_5  and  C_6
REMARK    3  A    between atoms: C_6  and  C_7
REMARK    4  A    between atoms: C_10  and  C_11
REMARK    5  A    between atoms: C_11  and  N_12
REMARK    6  A    between atoms: C_13  and  C_15
REMARK                            x       y       z     vdW  Elec       q    Type
REMARK                         _______ _______ _______ _____ _____    ______ ____
ROOT
ATOM      1  C   UNL     1      44.852   4.248  10.424  0.00  0.00    +0.000 A 
ATOM      2  C   UNL     1      45.662   5.319  10.052  0.00  0.00    +0.000 A 
ATOM      3  C   UNL     1      45.839   6.379  10.943  0.00  0.00    +0.000 A 
ATOM      4  C   UNL     1      45.195   6.363  12.179  0.00  0.00    +0.000 A 
ATOM      5  C   UNL     1      44.407   5.255  12.467  0.00  0.00    +0.000 A 
ATOM      6  N   UNL     1      44.225   4.206  11.624  0.00  0.00    +0.000 NA
ENDROOT
BRANCH   1   7
ATOM      7  C   UNL     1      44.681   3.062   9.498  0.00  0.00    +0.000 C 
BRANCH   7  11
ATOM      8  C   UNL     1      47.214   1.911   6.067  0.00  0.00    +0.000 C 
ATOM      9  C   UNL     1      47.320   1.126   7.377  0.00  0.00    +0.000 C 
ATOM     10  C   UNL     1      46.081   1.330   8.247  0.00  0.00    +0.000 C 
ATOM     11  C   UNL     1      45.882   2.821   8.563  0.00  0.00    +0.000 C 
ATOM     12  C   UNL     1      45.721   3.598   7.243  0.00  0.00    +0.000 C 
ATOM     13  C   UNL     1      46.931   3.397   6.324  0.00  0.00    +0.000 C 
BRANCH   8  14
ATOM     14  N   UNL     1      48.444   1.764   5.289  0.00  0.00    +0.000 NA
ATOM     15  H   UNL     1      48.341   0.990   4.633  0.00  0.00    +0.000 HD
ATOM     16  H   UNL     1      49.210   1.497   5.907  0.00  0.00    +0.000 HD
ENDBRANCH   8  14
ENDBRANCH   7  11
ENDBRANCH   1   7
BRANCH   4  17
ATOM     17  C   UNL     1      45.385   7.471  13.173  0.00  0.00    +0.000 C 
BRANCH  17  18
ATOM     18  N   UNL     1      46.782   7.769  13.378  0.00  0.00    +0.000 N 
ATOM     19  C   UNL     1      47.604   6.884  14.031  0.00  0.00    +0.000 C 
ATOM     20  O   UNL     1      47.192   5.801  14.440  0.00  0.00    +0.000 OA
ATOM     21  H   UNL     1      47.081   8.733  13.260  0.00  0.00    +0.000 HD
BRANCH  19  22
ATOM     22  C   UNL     1      49.018   7.263  14.165  0.00  0.00    +0.000 A 
ATOM     23  C   UNL     1      49.639   7.163  15.403  0.00  0.00    +0.000 A 
ATOM     24  S   UNL     1      51.289   7.589  15.382  0.00  0.00    +0.000 S 
ATOM     25  C   UNL     1      51.223   7.976  13.727  0.00  0.00    +0.000 A 
ATOM     26  N   UNL     1      52.321   8.443  13.074  0.00  0.00    +0.000 NA
ATOM     27  C   UNL     1      52.124   8.723  11.829  0.00  0.00    +0.000 A 
ATOM     28  N   UNL     1      50.928   8.574  11.177  0.00  0.00    +0.000 N 
ATOM     29  C   UNL     1      49.799   8.080  11.789  0.00  0.00    +0.000 A 
ATOM     30  O   UNL     1      48.754   7.920  11.169  0.00  0.00    +0.000 OA
ATOM     31  C   UNL     1      49.964   7.761  13.193  0.00  0.00    +0.000 A 
ATOM     32  H   UNL     1      50.842   8.803  10.198  0.00  0.00    +0.000 HD
ENDBRANCH  19  22
ENDBRANCH  17  18
ENDBRANCH   4  17
TORSDOF 6
ENDMDL
