MODEL 1
REMARK VINA RESULT:    -9.083      0.000      0.000
REMARK INTER + INTRA:         -11.641
REMARK INTER:                 -11.737
REMARK INTRA:                   0.096
REMARK UNBOUND:                 0.096
REMARK  Name = 
REMARK  6 active torsions:
REMARK  status: ('A' for Active; 'I' for Inactive)
REMARK    1  A    between atoms: C_1  and  C_2
REMARK    2  A    between atoms: C_4  and  C_5
REMARK    3  A    between atoms: C_10  and  N_11
REMARK    4  A    between atoms: N_11  and  C_12
REMARK    5  A    between atoms: C_12  and  C_13
REMARK    6  A    between atoms: C_17  and  C_18
REMARK                            x       y       z     vdW  Elec       q    Type
REMARK                         _______ _______ _______ _____ _____    ______ ____
ROOT
ATOM      1  C   UNL     1      43.976   4.750  11.338  0.00  0.00    +0.000 C 
ATOM      2  C   UNL     1      43.296   3.650  12.130  0.00  0.00    +0.000 C 
ATOM      3  C   UNL     1      42.729   5.031  12.171  0.00  0.00    +0.000 C 
ENDROOT
BRANCH   1   4
ATOM      4  C   UNL     1      45.273   5.383  11.857  0.00  0.00    +0.000 A 
ATOM      5  C   UNL     1      45.927   6.392  11.137  0.00  0.00    +0.000 A 
ATOM      6  C   UNL     1      47.108   6.968  11.602  0.00  0.00    +0.000 A 
ATOM      7  C   UNL     1      47.651   6.564  12.822  0.00  0.00    +0.000 A 
ATOM      8  C   UNL     1      47.029   5.579  13.605  0.00  0.00    +0.000 A 
ATOM      9  C   UNL     1      45.854   4.988  13.085  0.00  0.00    +0.000 A 
BRANCH   8  10
ATOM     10  C   UNL     1      47.558   5.219  14.940  0.00  0.00    +0.000 A 
ATOM     11  C   UNL     1      47.119   4.100  15.655  0.00  0.00    +0.000 A 
ATOM     12  C   UNL     1      47.618   3.829  16.935  0.00  0.00    +0.000 A 
ATOM     13  C   UNL     1      48.566   4.683  17.466  0.00  0.00    +0.000 A 
ATOM     14  N   UNL     1      49.035   5.766  16.819  0.00  0.00    +0.000 NA
ATOM     15  C   UNL     1      48.520   6.003  15.585  0.00  0.00    +0.000 A 
ENDBRANCH   8  10
ENDBRANCH   1   4
BRANCH   1  16
ATOM     16  N   UNL     1      43.823   4.773   9.862  0.00  0.00    +0.000 N 
ATOM     17  H   UNL     1      43.585   5.680   9.485  0.00  0.00    +0.000 HD
BRANCH  16  24
ATOM     18  C   UNL     1      43.871   1.845   9.966  0.00  0.00    +0.000 C 
ATOM     19  C   UNL     1      44.827   2.668   9.147  0.00  0.00    +0.000 A 
ATOM     20  C   UNL     1      45.839   1.998   8.444  0.00  0.00    +0.000 A 
ATOM     21  C   UNL     1      46.722   2.697   7.622  0.00  0.00    +0.000 A 
ATOM     22  C   UNL     1      46.520   4.062   7.526  0.00  0.00    +0.000 A 
ATOM     23  N   UNL     1      45.557   4.750   8.202  0.00  0.00    +0.000 NA
ATOM     24  C   UNL     1      44.717   4.065   9.021  0.00  0.00    +0.000 A 
BRANCH  21  25
ATOM     25  C   UNL     1      47.796   1.936   6.936  0.00  0.00    +0.000 C 
ATOM     26  N   UNL     1      48.682   2.595   6.131  0.00  0.00    +0.000 N 
ATOM     27  O   UNL     1      47.911   0.725   7.084  0.00  0.00    +0.000 OA
ATOM     28  H   UNL     1      48.697   3.589   5.959  0.00  0.00    +0.000 HD
ATOM     29  H   UNL     1      49.411   2.034   5.706  0.00  0.00    +0.000 HD
ENDBRANCH  21  25
ENDBRANCH  16  24
ENDBRANCH   1  16
TORSDOF 5
ENDMDL
MODEL 2
REMARK VINA RESULT:    -9.069      2.293      3.157
REMARK INTER + INTRA:         -11.624
REMARK INTER:                 -10.694
REMARK INTRA:                  -0.930
REMARK UNBOUND:                 0.096
REMARK  Name = 
REMARK  6 active torsions:
REMARK  status: ('A' for Active; 'I' for Inactive)
REMARK    1  A    between atoms: C_1  and  C_2
REMARK    2  A    between atoms: C_4  and  C_5
REMARK    3  A    between atoms: C_10  and  N_11
REMARK    4  A    between atoms: N_11  and  C_12
REMARK    5  A    between atoms: C_12  and  C_13
REMARK    6  A    between atoms: C_17  and  C_18
REMARK                            x       y       z     vdW  Elec       q    Type
REMARK                         _______ _______ _______ _____ _____    ______ ____
ROOT
ATOM      1  C   UNL     1      45.111   5.219  11.589  0.00  0.00    +0.000 C 
ATOM      2  C   UNL     1      45.690   4.040  12.347  0.00  0.00    +0.000 C 
ATOM      3  C   UNL     1      44.414   4.653  12.823  0.00  0.00    +0.000 C 
ENDROOT
BRANCH   1   4
ATOM      4  C   UNL     1      45.719   6.617  11.759  0.00  0.00    +0.000 A 
ATOM      5  C   UNL     1      44.908   7.756  11.841  0.00  0.00    +0.000 A 
ATOM      6  C   UNL     1      45.455   9.029  11.991  0.00  0.00    +0.000 A 
ATOM      7  C   UNL     1      46.837   9.190  12.091  0.00  0.00    +0.000 A 
ATOM      8  C   UNL     1      47.703   8.085  12.046  0.00  0.00    +0.000 A 
ATOM      9  C   UNL     1      47.117   6.813  11.854  0.00  0.00    +0.000 A 
BRANCH   8  10
ATOM     10  C   UNL     1      49.161   8.250  12.244  0.00  0.00    +0.000 A 
ATOM     11  C   UNL     1      50.098   8.005  11.235  0.00  0.00    +0.000 A 
ATOM     12  C   UNL     1      51.470   8.132  11.489  0.00  0.00    +0.000 A 
ATOM     13  C   UNL     1      51.873   8.521  12.752  0.00  0.00    +0.000 A 
ATOM     14  N   UNL     1      51.017   8.784  13.756  0.00  0.00    +0.000 NA
ATOM     15  C   UNL     1      49.696   8.640  13.477  0.00  0.00    +0.000 A 
ENDBRANCH   8  10
ENDBRANCH   1   4
BRANCH   1  16
ATOM     16  N   UNL     1      44.461   4.981  10.277  0.00  0.00    +0.000 N 
ATOM     17  H   UNL     1      43.913   5.760   9.939  0.00  0.00    +0.000 HD
BRANCH  16  24
ATOM     18  C   UNL     1      44.083   2.098   9.911  0.00  0.00    +0.000 C 
ATOM     19  C   UNL     1      45.060   2.920   9.118  0.00  0.00    +0.000 A 
ATOM     20  C   UNL     1      45.883   2.257   8.195  0.00  0.00    +0.000 A 
ATOM     21  C   UNL     1      46.771   2.968   7.388  0.00  0.00    +0.000 A 
ATOM     22  C   UNL     1      46.765   4.343   7.535  0.00  0.00    +0.000 A 
ATOM     23  N   UNL     1      45.991   5.022   8.427  0.00  0.00    +0.000 NA
ATOM     24  C   UNL     1      45.148   4.320   9.228  0.00  0.00    +0.000 A 
BRANCH  21  25
ATOM     25  C   UNL     1      47.642   2.205   6.460  0.00  0.00    +0.000 C 
ATOM     26  N   UNL     1      48.073   2.790   5.303  0.00  0.00    +0.000 N 
ATOM     27  O   UNL     1      47.993   1.059   6.716  0.00  0.00    +0.000 OA
ATOM     28  H   UNL     1      47.868   3.732   5.007  0.00  0.00    +0.000 HD
ATOM     29  H   UNL     1      48.686   2.236   4.717  0.00  0.00    +0.000 HD
ENDBRANCH  21  25
ENDBRANCH  16  24
ENDBRANCH   1  16
TORSDOF 5
ENDMDL
MODEL 3
REMARK VINA RESULT:    -8.952      2.211      3.650
REMARK INTER + INTRA:         -11.473
REMARK INTER:                 -10.158
REMARK INTRA:                  -1.314
REMARK UNBOUND:                 0.096
REMARK  Name = 
REMARK  6 active torsions:
REMARK  status: ('A' for Active; 'I' for Inactive)
REMARK    1  A    between atoms: C_1  and  C_2
REMARK    2  A    between atoms: C_4  and  C_5
REMARK    3  A    between atoms: C_10  and  N_11
REMARK    4  A    between atoms: N_11  and  C_12
REMARK    5  A    between atoms: C_12  and  C_13
REMARK    6  A    between atoms: C_17  and  C_18
REMARK                            x       y       z     vdW  Elec       q    Type
REMARK                         _______ _______ _______ _____ _____    ______ ____
ROOT
ATOM      1  C   UNL     1      43.727   5.068  11.278  0.00  0.00    +0.000 C 
ATOM      2  C   UNL     1      42.557   4.464  12.030  0.00  0.00    +0.000 C 
ATOM      3  C   UNL     1      42.545   5.925  11.721  0.00  0.00    +0.000 C 
ENDROOT
BRANCH   1   4
ATOM      4  C   UNL     1      45.050   5.342  12.004  0.00  0.00    +0.000 A 
ATOM      5  C   UNL     1      45.577   4.426  12.923  0.00  0.00    +0.000 A 
ATOM      6  C   UNL     1      46.777   4.672  13.589  0.00  0.00    +0.000 A 
ATOM      7  C   UNL     1      47.496   5.838  13.327  0.00  0.00    +0.000 A 
ATOM      8  C   UNL     1      47.037   6.783  12.396  0.00  0.00    +0.000 A 
ATOM      9  C   UNL     1      45.798   6.520  11.768  0.00  0.00    +0.000 A 
BRANCH   8  10
ATOM     10  C   UNL     1      47.848   7.973  12.054  0.00  0.00    +0.000 A 
ATOM     11  C   UNL     1      49.192   7.893  11.674  0.00  0.00    +0.000 A 
ATOM     12  C   UNL     1      49.928   9.054  11.405  0.00  0.00    +0.000 A 
ATOM     13  C   UNL     1      49.291  10.276  11.506  0.00  0.00    +0.000 A 
ATOM     14  N   UNL     1      47.998  10.412  11.853  0.00  0.00    +0.000 NA
ATOM     15  C   UNL     1      47.319   9.267  12.117  0.00  0.00    +0.000 A 
ENDBRANCH   8  10
ENDBRANCH   1   4
BRANCH   1  16
ATOM     16  N   UNL     1      43.862   4.802   9.824  0.00  0.00    +0.000 N 
ATOM     17  H   UNL     1      43.930   5.634   9.256  0.00  0.00    +0.000 HD
BRANCH  16  24
ATOM     18  C   UNL     1      46.382   5.484   8.493  0.00  0.00    +0.000 C 
ATOM     19  C   UNL     1      45.848   4.083   8.603  0.00  0.00    +0.000 A 
ATOM     20  C   UNL     1      46.565   3.053   7.978  0.00  0.00    +0.000 A 
ATOM     21  C   UNL     1      46.154   1.724   8.090  0.00  0.00    +0.000 A 
ATOM     22  C   UNL     1      45.033   1.494   8.866  0.00  0.00    +0.000 A 
ATOM     23  N   UNL     1      44.304   2.467   9.479  0.00  0.00    +0.000 NA
ATOM     24  C   UNL     1      44.695   3.761   9.343  0.00  0.00    +0.000 A 
BRANCH  21  25
ATOM     25  C   UNL     1      46.933   0.684   7.372  0.00  0.00    +0.000 C 
ATOM     26  N   UNL     1      46.658  -0.636   7.589  0.00  0.00    +0.000 N 
ATOM     27  O   UNL     1      47.815   0.987   6.577  0.00  0.00    +0.000 OA
ATOM     28  H   UNL     1      45.939  -0.996   8.199  0.00  0.00    +0.000 HD
ATOM     29  H   UNL     1      47.200  -1.305   7.057  0.00  0.00    +0.000 HD
ENDBRANCH  21  25
ENDBRANCH  16  24
ENDBRANCH   1  16
TORSDOF 5
ENDMDL
MODEL 4
REMARK VINA RESULT:    -7.880      2.802      6.979
REMARK INTER + INTRA:         -10.088
REMARK INTER:                  -8.922
REMARK INTRA:                  -1.165
REMARK UNBOUND:                 0.096
REMARK  Name = 
REMARK  6 active torsions:
REMARK  status: ('A' for Active; 'I' for Inactive)
REMARK    1  A    between atoms: C_1  and  C_2
REMARK    2  A    between atoms: C_4  and  C_5
REMARK    3  A    between atoms: C_10  and  N_11
REMARK    4  A    between atoms: N_11  and  C_12
REMARK    5  A    between atoms: C_12  and  C_13
REMARK    6  A    between atoms: C_17  and  C_18
REMARK                            x       y       z     vdW  Elec       q    Type
REMARK                         _______ _______ _______ _____ _____    ______ ____
ROOT
ATOM      1  C   UNL     1      43.707   5.765  11.789  0.00  0.00    +0.000 C 
ATOM      2  C   UNL     1      43.275   6.906  10.887  0.00  0.00    +0.000 C 
ATOM      3  C   UNL     1      42.266   6.267  11.785  0.00  0.00    +0.000 C 
ENDROOT
BRANCH   1   4
ATOM      4  C   UNL     1      43.918   4.362  11.207  0.00  0.00    +0.000 A 
ATOM      5  C   UNL     1      43.258   3.247  11.742  0.00  0.00    +0.000 A 
ATOM      6  C   UNL     1      43.449   1.969  11.220  0.00  0.00    +0.000 A 
ATOM      7  C   UNL     1      44.291   1.780  10.124  0.00  0.00    +0.000 A 
ATOM      8  C   UNL     1      44.958   2.859   9.523  0.00  0.00    +0.000 A 
ATOM      9  C   UNL     1      44.772   4.135  10.102  0.00  0.00    +0.000 A 
BRANCH   8  10
ATOM     10  C   UNL     1      45.776   2.667   8.304  0.00  0.00    +0.000 A 
ATOM     11  C   UNL     1      45.959   3.670   7.346  0.00  0.00    +0.000 A 
ATOM     12  C   UNL     1      46.706   3.422   6.187  0.00  0.00    +0.000 A 
ATOM     13  C   UNL     1      47.271   2.172   6.023  0.00  0.00    +0.000 A 
ATOM     14  N   UNL     1      47.141   1.175   6.917  0.00  0.00    +0.000 NA
ATOM     15  C   UNL     1      46.401   1.447   8.023  0.00  0.00    +0.000 A 
ENDBRANCH   8  10
ENDBRANCH   1   4
BRANCH   1  16
ATOM     16  N   UNL     1      44.525   6.068  12.989  0.00  0.00    +0.000 N 
ATOM     17  H   UNL     1      44.396   5.418  13.752  0.00  0.00    +0.000 HD
BRANCH  16  24
ATOM     18  C   UNL     1      46.674   4.144  13.510  0.00  0.00    +0.000 C 
ATOM     19  C   UNL     1      46.908   5.603  13.230  0.00  0.00    +0.000 A 
ATOM     20  C   UNL     1      48.225   6.082  13.284  0.00  0.00    +0.000 A 
ATOM     21  C   UNL     1      48.516   7.412  12.980  0.00  0.00    +0.000 A 
ATOM     22  C   UNL     1      47.445   8.202  12.601  0.00  0.00    +0.000 A 
ATOM     23  N   UNL     1      46.152   7.777  12.547  0.00  0.00    +0.000 NA
ATOM     24  C   UNL     1      45.874   6.487  12.871  0.00  0.00    +0.000 A 
BRANCH  21  25
ATOM     25  C   UNL     1      49.924   7.868  13.094  0.00  0.00    +0.000 C 
ATOM     26  N   UNL     1      50.655   7.532  14.198  0.00  0.00    +0.000 N 
ATOM     27  O   UNL     1      50.449   8.536  12.210  0.00  0.00    +0.000 OA
ATOM     28  H   UNL     1      50.333   6.967  14.969  0.00  0.00    +0.000 HD
ATOM     29  H   UNL     1      51.618   7.846  14.216  0.00  0.00    +0.000 HD
ENDBRANCH  21  25
ENDBRANCH  16  24
ENDBRANCH   1  16
TORSDOF 5
ENDMDL
MODEL 5
REMARK VINA RESULT:    -7.815      2.906      7.567
REMARK INTER + INTRA:         -10.004
REMARK INTER:                  -9.792
REMARK INTRA:                  -0.212
REMARK UNBOUND:                 0.096
REMARK  Name = 
REMARK  6 active torsions:
REMARK  status: ('A' for Active; 'I' for Inactive)
REMARK    1  A    between atoms: C_1  and  C_2
REMARK    2  A    between atoms: C_4  and  C_5
REMARK    3  A    between atoms: C_10  and  N_11
REMARK    4  A    between atoms: N_11  and  C_12
REMARK    5  A    between atoms: C_12  and  C_13
REMARK    6  A    between atoms: C_17  and  C_18
REMARK                            x       y       z     vdW  Elec       q    Type
REMARK                         _______ _______ _______ _____ _____    ______ ____
ROOT
ATOM      1  C   UNL     1      46.310   7.440  12.239  0.00  0.00    +0.000 C 
ATOM      2  C   UNL     1      46.292   8.906  11.846  0.00  0.00    +0.000 C 
ATOM      3  C   UNL     1      45.590   8.479  13.094  0.00  0.00    +0.000 C 
ENDROOT
BRANCH   1   4
ATOM      4  C   UNL     1      45.402   6.439  11.515  0.00  0.00    +0.000 A 
ATOM      5  C   UNL     1      44.014   6.445  11.707  0.00  0.00    +0.000 A 
ATOM      6  C   UNL     1      43.185   5.534  11.055  0.00  0.00    +0.000 A 
ATOM      7  C   UNL     1      43.727   4.606  10.166  0.00  0.00    +0.000 A 
ATOM      8  C   UNL     1      45.107   4.566   9.907  0.00  0.00    +0.000 A 
ATOM      9  C   UNL     1      45.923   5.478  10.615  0.00  0.00    +0.000 A 
BRANCH   8  10
ATOM     10  C   UNL     1      45.666   3.642   8.895  0.00  0.00    +0.000 A 
ATOM     11  C   UNL     1      46.214   4.081   7.685  0.00  0.00    +0.000 A 
ATOM     12  C   UNL     1      46.688   3.161   6.741  0.00  0.00    +0.000 A 
ATOM     13  C   UNL     1      46.620   1.814   7.041  0.00  0.00    +0.000 A 
ATOM     14  N   UNL     1      46.117   1.336   8.194  0.00  0.00    +0.000 NA
ATOM     15  C   UNL     1      45.656   2.255   9.081  0.00  0.00    +0.000 A 
ENDBRANCH   8  10
ENDBRANCH   1   4
BRANCH   1  16
ATOM     16  N   UNL     1      47.559   6.859  12.790  0.00  0.00    +0.000 N 
ATOM     17  H   UNL     1      48.357   7.478  12.746  0.00  0.00    +0.000 HD
BRANCH  16  24
ATOM     18  C   UNL     1      49.014   7.833  15.140  0.00  0.00    +0.000 C 
ATOM     19  C   UNL     1      48.336   6.493  15.073  0.00  0.00    +0.000 A 
ATOM     20  C   UNL     1      48.462   5.634  16.175  0.00  0.00    +0.000 A 
ATOM     21  C   UNL     1      47.812   4.401  16.199  0.00  0.00    +0.000 A 
ATOM     22  C   UNL     1      47.028   4.100  15.100  0.00  0.00    +0.000 A 
ATOM     23  N   UNL     1      46.890   4.901  14.007  0.00  0.00    +0.000 NA
ATOM     24  C   UNL     1      47.548   6.089  13.979  0.00  0.00    +0.000 A 
BRANCH  21  25
ATOM     25  C   UNL     1      48.017   3.520  17.377  0.00  0.00    +0.000 C 
ATOM     26  N   UNL     1      47.020   2.671  17.767  0.00  0.00    +0.000 N 
ATOM     27  O   UNL     1      49.070   3.533  18.003  0.00  0.00    +0.000 OA
ATOM     28  H   UNL     1      46.127   2.560  17.311  0.00  0.00    +0.000 HD
ATOM     29  H   UNL     1      47.220   2.075  18.560  0.00  0.00    +0.000 HD
ENDBRANCH  21  25
ENDBRANCH  16  24
ENDBRANCH   1  16
TORSDOF 5
ENDMDL
MODEL 6
REMARK VINA RESULT:    -7.763      3.721      8.084
REMARK INTER + INTRA:          -9.936
REMARK INTER:                  -8.734
REMARK INTRA:                  -1.202
REMARK UNBOUND:                 0.096
REMARK  Name = 
REMARK  6 active torsions:
REMARK  status: ('A' for Active; 'I' for Inactive)
REMARK    1  A    between atoms: C_1  and  C_2
REMARK    2  A    between atoms: C_4  and  C_5
REMARK    3  A    between atoms: C_10  and  N_11
REMARK    4  A    between atoms: N_11  and  C_12
REMARK    5  A    between atoms: C_12  and  C_13
REMARK    6  A    between atoms: C_17  and  C_18
REMARK                            x       y       z     vdW  Elec       q    Type
REMARK                         _______ _______ _______ _____ _____    ______ ____
ROOT
ATOM      1  C   UNL     1      49.066   7.235  16.895  0.00  0.00    +0.000 C 
ATOM      2  C   UNL     1      49.982   8.292  17.481  0.00  0.00    +0.000 C 
ATOM      3  C   UNL     1      48.508   8.530  17.479  0.00  0.00    +0.000 C 
ENDROOT
BRANCH   1   4
ATOM      4  C   UNL     1      48.935   7.088  15.374  0.00  0.00    +0.000 A 
ATOM      5  C   UNL     1      49.860   7.681  14.505  0.00  0.00    +0.000 A 
ATOM      6  C   UNL     1      49.744   7.555  13.122  0.00  0.00    +0.000 A 
ATOM      7  C   UNL     1      48.706   6.801  12.573  0.00  0.00    +0.000 A 
ATOM      8  C   UNL     1      47.763   6.157  13.390  0.00  0.00    +0.000 A 
ATOM      9  C   UNL     1      47.888   6.339  14.786  0.00  0.00    +0.000 A 
BRANCH   8  10
ATOM     10  C   UNL     1      46.719   5.283  12.808  0.00  0.00    +0.000 A 
ATOM     11  C   UNL     1      45.931   5.665  11.717  0.00  0.00    +0.000 A 
ATOM     12  C   UNL     1      44.925   4.820  11.233  0.00  0.00    +0.000 A 
ATOM     13  C   UNL     1      44.742   3.595  11.846  0.00  0.00    +0.000 A 
ATOM     14  N   UNL     1      45.478   3.170  12.889  0.00  0.00    +0.000 NA
ATOM     15  C   UNL     1      46.437   4.020  13.338  0.00  0.00    +0.000 A 
ENDBRANCH   8  10
ENDBRANCH   1   4
BRANCH   1  16
ATOM     16  N   UNL     1      48.825   5.988  17.661  0.00  0.00    +0.000 N 
ATOM     17  H   UNL     1      47.851   5.726  17.730  0.00  0.00    +0.000 HD
BRANCH  16  24
ATOM     18  C   UNL     1      47.632   3.375  17.079  0.00  0.00    +0.000 C 
ATOM     19  C   UNL     1      49.096   3.584  17.345  0.00  0.00    +0.000 A 
ATOM     20  C   UNL     1      49.928   2.455  17.379  0.00  0.00    +0.000 A 
ATOM     21  C   UNL     1      51.305   2.586  17.564  0.00  0.00    +0.000 A 
ATOM     22  C   UNL     1      51.787   3.877  17.681  0.00  0.00    +0.000 A 
ATOM     23  N   UNL     1      51.011   4.996  17.665  0.00  0.00    +0.000 NA
ATOM     24  C   UNL     1      49.669   4.859  17.510  0.00  0.00    +0.000 A 
BRANCH  21  25
ATOM     25  C   UNL     1      52.126   1.351  17.631  0.00  0.00    +0.000 C 
ATOM     26  N   UNL     1      51.574   0.198  18.113  0.00  0.00    +0.000 N 
ATOM     27  O   UNL     1      53.290   1.342  17.250  0.00  0.00    +0.000 OA
ATOM     28  H   UNL     1      50.622   0.086  18.427  0.00  0.00    +0.000 HD
ATOM     29  H   UNL     1      52.168  -0.622  18.114  0.00  0.00    +0.000 HD
ENDBRANCH  21  25
ENDBRANCH  16  24
ENDBRANCH   1  16
TORSDOF 5
ENDMDL
MODEL 7
REMARK VINA RESULT:    -7.671      4.146      6.734
REMARK INTER + INTRA:          -9.818
REMARK INTER:                  -8.758
REMARK INTRA:                  -1.060
REMARK UNBOUND:                 0.096
REMARK  Name = 
REMARK  6 active torsions:
REMARK  status: ('A' for Active; 'I' for Inactive)
REMARK    1  A    between atoms: C_1  and  C_2
REMARK    2  A    between atoms: C_4  and  C_5
REMARK    3  A    between atoms: C_10  and  N_11
REMARK    4  A    between atoms: N_11  and  C_12
REMARK    5  A    between atoms: C_12  and  C_13
REMARK    6  A    between atoms: C_17  and  C_18
REMARK                            x       y       z     vdW  Elec       q    Type
REMARK                         _______ _______ _______ _____ _____    ______ ____
ROOT
ATOM      1  C   UNL     1      49.079   7.615  15.550  0.00  0.00    +0.000 C 
ATOM      2  C   UNL     1      48.513   9.012  15.723  0.00  0.00    +0.000 C 
ATOM      3  C   UNL     1      49.993   8.835  15.631  0.00  0.00    +0.000 C 
ENDROOT
BRANCH   1   4
ATOM      4  C   UNL     1      49.149   6.659  16.747  0.00  0.00    +0.000 A 
ATOM      5  C   UNL     1      48.319   6.832  17.863  0.00  0.00    +0.000 A 
ATOM      6  C   UNL     1      48.381   5.969  18.956  0.00  0.00    +0.000 A 
ATOM      7  C   UNL     1      49.261   4.887  18.944  0.00  0.00    +0.000 A 
ATOM      8  C   UNL     1      50.098   4.641  17.843  0.00  0.00    +0.000 A 
ATOM      9  C   UNL     1      50.038   5.558  16.769  0.00  0.00    +0.000 A 
BRANCH   8  10
ATOM     10  C   UNL     1      50.963   3.440  17.796  0.00  0.00    +0.000 A 
ATOM     11  C   UNL     1      52.289   3.441  18.242  0.00  0.00    +0.000 A 
ATOM     12  C   UNL     1      53.080   2.290  18.132  0.00  0.00    +0.000 A 
ATOM     13  C   UNL     1      52.514   1.152  17.590  0.00  0.00    +0.000 A 
ATOM     14  N   UNL     1      51.242   1.089  17.157  0.00  0.00    +0.000 NA
ATOM     15  C   UNL     1      50.508   2.226  17.270  0.00  0.00    +0.000 A 
ENDBRANCH   8  10
ENDBRANCH   1   4
BRANCH   1  16
ATOM     16  N   UNL     1      48.956   6.948  14.230  0.00  0.00    +0.000 N 
ATOM     17  H   UNL     1      49.776   6.429  13.952  0.00  0.00    +0.000 HD
BRANCH  16  24
ATOM     18  C   UNL     1      47.072   8.336  12.466  0.00  0.00    +0.000 C 
ATOM     19  C   UNL     1      46.798   6.998  13.095  0.00  0.00    +0.000 A 
ATOM     20  C   UNL     1      45.542   6.412  12.876  0.00  0.00    +0.000 A 
ATOM     21  C   UNL     1      45.245   5.147  13.384  0.00  0.00    +0.000 A 
ATOM     22  C   UNL     1      46.259   4.513  14.079  0.00  0.00    +0.000 A 
ATOM     23  N   UNL     1      47.485   5.054  14.323  0.00  0.00    +0.000 NA
ATOM     24  C   UNL     1      47.758   6.296  13.847  0.00  0.00    +0.000 A 
BRANCH  21  25
ATOM     25  C   UNL     1      43.886   4.598  13.152  0.00  0.00    +0.000 C 
ATOM     26  N   UNL     1      42.814   5.444  13.105  0.00  0.00    +0.000 N 
ATOM     27  O   UNL     1      43.705   3.397  12.991  0.00  0.00    +0.000 OA
ATOM     28  H   UNL     1      42.850   6.448  13.198  0.00  0.00    +0.000 HD
ATOM     29  H   UNL     1      41.913   5.022  12.919  0.00  0.00    +0.000 HD
ENDBRANCH  21  25
ENDBRANCH  16  24
ENDBRANCH   1  16
TORSDOF 5
ENDMDL
MODEL 8
REMARK VINA RESULT:    -7.647      2.910      7.775
REMARK INTER + INTRA:          -9.786
REMARK INTER:                  -9.444
REMARK INTRA:                  -0.342
REMARK UNBOUND:                 0.096
REMARK  Name = 
REMARK  6 active torsions:
REMARK  status: ('A' for Active; 'I' for Inactive)
REMARK    1  A    between atoms: C_1  and  C_2
REMARK    2  A    between atoms: C_4  and  C_5
REMARK    3  A    between atoms: C_10  and  N_11
REMARK    4  A    between atoms: N_11  and  C_12
REMARK    5  A    between atoms: C_12  and  C_13
REMARK    6  A    between atoms: C_17  and  C_18
REMARK                            x       y       z     vdW  Elec       q    Type
REMARK                         _______ _______ _______ _____ _____    ______ ____
ROOT
ATOM      1  C   UNL     1      48.757   7.839  12.738  0.00  0.00    +0.000 C 
ATOM      2  C   UNL     1      49.920   7.368  11.885  0.00  0.00    +0.000 C 
ATOM      3  C   UNL     1      49.570   8.820  11.898  0.00  0.00    +0.000 C 
ENDROOT
BRANCH   1   4
ATOM      4  C   UNL     1      47.316   7.606  12.270  0.00  0.00    +0.000 A 
ATOM      5  C   UNL     1      46.313   8.555  12.510  0.00  0.00    +0.000 A 
ATOM      6  C   UNL     1      45.000   8.347  12.091  0.00  0.00    +0.000 A 
ATOM      7  C   UNL     1      44.664   7.188  11.391  0.00  0.00    +0.000 A 
ATOM      8  C   UNL     1      45.628   6.213  11.092  0.00  0.00    +0.000 A 
ATOM      9  C   UNL     1      46.941   6.437  11.566  0.00  0.00    +0.000 A 
BRANCH   8  10
ATOM     10  C   UNL     1      45.288   5.029  10.270  0.00  0.00    +0.000 A 
ATOM     11  C   UNL     1      45.668   4.900   8.930  0.00  0.00    +0.000 A 
ATOM     12  C   UNL     1      45.279   3.780   8.183  0.00  0.00    +0.000 A 
ATOM     13  C   UNL     1      44.530   2.800   8.806  0.00  0.00    +0.000 A 
ATOM     14  N   UNL     1      44.148   2.865  10.095  0.00  0.00    +0.000 NA
ATOM     15  C   UNL     1      44.533   3.969  10.785  0.00  0.00    +0.000 A 
ENDBRANCH   8  10
ENDBRANCH   1   4
BRANCH   1  16
ATOM     16  N   UNL     1      48.928   7.907  14.210  0.00  0.00    +0.000 N 
ATOM     17  H   UNL     1      48.755   8.821  14.605  0.00  0.00    +0.000 HD
BRANCH  16  24
ATOM     18  C   UNL     1      49.203   8.181  17.115  0.00  0.00    +0.000 C 
ATOM     19  C   UNL     1      48.691   6.941  16.438  0.00  0.00    +0.000 A 
ATOM     20  C   UNL     1      48.388   5.829  17.238  0.00  0.00    +0.000 A 
ATOM     21  C   UNL     1      47.856   4.668  16.678  0.00  0.00    +0.000 A 
ATOM     22  C   UNL     1      47.625   4.695  15.315  0.00  0.00    +0.000 A 
ATOM     23  N   UNL     1      47.916   5.749  14.503  0.00  0.00    +0.000 NA
ATOM     24  C   UNL     1      48.459   6.867  15.052  0.00  0.00    +0.000 A 
BRANCH  21  25
ATOM     25  C   UNL     1      47.594   3.512  17.573  0.00  0.00    +0.000 C 
ATOM     26  N   UNL     1      48.470   3.227  18.582  0.00  0.00    +0.000 N 
ATOM     27  O   UNL     1      46.598   2.812  17.430  0.00  0.00    +0.000 OA
ATOM     28  H   UNL     1      49.303   3.750  18.805  0.00  0.00    +0.000 HD
ATOM     29  H   UNL     1      48.232   2.444  19.178  0.00  0.00    +0.000 HD
ENDBRANCH  21  25
ENDBRANCH  16  24
ENDBRANCH   1  16
TORSDOF 5
ENDMDL
MODEL 9
REMARK VINA RESULT:    -7.060      3.114      8.119
REMARK INTER + INTRA:          -9.027
REMARK INTER:                  -7.972
REMARK INTRA:                  -1.055
REMARK UNBOUND:                 0.096
REMARK  Name = 
REMARK  6 active torsions:
REMARK  status: ('A' for Active; 'I' for Inactive)
REMARK    1  A    between atoms: C_1  and  C_2
REMARK    2  A    between atoms: C_4  and  C_5
REMARK    3  A    between atoms: C_10  and  N_11
REMARK    4  A    between atoms: N_11  and  C_12
REMARK    5  A    between atoms: C_12  and  C_13
REMARK    6  A    between atoms: C_17  and  C_18
REMARK                            x       y       z     vdW  Elec       q    Type
REMARK                         _______ _______ _______ _____ _____    ______ ____
ROOT
ATOM      1  C   UNL     1      48.784   7.982  12.957  0.00  0.00    +0.000 C 
ATOM      2  C   UNL     1      49.954   7.311  12.264  0.00  0.00    +0.000 C 
ATOM      3  C   UNL     1      49.660   8.745  11.968  0.00  0.00    +0.000 C 
ENDROOT
BRANCH   1   4
ATOM      4  C   UNL     1      47.350   7.704  12.490  0.00  0.00    +0.000 A 
ATOM      5  C   UNL     1      46.306   8.591  12.783  0.00  0.00    +0.000 A 
ATOM      6  C   UNL     1      45.000   8.341  12.365  0.00  0.00    +0.000 A 
ATOM      7  C   UNL     1      44.712   7.201  11.613  0.00  0.00    +0.000 A 
ATOM      8  C   UNL     1      45.719   6.288  11.261  0.00  0.00    +0.000 A 
ATOM      9  C   UNL     1      47.024   6.552  11.735  0.00  0.00    +0.000 A 
BRANCH   8  10
ATOM     10  C   UNL     1      45.426   5.130  10.386  0.00  0.00    +0.000 A 
ATOM     11  C   UNL     1      44.844   3.949  10.859  0.00  0.00    +0.000 A 
ATOM     12  C   UNL     1      44.631   2.864   9.999  0.00  0.00    +0.000 A 
ATOM     13  C   UNL     1      44.991   2.995   8.671  0.00  0.00    +0.000 A 
ATOM     14  N   UNL     1      45.540   4.112   8.158  0.00  0.00    +0.000 NA
ATOM     15  C   UNL     1      45.743   5.139   9.024  0.00  0.00    +0.000 A 
ENDBRANCH   8  10
ENDBRANCH   1   4
BRANCH   1  16
ATOM     16  N   UNL     1      48.909   8.345  14.391  0.00  0.00    +0.000 N 
ATOM     17  H   UNL     1      48.191   8.973  14.723  0.00  0.00    +0.000 HD
BRANCH  16  24
ATOM     18  C   UNL     1      51.628   8.331  15.483  0.00  0.00    +0.000 C 
ATOM     19  C   UNL     1      50.592   7.292  15.808  0.00  0.00    +0.000 A 
ATOM     20  C   UNL     1      50.969   6.219  16.630  0.00  0.00    +0.000 A 
ATOM     21  C   UNL     1      50.041   5.252  17.014  0.00  0.00    +0.000 A 
ATOM     22  C   UNL     1      48.745   5.433  16.564  0.00  0.00    +0.000 A 
ATOM     23  N   UNL     1      48.344   6.453  15.756  0.00  0.00    +0.000 NA
ATOM     24  C   UNL     1      49.259   7.376  15.364  0.00  0.00    +0.000 A 
BRANCH  21  25
ATOM     25  C   UNL     1      50.510   4.120  17.853  0.00  0.00    +0.000 C 
ATOM     26  N   UNL     1      49.618   3.177  18.277  0.00  0.00    +0.000 N 
ATOM     27  O   UNL     1      51.690   4.009  18.166  0.00  0.00    +0.000 OA
ATOM     28  H   UNL     1      48.633   3.156  18.057  0.00  0.00    +0.000 HD
ATOM     29  H   UNL     1      49.993   2.413  18.824  0.00  0.00    +0.000 HD
ENDBRANCH  21  25
ENDBRANCH  16  24
ENDBRANCH   1  16
TORSDOF 5
ENDMDL
