MODEL 1
REMARK VINA RESULT:    -9.792      0.000      0.000
REMARK INTER + INTRA:         -12.745
REMARK INTER:                 -12.368
REMARK INTRA:                  -0.378
REMARK UNBOUND:                -0.378
REMARK  Name = 
REMARK  7 active torsions:
REMARK  status: ('A' for Active; 'I' for Inactive)
REMARK    1  A    between atoms: C_1  and  C_2
REMARK    2  A    between atoms: C_2  and  C_3
REMARK    3  A    between atoms: C_2  and  C_14
REMARK    4  A    between atoms: C_3  and  N_4
REMARK    5  A    between atoms: C_8  and  C_9
REMARK    6  A    between atoms: C_24  and  C_25
REMARK    7  A    between atoms: C_24  and  O_26
REMARK                            x       y       z     vdW  Elec       q    Type
REMARK                         _______ _______ _______ _____ _____    ______ ____
ROOT
ATOM      1  C   UNL     1      42.953   5.420  12.523  0.00  0.00    +0.000 C 
ATOM      2  C   UNL     1      43.942   4.293  12.816  0.00  0.00    +0.000 C 
ENDROOT
BRANCH   2   3
ATOM      3  C   UNL     1      45.328   4.865  13.083  0.00  0.00    +0.000 A 
ATOM      4  C   UNL     1      45.968   5.612  12.118  0.00  0.00    +0.000 A 
ATOM      5  C   UNL     1      47.197   6.109  12.469  0.00  0.00    +0.000 A 
ATOM      6  N   UNL     1      47.767   5.903  13.668  0.00  0.00    +0.000 NA
ATOM      7  C   UNL     1      47.107   5.138  14.554  0.00  0.00    +0.000 A 
ATOM      8  N   UNL     1      47.740   4.842  15.745  0.00  0.00    +0.000 N 
ATOM      9  C   UNL     1      48.625   5.869  16.298  0.00  0.00    +0.000 C 
ATOM     10  C   UNL     1      49.680   5.227  17.203  0.00  0.00    +0.000 C 
ATOM     11  F   UNL     1      50.349   6.206  17.876  0.00  0.00    +0.000 F 
ATOM     12  C   UNL     1      49.060   4.282  18.225  0.00  0.00    +0.000 C 
ATOM     13  C   UNL     1      48.118   3.255  17.579  0.00  0.00    +0.000 C 
ATOM     14  C   UNL     1      48.883   2.233  16.723  0.00  0.00    +0.000 C 
ATOM     15  C   UNL     1      47.057   3.991  16.717  0.00  0.00    +0.000 C 
ATOM     16  N   UNL     1      45.904   4.606  14.280  0.00  0.00    +0.000 NA
BRANCH  13  17
ATOM     17  O   UNL     1      47.456   2.540  18.632  0.00  0.00    +0.000 OA
ATOM     18  H   UNL     1      46.646   3.029  18.864  0.00  0.00    +0.000 HD
ENDBRANCH  13  17
ENDBRANCH   2   3
BRANCH   2  19
ATOM     19  C   UNL     1      44.011   3.259  11.672  0.00  0.00    +0.000 C 
BRANCH  19  20
ATOM     20  N   UNL     1      43.925   3.881  10.349  0.00  0.00    +0.000 N 
ATOM     21  C   UNL     1      44.836   3.457   9.385  0.00  0.00    +0.000 A 
ATOM     22  C   UNL     1      45.255   2.137   9.265  0.00  0.00    +0.000 A 
ATOM     23  C   UNL     1      46.140   1.778   8.251  0.00  0.00    +0.000 A 
ATOM     24  C   UNL     1      46.577   2.736   7.341  0.00  0.00    +0.000 A 
ATOM     25  C   UNL     1      46.101   4.026   7.519  0.00  0.00    +0.000 A 
ATOM     26  N   UNL     1      45.253   4.403   8.518  0.00  0.00    +0.000 NA
ATOM     27  H   UNL     1      43.953   4.898  10.331  0.00  0.00    +0.000 HD
BRANCH  24  28
ATOM     28  C   UNL     1      47.500   2.316   6.257  0.00  0.00    +0.000 C 
ATOM     29  N   UNL     1      47.438   2.944   5.047  0.00  0.00    +0.000 N 
ATOM     30  O   UNL     1      48.309   1.411   6.428  0.00  0.00    +0.000 OA
ATOM     31  H   UNL     1      46.799   3.678   4.787  0.00  0.00    +0.000 HD
ATOM     32  H   UNL     1      48.080   2.610   4.338  0.00  0.00    +0.000 HD
ENDBRANCH  24  28
ENDBRANCH  19  20
ENDBRANCH   2  19
TORSDOF 5
ENDMDL
MODEL 2
REMARK VINA RESULT:    -9.294      2.827      3.503
REMARK INTER + INTRA:         -12.116
REMARK INTER:                 -11.382
REMARK INTRA:                  -0.734
REMARK UNBOUND:                -0.378
REMARK  Name = 
REMARK  7 active torsions:
REMARK  status: ('A' for Active; 'I' for Inactive)
REMARK    1  A    between atoms: C_1  and  C_2
REMARK    2  A    between atoms: C_2  and  C_3
REMARK    3  A    between atoms: C_2  and  C_14
REMARK    4  A    between atoms: C_3  and  N_4
REMARK    5  A    between atoms: C_8  and  C_9
REMARK    6  A    between atoms: C_24  and  C_25
REMARK    7  A    between atoms: C_24  and  O_26
REMARK                            x       y       z     vdW  Elec       q    Type
REMARK                         _______ _______ _______ _____ _____    ______ ____
ROOT
ATOM      1  C   UNL     1      44.217   7.343  11.367  0.00  0.00    +0.000 C 
ATOM      2  C   UNL     1      44.060   6.018  12.112  0.00  0.00    +0.000 C 
ENDROOT
BRANCH   2   3
ATOM      3  C   UNL     1      45.369   5.640  12.792  0.00  0.00    +0.000 A 
ATOM      4  C   UNL     1      45.653   4.319  13.066  0.00  0.00    +0.000 A 
ATOM      5  C   UNL     1      46.870   4.082  13.650  0.00  0.00    +0.000 A 
ATOM      6  N   UNL     1      47.755   5.049  13.946  0.00  0.00    +0.000 NA
ATOM      7  C   UNL     1      47.405   6.320  13.685  0.00  0.00    +0.000 A 
ATOM      8  N   UNL     1      48.270   7.319  14.085  0.00  0.00    +0.000 N 
ATOM      9  C   UNL     1      49.701   7.012  14.045  0.00  0.00    +0.000 C 
ATOM     10  C   UNL     1      50.460   7.893  15.040  0.00  0.00    +0.000 C 
ATOM     11  F   UNL     1      51.800   7.752  14.834  0.00  0.00    +0.000 F 
ATOM     12  C   UNL     1      50.105   9.367  14.886  0.00  0.00    +0.000 C 
ATOM     13  C   UNL     1      48.589   9.611  14.903  0.00  0.00    +0.000 C 
ATOM     14  C   UNL     1      47.980   9.350  16.290  0.00  0.00    +0.000 C 
ATOM     15  C   UNL     1      47.904   8.712  13.838  0.00  0.00    +0.000 C 
ATOM     16  N   UNL     1      46.225   6.635  13.125  0.00  0.00    +0.000 NA
BRANCH  13  17
ATOM     17  O   UNL     1      48.359  10.989  14.574  0.00  0.00    +0.000 OA
ATOM     18  H   UNL     1      49.084  11.514  14.958  0.00  0.00    +0.000 HD
ENDBRANCH  13  17
ENDBRANCH   2   3
BRANCH   2  19
ATOM     19  C   UNL     1      43.597   4.874  11.187  0.00  0.00    +0.000 C 
BRANCH  19  20
ATOM     20  N   UNL     1      43.944   5.113   9.784  0.00  0.00    +0.000 N 
ATOM     21  C   UNL     1      44.783   4.187   9.169  0.00  0.00    +0.000 A 
ATOM     22  C   UNL     1      44.718   2.822   9.419  0.00  0.00    +0.000 A 
ATOM     23  C   UNL     1      45.565   1.950   8.737  0.00  0.00    +0.000 A 
ATOM     24  C   UNL     1      46.448   2.446   7.784  0.00  0.00    +0.000 A 
ATOM     25  C   UNL     1      46.441   3.817   7.582  0.00  0.00    +0.000 A 
ATOM     26  N   UNL     1      45.637   4.690   8.254  0.00  0.00    +0.000 NA
ATOM     27  H   UNL     1      44.334   6.027   9.570  0.00  0.00    +0.000 HD
BRANCH  24  28
ATOM     28  C   UNL     1      47.319   1.487   7.057  0.00  0.00    +0.000 C 
ATOM     29  N   UNL     1      48.349   1.964   6.300  0.00  0.00    +0.000 N 
ATOM     30  O   UNL     1      47.121   0.279   7.119  0.00  0.00    +0.000 OA
ATOM     31  H   UNL     1      48.587   2.932   6.157  0.00  0.00    +0.000 HD
ATOM     32  H   UNL     1      48.904   1.269   5.815  0.00  0.00    +0.000 HD
ENDBRANCH  24  28
ENDBRANCH  19  20
ENDBRANCH   2  19
TORSDOF 5
ENDMDL
MODEL 3
REMARK VINA RESULT:    -8.363      2.761      3.349
REMARK INTER + INTRA:         -10.941
REMARK INTER:                 -10.562
REMARK INTRA:                  -0.379
REMARK UNBOUND:                -0.378
REMARK  Name = 
REMARK  7 active torsions:
REMARK  status: ('A' for Active; 'I' for Inactive)
REMARK    1  A    between atoms: C_1  and  C_2
REMARK    2  A    between atoms: C_2  and  C_3
REMARK    3  A    between atoms: C_2  and  C_14
REMARK    4  A    between atoms: C_3  and  N_4
REMARK    5  A    between atoms: C_8  and  C_9
REMARK    6  A    between atoms: C_24  and  C_25
REMARK    7  A    between atoms: C_24  and  O_26
REMARK                            x       y       z     vdW  Elec       q    Type
REMARK                         _______ _______ _______ _____ _____    ______ ____
ROOT
ATOM      1  C   UNL     1      45.570   4.130  13.116  0.00  0.00    +0.000 C 
ATOM      2  C   UNL     1      45.491   5.075  11.917  0.00  0.00    +0.000 C 
ENDROOT
BRANCH   2   3
ATOM      3  C   UNL     1      45.778   6.505  12.355  0.00  0.00    +0.000 A 
ATOM      4  C   UNL     1      44.976   7.538  11.919  0.00  0.00    +0.000 A 
ATOM      5  C   UNL     1      45.299   8.782  12.396  0.00  0.00    +0.000 A 
ATOM      6  N   UNL     1      46.321   9.015  13.237  0.00  0.00    +0.000 NA
ATOM      7  C   UNL     1      47.086   7.970  13.598  0.00  0.00    +0.000 A 
ATOM      8  N   UNL     1      48.196   8.227  14.378  0.00  0.00    +0.000 N 
ATOM      9  C   UNL     1      48.091   9.325  15.340  0.00  0.00    +0.000 C 
ATOM     10  C   UNL     1      49.480   9.884  15.660  0.00  0.00    +0.000 C 
ATOM     11  F   UNL     1      49.386  10.747  16.712  0.00  0.00    +0.000 F 
ATOM     12  C   UNL     1      50.467   8.784  16.032  0.00  0.00    +0.000 C 
ATOM     13  C   UNL     1      50.500   7.650  14.997  0.00  0.00    +0.000 C 
ATOM     14  C   UNL     1      51.120   8.104  13.666  0.00  0.00    +0.000 C 
ATOM     15  C   UNL     1      49.061   7.114  14.765  0.00  0.00    +0.000 C 
ATOM     16  N   UNL     1      46.841   6.723  13.164  0.00  0.00    +0.000 NA
BRANCH  13  17
ATOM     17  O   UNL     1      51.316   6.593  15.525  0.00  0.00    +0.000 OA
ATOM     18  H   UNL     1      52.243   6.786  15.294  0.00  0.00    +0.000 HD
ENDBRANCH  13  17
ENDBRANCH   2   3
BRANCH   2  19
ATOM     19  C   UNL     1      44.126   5.007  11.202  0.00  0.00    +0.000 C 
BRANCH  19  20
ATOM     20  N   UNL     1      44.246   5.149   9.749  0.00  0.00    +0.000 N 
ATOM     21  C   UNL     1      45.015   4.203   9.078  0.00  0.00    +0.000 A 
ATOM     22  C   UNL     1      45.041   2.858   9.429  0.00  0.00    +0.000 A 
ATOM     23  C   UNL     1      45.806   1.960   8.687  0.00  0.00    +0.000 A 
ATOM     24  C   UNL     1      46.514   2.407   7.576  0.00  0.00    +0.000 A 
ATOM     25  C   UNL     1      46.425   3.759   7.282  0.00  0.00    +0.000 A 
ATOM     26  N   UNL     1      45.701   4.658   8.009  0.00  0.00    +0.000 NA
ATOM     27  H   UNL     1      44.564   6.055   9.414  0.00  0.00    +0.000 HD
BRANCH  24  28
ATOM     28  C   UNL     1      47.299   1.420   6.791  0.00  0.00    +0.000 C 
ATOM     29  N   UNL     1      48.340   1.856   6.023  0.00  0.00    +0.000 N 
ATOM     30  O   UNL     1      47.022   0.226   6.816  0.00  0.00    +0.000 OA
ATOM     31  H   UNL     1      48.639   2.810   5.908  0.00  0.00    +0.000 HD
ATOM     32  H   UNL     1      48.834   1.144   5.499  0.00  0.00    +0.000 HD
ENDBRANCH  24  28
ENDBRANCH  19  20
ENDBRANCH   2  19
TORSDOF 5
ENDMDL
MODEL 4
REMARK VINA RESULT:    -8.014      3.789      8.141
REMARK INTER + INTRA:         -10.500
REMARK INTER:                  -9.791
REMARK INTRA:                  -0.708
REMARK UNBOUND:                -0.378
REMARK  Name = 
REMARK  7 active torsions:
REMARK  status: ('A' for Active; 'I' for Inactive)
REMARK    1  A    between atoms: C_1  and  C_2
REMARK    2  A    between atoms: C_2  and  C_3
REMARK    3  A    between atoms: C_2  and  C_14
REMARK    4  A    between atoms: C_3  and  N_4
REMARK    5  A    between atoms: C_8  and  C_9
REMARK    6  A    between atoms: C_24  and  C_25
REMARK    7  A    between atoms: C_24  and  O_26
REMARK                            x       y       z     vdW  Elec       q    Type
REMARK                         _______ _______ _______ _____ _____    ______ ____
ROOT
ATOM      1  C   UNL     1      50.082   7.662  15.344  0.00  0.00    +0.000 C 
ATOM      2  C   UNL     1      49.015   6.598  15.092  0.00  0.00    +0.000 C 
ENDROOT
BRANCH   2   3
ATOM      3  C   UNL     1      48.244   6.917  13.818  0.00  0.00    +0.000 A 
ATOM      4  C   UNL     1      48.459   8.108  13.157  0.00  0.00    +0.000 A 
ATOM      5  C   UNL     1      47.740   8.284  12.004  0.00  0.00    +0.000 A 
ATOM      6  N   UNL     1      46.876   7.376  11.519  0.00  0.00    +0.000 NA
ATOM      7  C   UNL     1      46.686   6.251  12.228  0.00  0.00    +0.000 A 
ATOM      8  N   UNL     1      45.722   5.367  11.784  0.00  0.00    +0.000 N 
ATOM      9  C   UNL     1      45.529   5.269  10.336  0.00  0.00    +0.000 C 
ATOM     10  C   UNL     1      44.112   4.782  10.021  0.00  0.00    +0.000 C 
ATOM     11  F   UNL     1      44.023   4.488   8.693  0.00  0.00    +0.000 F 
ATOM     12  C   UNL     1      43.748   3.532  10.813  0.00  0.00    +0.000 C 
ATOM     13  C   UNL     1      44.008   3.694  12.318  0.00  0.00    +0.000 C 
ATOM     14  C   UNL     1      43.035   4.693  12.965  0.00  0.00    +0.000 C 
ATOM     15  C   UNL     1      45.474   4.147  12.549  0.00  0.00    +0.000 C 
ATOM     16  N   UNL     1      47.344   6.009  13.374  0.00  0.00    +0.000 NA
BRANCH  13  17
ATOM     17  O   UNL     1      43.805   2.417  12.941  0.00  0.00    +0.000 OA
ATOM     18  H   UNL     1      42.865   2.181  12.845  0.00  0.00    +0.000 HD
ENDBRANCH  13  17
ENDBRANCH   2   3
BRANCH   2  19
ATOM     19  C   UNL     1      48.037   6.454  16.277  0.00  0.00    +0.000 C 
BRANCH  19  20
ATOM     20  N   UNL     1      47.737   5.055  16.589  0.00  0.00    +0.000 N 
ATOM     21  C   UNL     1      48.816   4.213  16.844  0.00  0.00    +0.000 A 
ATOM     22  C   UNL     1      49.951   4.623  17.534  0.00  0.00    +0.000 A 
ATOM     23  C   UNL     1      50.977   3.714  17.787  0.00  0.00    +0.000 A 
ATOM     24  C   UNL     1      50.847   2.391  17.377  0.00  0.00    +0.000 A 
ATOM     25  C   UNL     1      49.679   2.058  16.709  0.00  0.00    +0.000 A 
ATOM     26  N   UNL     1      48.673   2.937  16.431  0.00  0.00    +0.000 NA
ATOM     27  H   UNL     1      47.153   4.563  15.917  0.00  0.00    +0.000 HD
BRANCH  24  28
ATOM     28  C   UNL     1      51.947   1.442  17.684  0.00  0.00    +0.000 C 
ATOM     29  N   UNL     1      51.641   0.184  18.116  0.00  0.00    +0.000 N 
ATOM     30  O   UNL     1      53.121   1.772  17.563  0.00  0.00    +0.000 OA
ATOM     31  H   UNL     1      50.717  -0.185  18.275  0.00  0.00    +0.000 HD
ATOM     32  H   UNL     1      52.428  -0.419  18.324  0.00  0.00    +0.000 HD
ENDBRANCH  24  28
ENDBRANCH  19  20
ENDBRANCH   2  19
TORSDOF 5
ENDMDL
MODEL 5
REMARK VINA RESULT:    -7.885      2.894      4.418
REMARK INTER + INTRA:         -10.336
REMARK INTER:                  -9.689
REMARK INTRA:                  -0.648
REMARK UNBOUND:                -0.378
REMARK  Name = 
REMARK  7 active torsions:
REMARK  status: ('A' for Active; 'I' for Inactive)
REMARK    1  A    between atoms: C_1  and  C_2
REMARK    2  A    between atoms: C_2  and  C_3
REMARK    3  A    between atoms: C_2  and  C_14
REMARK    4  A    between atoms: C_3  and  N_4
REMARK    5  A    between atoms: C_8  and  C_9
REMARK    6  A    between atoms: C_24  and  C_25
REMARK    7  A    between atoms: C_24  and  O_26
REMARK                            x       y       z     vdW  Elec       q    Type
REMARK                         _______ _______ _______ _____ _____    ______ ____
ROOT
ATOM      1  C   UNL     1      49.210   7.452  11.764  0.00  0.00    +0.000 C 
ATOM      2  C   UNL     1      48.763   8.113  13.067  0.00  0.00    +0.000 C 
ENDROOT
BRANCH   2   3
ATOM      3  C   UNL     1      49.653   7.663  14.217  0.00  0.00    +0.000 A 
ATOM      4  C   UNL     1      50.956   8.104  14.301  0.00  0.00    +0.000 A 
ATOM      5  C   UNL     1      51.662   7.666  15.391  0.00  0.00    +0.000 A 
ATOM      6  N   UNL     1      51.149   6.861  16.337  0.00  0.00    +0.000 NA
ATOM      7  C   UNL     1      49.882   6.439  16.180  0.00  0.00    +0.000 A 
ATOM      8  N   UNL     1      49.391   5.530  17.096  0.00  0.00    +0.000 N 
ATOM      9  C   UNL     1      49.876   5.648  18.473  0.00  0.00    +0.000 C 
ATOM     10  C   UNL     1      49.768   4.300  19.190  0.00  0.00    +0.000 C 
ATOM     11  F   UNL     1      50.012   4.478  20.519  0.00  0.00    +0.000 F 
ATOM     12  C   UNL     1      48.383   3.680  19.038  0.00  0.00    +0.000 C 
ATOM     13  C   UNL     1      47.925   3.620  17.573  0.00  0.00    +0.000 C 
ATOM     14  C   UNL     1      48.744   2.608  16.756  0.00  0.00    +0.000 C 
ATOM     15  C   UNL     1      48.026   5.032  16.937  0.00  0.00    +0.000 C 
ATOM     16  N   UNL     1      49.129   6.814  15.133  0.00  0.00    +0.000 NA
BRANCH  13  17
ATOM     17  O   UNL     1      46.555   3.193  17.557  0.00  0.00    +0.000 OA
ATOM     18  H   UNL     1      46.449   2.551  16.832  0.00  0.00    +0.000 HD
ENDBRANCH  13  17
ENDBRANCH   2   3
BRANCH   2  19
ATOM     19  C   UNL     1      47.285   7.821  13.398  0.00  0.00    +0.000 C 
BRANCH  19  20
ATOM     20  N   UNL     1      46.451   7.719  12.198  0.00  0.00    +0.000 N 
ATOM     21  C   UNL     1      45.870   6.483  11.930  0.00  0.00    +0.000 A 
ATOM     22  C   UNL     1      45.380   5.644  12.924  0.00  0.00    +0.000 A 
ATOM     23  C   UNL     1      44.775   4.437  12.578  0.00  0.00    +0.000 A 
ATOM     24  C   UNL     1      44.632   4.092  11.238  0.00  0.00    +0.000 A 
ATOM     25  C   UNL     1      45.133   4.989  10.308  0.00  0.00    +0.000 A 
ATOM     26  N   UNL     1      45.749   6.164  10.624  0.00  0.00    +0.000 NA
ATOM     27  H   UNL     1      46.884   8.018  11.327  0.00  0.00    +0.000 HD
BRANCH  24  28
ATOM     28  C   UNL     1      43.960   2.810  10.903  0.00  0.00    +0.000 C 
ATOM     29  N   UNL     1      44.437   2.059   9.868  0.00  0.00    +0.000 N 
ATOM     30  O   UNL     1      42.983   2.423  11.533  0.00  0.00    +0.000 OA
ATOM     31  H   UNL     1      45.213   2.290   9.269  0.00  0.00    +0.000 HD
ATOM     32  H   UNL     1      43.935   1.201   9.673  0.00  0.00    +0.000 HD
ENDBRANCH  24  28
ENDBRANCH  19  20
ENDBRANCH   2  19
TORSDOF 5
ENDMDL
MODEL 6
REMARK VINA RESULT:    -7.616      2.880      4.213
REMARK INTER + INTRA:          -9.997
REMARK INTER:                  -9.861
REMARK INTRA:                  -0.136
REMARK UNBOUND:                -0.378
REMARK  Name = 
REMARK  7 active torsions:
REMARK  status: ('A' for Active; 'I' for Inactive)
REMARK    1  A    between atoms: C_1  and  C_2
REMARK    2  A    between atoms: C_2  and  C_3
REMARK    3  A    between atoms: C_2  and  C_14
REMARK    4  A    between atoms: C_3  and  N_4
REMARK    5  A    between atoms: C_8  and  C_9
REMARK    6  A    between atoms: C_24  and  C_25
REMARK    7  A    between atoms: C_24  and  O_26
REMARK                            x       y       z     vdW  Elec       q    Type
REMARK                         _______ _______ _______ _____ _____    ______ ____
ROOT
ATOM      1  C   UNL     1      44.122   3.029  12.442  0.00  0.00    +0.000 C 
ATOM      2  C   UNL     1      45.023   4.092  11.814  0.00  0.00    +0.000 C 
ENDROOT
BRANCH   2   3
ATOM      3  C   UNL     1      46.014   4.616  12.844  0.00  0.00    +0.000 A 
ATOM      4  C   UNL     1      46.135   3.997  14.069  0.00  0.00    +0.000 A 
ATOM      5  C   UNL     1      47.078   4.526  14.912  0.00  0.00    +0.000 A 
ATOM      6  N   UNL     1      47.853   5.577  14.595  0.00  0.00    +0.000 NA
ATOM      7  C   UNL     1      47.664   6.157  13.397  0.00  0.00    +0.000 A 
ATOM      8  N   UNL     1      48.388   7.299  13.115  0.00  0.00    +0.000 N 
ATOM      9  C   UNL     1      49.737   7.384  13.678  0.00  0.00    +0.000 C 
ATOM     10  C   UNL     1      50.158   8.849  13.825  0.00  0.00    +0.000 C 
ATOM     11  F   UNL     1      51.483   8.906  14.139  0.00  0.00    +0.000 F 
ATOM     12  C   UNL     1      49.937   9.639  12.541  0.00  0.00    +0.000 C 
ATOM     13  C   UNL     1      48.512   9.476  11.989  0.00  0.00    +0.000 C 
ATOM     14  C   UNL     1      47.467  10.157  12.887  0.00  0.00    +0.000 C 
ATOM     15  C   UNL     1      48.184   7.967  11.832  0.00  0.00    +0.000 C 
ATOM     16  N   UNL     1      46.752   5.705  12.521  0.00  0.00    +0.000 NA
BRANCH  13  17
ATOM     17  O   UNL     1      48.463  10.106  10.701  0.00  0.00    +0.000 OA
ATOM     18  H   UNL     1      49.130   9.679  10.132  0.00  0.00    +0.000 HD
ENDBRANCH  13  17
ENDBRANCH   2   3
BRANCH   2  19
ATOM     19  C   UNL     1      44.219   5.263  11.213  0.00  0.00    +0.000 C 
BRANCH  19  20
ATOM     20  N   UNL     1      44.687   5.636   9.876  0.00  0.00    +0.000 N 
ATOM     21  C   UNL     1      45.333   4.654   9.129  0.00  0.00    +0.000 A 
ATOM     22  C   UNL     1      44.954   3.317   9.145  0.00  0.00    +0.000 A 
ATOM     23  C   UNL     1      45.622   2.395   8.343  0.00  0.00    +0.000 A 
ATOM     24  C   UNL     1      46.645   2.823   7.502  0.00  0.00    +0.000 A 
ATOM     25  C   UNL     1      46.953   4.173   7.532  0.00  0.00    +0.000 A 
ATOM     26  N   UNL     1      46.327   5.088   8.327  0.00  0.00    +0.000 NA
ATOM     27  H   UNL     1      45.281   6.460   9.825  0.00  0.00    +0.000 HD
BRANCH  24  28
ATOM     28  C   UNL     1      47.320   1.819   6.640  0.00  0.00    +0.000 C 
ATOM     29  N   UNL     1      48.286   2.231   5.768  0.00  0.00    +0.000 N 
ATOM     30  O   UNL     1      47.019   0.632   6.694  0.00  0.00    +0.000 OA
ATOM     31  H   UNL     1      48.594   3.179   5.622  0.00  0.00    +0.000 HD
ATOM     32  H   UNL     1      48.705   1.509   5.194  0.00  0.00    +0.000 HD
ENDBRANCH  24  28
ENDBRANCH  19  20
ENDBRANCH   2  19
TORSDOF 5
ENDMDL
MODEL 7
REMARK VINA RESULT:    -7.499      3.839      5.573
REMARK INTER + INTRA:          -9.849
REMARK INTER:                  -8.650
REMARK INTRA:                  -1.200
REMARK UNBOUND:                -0.378
REMARK  Name = 
REMARK  7 active torsions:
REMARK  status: ('A' for Active; 'I' for Inactive)
REMARK    1  A    between atoms: C_1  and  C_2
REMARK    2  A    between atoms: C_2  and  C_3
REMARK    3  A    between atoms: C_2  and  C_14
REMARK    4  A    between atoms: C_3  and  N_4
REMARK    5  A    between atoms: C_8  and  C_9
REMARK    6  A    between atoms: C_24  and  C_25
REMARK    7  A    between atoms: C_24  and  O_26
REMARK                            x       y       z     vdW  Elec       q    Type
REMARK                         _______ _______ _______ _____ _____    ______ ____
ROOT
ATOM      1  C   UNL     1      49.831  10.343  13.221  0.00  0.00    +0.000 C 
ATOM      2  C   UNL     1      49.302   8.932  13.481  0.00  0.00    +0.000 C 
ENDROOT
BRANCH   2   3
ATOM      3  C   UNL     1      50.209   8.204  14.465  0.00  0.00    +0.000 A 
ATOM      4  C   UNL     1      51.578   8.338  14.377  0.00  0.00    +0.000 A 
ATOM      5  C   UNL     1      52.302   7.668  15.329  0.00  0.00    +0.000 A 
ATOM      6  N   UNL     1      51.746   6.924  16.300  0.00  0.00    +0.000 NA
ATOM      7  C   UNL     1      50.407   6.805  16.311  0.00  0.00    +0.000 A 
ATOM      8  N   UNL     1      49.845   5.957  17.244  0.00  0.00    +0.000 N 
ATOM      9  C   UNL     1      50.522   5.853  18.538  0.00  0.00    +0.000 C 
ATOM     10  C   UNL     1      50.202   4.509  19.196  0.00  0.00    +0.000 C 
ATOM     11  F   UNL     1      50.655   4.520  20.482  0.00  0.00    +0.000 F 
ATOM     12  C   UNL     1      48.705   4.225  19.220  0.00  0.00    +0.000 C 
ATOM     13  C   UNL     1      48.055   4.386  17.837  0.00  0.00    +0.000 C 
ATOM     14  C   UNL     1      48.504   3.288  16.860  0.00  0.00    +0.000 C 
ATOM     15  C   UNL     1      48.393   5.788  17.262  0.00  0.00    +0.000 C 
ATOM     16  N   UNL     1      49.629   7.421  15.405  0.00  0.00    +0.000 NA
BRANCH  13  17
ATOM     17  O   UNL     1      46.634   4.275  18.002  0.00  0.00    +0.000 OA
ATOM     18  H   UNL     1      46.208   4.693  17.231  0.00  0.00    +0.000 HD
ENDBRANCH  13  17
ENDBRANCH   2   3
BRANCH   2  19
ATOM     19  C   UNL     1      49.163   8.108  12.184  0.00  0.00    +0.000 C 
BRANCH  19  20
ATOM     20  N   UNL     1      48.976   6.679  12.446  0.00  0.00    +0.000 N 
ATOM     21  C   UNL     1      47.670   6.228  12.615  0.00  0.00    +0.000 A 
ATOM     22  C   UNL     1      46.596   6.724  11.887  0.00  0.00    +0.000 A 
ATOM     23  C   UNL     1      45.320   6.198  12.083  0.00  0.00    +0.000 A 
ATOM     24  C   UNL     1      45.133   5.153  12.983  0.00  0.00    +0.000 A 
ATOM     25  C   UNL     1      46.257   4.704  13.658  0.00  0.00    +0.000 A 
ATOM     26  N   UNL     1      47.509   5.221  13.499  0.00  0.00    +0.000 NA
ATOM     27  H   UNL     1      49.507   6.294  13.223  0.00  0.00    +0.000 HD
BRANCH  24  28
ATOM     28  C   UNL     1      43.766   4.598  13.150  0.00  0.00    +0.000 C 
ATOM     29  N   UNL     1      42.694   5.441  13.100  0.00  0.00    +0.000 N 
ATOM     30  O   UNL     1      43.587   3.400  13.339  0.00  0.00    +0.000 OA
ATOM     31  H   UNL     1      42.724   6.440  12.976  0.00  0.00    +0.000 HD
ATOM     32  H   UNL     1      41.785   5.013  13.232  0.00  0.00    +0.000 HD
ENDBRANCH  24  28
ENDBRANCH  19  20
ENDBRANCH   2  19
TORSDOF 5
ENDMDL
MODEL 8
REMARK VINA RESULT:    -7.417      2.716      4.714
REMARK INTER + INTRA:          -9.746
REMARK INTER:                  -8.795
REMARK INTRA:                  -0.951
REMARK UNBOUND:                -0.378
REMARK  Name = 
REMARK  7 active torsions:
REMARK  status: ('A' for Active; 'I' for Inactive)
REMARK    1  A    between atoms: C_1  and  C_2
REMARK    2  A    between atoms: C_2  and  C_3
REMARK    3  A    between atoms: C_2  and  C_14
REMARK    4  A    between atoms: C_3  and  N_4
REMARK    5  A    between atoms: C_8  and  C_9
REMARK    6  A    between atoms: C_24  and  C_25
REMARK    7  A    between atoms: C_24  and  O_26
REMARK                            x       y       z     vdW  Elec       q    Type
REMARK                         _______ _______ _______ _____ _____    ______ ____
ROOT
ATOM      1  C   UNL     1      49.467   7.916  12.885  0.00  0.00    +0.000 C 
ATOM      2  C   UNL     1      48.561   8.926  13.589  0.00  0.00    +0.000 C 
ENDROOT
BRANCH   2   3
ATOM      3  C   UNL     1      48.721   8.813  15.099  0.00  0.00    +0.000 A 
ATOM      4  C   UNL     1      48.924   9.943  15.862  0.00  0.00    +0.000 A 
ATOM      5  C   UNL     1      49.023   9.737  17.214  0.00  0.00    +0.000 A 
ATOM      6  N   UNL     1      48.931   8.527  17.791  0.00  0.00    +0.000 NA
ATOM      7  C   UNL     1      48.767   7.461  16.989  0.00  0.00    +0.000 A 
ATOM      8  N   UNL     1      48.778   6.210  17.574  0.00  0.00    +0.000 N 
ATOM      9  C   UNL     1      48.222   6.106  18.925  0.00  0.00    +0.000 C 
ATOM     10  C   UNL     1      48.829   4.905  19.656  0.00  0.00    +0.000 C 
ATOM     11  F   UNL     1      48.146   4.694  20.816  0.00  0.00    +0.000 F 
ATOM     12  C   UNL     1      48.758   3.631  18.822  0.00  0.00    +0.000 C 
ATOM     13  C   UNL     1      49.326   3.824  17.407  0.00  0.00    +0.000 C 
ATOM     14  C   UNL     1      50.849   4.029  17.423  0.00  0.00    +0.000 C 
ATOM     15  C   UNL     1      48.628   5.030  16.725  0.00  0.00    +0.000 C 
ATOM     16  N   UNL     1      48.673   7.579  15.654  0.00  0.00    +0.000 NA
BRANCH  13  17
ATOM     17  O   UNL     1      49.050   2.633  16.655  0.00  0.00    +0.000 OA
ATOM     18  H   UNL     1      49.782   2.498  16.026  0.00  0.00    +0.000 HD
ENDBRANCH  13  17
ENDBRANCH   2   3
BRANCH   2  19
ATOM     19  C   UNL     1      47.077   8.755  13.203  0.00  0.00    +0.000 C 
BRANCH  19  20
ATOM     20  N   UNL     1      46.523   7.478  13.660  0.00  0.00    +0.000 N 
ATOM     21  C   UNL     1      45.939   6.657  12.700  0.00  0.00    +0.000 A 
ATOM     22  C   UNL     1      46.438   6.524  11.410  0.00  0.00    +0.000 A 
ATOM     23  C   UNL     1      45.824   5.653  10.512  0.00  0.00    +0.000 A 
ATOM     24  C   UNL     1      44.733   4.893  10.922  0.00  0.00    +0.000 A 
ATOM     25  C   UNL     1      44.306   5.070  12.228  0.00  0.00    +0.000 A 
ATOM     26  N   UNL     1      44.878   5.934  13.115  0.00  0.00    +0.000 NA
ATOM     27  H   UNL     1      45.855   7.530  14.425  0.00  0.00    +0.000 HD
BRANCH  24  28
ATOM     28  C   UNL     1      44.117   3.955   9.949  0.00  0.00    +0.000 C 
ATOM     29  N   UNL     1      44.040   4.314   8.634  0.00  0.00    +0.000 N 
ATOM     30  O   UNL     1      43.671   2.871  10.308  0.00  0.00    +0.000 OA
ATOM     31  H   UNL     1      44.349   5.185   8.234  0.00  0.00    +0.000 HD
ATOM     32  H   UNL     1      43.599   3.645   8.015  0.00  0.00    +0.000 HD
ENDBRANCH  24  28
ENDBRANCH  19  20
ENDBRANCH   2  19
TORSDOF 5
ENDMDL
MODEL 9
REMARK VINA RESULT:    -7.337      3.659      6.117
REMARK INTER + INTRA:          -9.644
REMARK INTER:                  -8.370
REMARK INTRA:                  -1.274
REMARK UNBOUND:                -0.378
REMARK  Name = 
REMARK  7 active torsions:
REMARK  status: ('A' for Active; 'I' for Inactive)
REMARK    1  A    between atoms: C_1  and  C_2
REMARK    2  A    between atoms: C_2  and  C_3
REMARK    3  A    between atoms: C_2  and  C_14
REMARK    4  A    between atoms: C_3  and  N_4
REMARK    5  A    between atoms: C_8  and  C_9
REMARK    6  A    between atoms: C_24  and  C_25
REMARK    7  A    between atoms: C_24  and  O_26
REMARK                            x       y       z     vdW  Elec       q    Type
REMARK                         _______ _______ _______ _____ _____    ______ ____
ROOT
ATOM      1  C   UNL     1      48.389   3.501  18.494  0.00  0.00    +0.000 C 
ATOM      2  C   UNL     1      48.512   3.876  17.018  0.00  0.00    +0.000 C 
ENDROOT
BRANCH   2   3
ATOM      3  C   UNL     1      49.118   5.266  16.877  0.00  0.00    +0.000 A 
ATOM      4  C   UNL     1      49.651   5.905  17.976  0.00  0.00    +0.000 A 
ATOM      5  C   UNL     1      50.201   7.138  17.738  0.00  0.00    +0.000 A 
ATOM      6  N   UNL     1      50.238   7.714  16.524  0.00  0.00    +0.000 NA
ATOM      7  C   UNL     1      49.672   7.054  15.499  0.00  0.00    +0.000 A 
ATOM      8  N   UNL     1      49.619   7.692  14.276  0.00  0.00    +0.000 N 
ATOM      9  C   UNL     1      50.731   8.586  13.945  0.00  0.00    +0.000 C 
ATOM     10  C   UNL     1      50.279   9.643  12.935  0.00  0.00    +0.000 C 
ATOM     11  F   UNL     1      51.369  10.320  12.475  0.00  0.00    +0.000 F 
ATOM     12  C   UNL     1      49.563   9.023  11.740  0.00  0.00    +0.000 C 
ATOM     13  C   UNL     1      48.433   8.073  12.161  0.00  0.00    +0.000 C 
ATOM     14  C   UNL     1      47.254   8.827  12.796  0.00  0.00    +0.000 C 
ATOM     15  C   UNL     1      48.985   7.010  13.149  0.00  0.00    +0.000 C 
ATOM     16  N   UNL     1      49.102   5.848  15.655  0.00  0.00    +0.000 NA
BRANCH  13  17
ATOM     17  O   UNL     1      47.949   7.412  10.982  0.00  0.00    +0.000 OA
ATOM     18  H   UNL     1      48.147   7.981  10.216  0.00  0.00    +0.000 HD
ENDBRANCH  13  17
ENDBRANCH   2   3
BRANCH   2  19
ATOM     19  C   UNL     1      47.158   3.816  16.281  0.00  0.00    +0.000 C 
BRANCH  19  20
ATOM     20  N   UNL     1      47.286   3.312  14.912  0.00  0.00    +0.000 N 
ATOM     21  C   UNL     1      46.410   3.824  13.959  0.00  0.00    +0.000 A 
ATOM     22  C   UNL     1      46.000   5.152  13.942  0.00  0.00    +0.000 A 
ATOM     23  C   UNL     1      45.150   5.604  12.935  0.00  0.00    +0.000 A 
ATOM     24  C   UNL     1      44.742   4.733  11.930  0.00  0.00    +0.000 A 
ATOM     25  C   UNL     1      45.207   3.430  12.009  0.00  0.00    +0.000 A 
ATOM     26  N   UNL     1      46.020   2.961  12.999  0.00  0.00    +0.000 NA
ATOM     27  H   UNL     1      47.256   2.302  14.803  0.00  0.00    +0.000 HD
BRANCH  24  28
ATOM     28  C   UNL     1      43.856   5.252  10.857  0.00  0.00    +0.000 C 
ATOM     29  N   UNL     1      44.065   4.853   9.568  0.00  0.00    +0.000 N 
ATOM     30  O   UNL     1      42.949   6.038  11.108  0.00  0.00    +0.000 OA
ATOM     31  H   UNL     1      44.791   4.235   9.245  0.00  0.00    +0.000 HD
ATOM     32  H   UNL     1      43.442   5.247   8.874  0.00  0.00    +0.000 HD
ENDBRANCH  24  28
ENDBRANCH  19  20
ENDBRANCH   2  19
TORSDOF 5
ENDMDL
