MODEL 1
REMARK VINA RESULT:    -9.602      0.000      0.000
REMARK INTER + INTRA:         -13.419
REMARK INTER:                 -12.409
REMARK INTRA:                  -1.010
REMARK UNBOUND:                -1.010
REMARK  Name = 
REMARK  5 active torsions:
REMARK  status: ('A' for Active; 'I' for Inactive)
REMARK    1  A    between atoms: C_2  and  C_4
REMARK    2  A    between atoms: N_8  and  C_9
REMARK    3  A    between atoms: C_9  and  C_10
REMARK    4  A    between atoms: C_10  and  C_13
REMARK    5  A    between atoms: C_15  and  C_16
REMARK                            x       y       z     vdW  Elec       q    Type
REMARK                         _______ _______ _______ _____ _____    ______ ____
ROOT
ATOM      1  C   UNL     1      43.594   5.402  12.095  0.00  0.00    +0.000 C 
ATOM      2  F   UNL     1      42.915   6.515  11.675  0.00  0.00    +0.000 F 
ATOM      3  F   UNL     1      42.941   4.998  13.232  0.00  0.00    +0.000 F 
ENDROOT
BRANCH   1   4
ATOM      4  C   UNL     1      45.065   5.711  12.375  0.00  0.00    +0.000 A 
ATOM      5  C   UNL     1      45.628   5.285  13.581  0.00  0.00    +0.000 A 
ATOM      6  C   UNL     1      46.969   5.572  13.888  0.00  0.00    +0.000 A 
ATOM      7  C   UNL     1      47.693   6.295  12.933  0.00  0.00    +0.000 A 
ATOM      8  C   UNL     1      47.067   6.697  11.764  0.00  0.00    +0.000 A 
ATOM      9  N   UNL     1      45.780   6.426  11.469  0.00  0.00    +0.000 NA
BRANCH   6  10
ATOM     10  C   UNL     1      47.571   5.142  15.172  0.00  0.00    +0.000 A 
ATOM     11  C   UNL     1      48.580   5.887  15.798  0.00  0.00    +0.000 A 
ATOM     12  C   UNL     1      49.149   5.423  16.976  0.00  0.00    +0.000 A 
ATOM     13  N   UNL     1      48.780   4.284  17.588  0.00  0.00    +0.000 NA
ATOM     14  C   UNL     1      47.799   3.581  16.991  0.00  0.00    +0.000 A 
ATOM     15  F   UNL     1      47.408   2.442  17.579  0.00  0.00    +0.000 F 
ATOM     16  C   UNL     1      47.178   3.956  15.811  0.00  0.00    +0.000 A 
ENDBRANCH   6  10
ENDBRANCH   1   4
BRANCH   1  17
ATOM     17  C   UNL     1      43.440   4.302  11.022  0.00  0.00    +0.000 C 
BRANCH  17  22
ATOM     18  C   UNL     1      46.465   2.357   7.696  0.00  0.00    +0.000 A 
ATOM     19  C   UNL     1      45.577   1.860   8.619  0.00  0.00    +0.000 A 
ATOM     20  N   UNL     1      44.683   2.623   9.276  0.00  0.00    +0.000 NA
ATOM     21  C   UNL     1      44.683   3.941   9.014  0.00  0.00    +0.000 A 
ATOM     22  N   UNL     1      43.770   4.761   9.659  0.00  0.00    +0.000 N 
ATOM     23  N   UNL     1      45.530   4.526   8.155  0.00  0.00    +0.000 NA
ATOM     24  C   UNL     1      46.411   3.720   7.513  0.00  0.00    +0.000 A 
ATOM     25  H   UNL     1      44.107   5.718   9.587  0.00  0.00    +0.000 HD
BRANCH  18  27
ATOM     26  N   UNL     1      48.543   2.128   6.470  0.00  0.00    +0.000 N 
ATOM     27  C   UNL     1      47.428   1.517   6.976  0.00  0.00    +0.000 C 
ATOM     28  O   UNL     1      47.254   0.311   6.859  0.00  0.00    +0.000 OA
ATOM     29  H   UNL     1      49.242   1.522   6.058  0.00  0.00    +0.000 HD
ATOM     30  H   UNL     1      48.849   3.049   6.756  0.00  0.00    +0.000 HD
ENDBRANCH  18  27
ENDBRANCH  17  22
ENDBRANCH   1  17
TORSDOF 5
ENDMDL
MODEL 2
REMARK VINA RESULT:    -9.486      2.316      3.707
REMARK INTER + INTRA:         -13.269
REMARK INTER:                 -12.397
REMARK INTRA:                  -0.872
REMARK UNBOUND:                -1.010
REMARK  Name = 
REMARK  5 active torsions:
REMARK  status: ('A' for Active; 'I' for Inactive)
REMARK    1  A    between atoms: C_2  and  C_4
REMARK    2  A    between atoms: N_8  and  C_9
REMARK    3  A    between atoms: C_9  and  C_10
REMARK    4  A    between atoms: C_10  and  C_13
REMARK    5  A    between atoms: C_15  and  C_16
REMARK                            x       y       z     vdW  Elec       q    Type
REMARK                         _______ _______ _______ _____ _____    ______ ____
ROOT
ATOM      1  C   UNL     1      43.477   5.115  12.325  0.00  0.00    +0.000 C 
ATOM      2  F   UNL     1      42.949   6.302  11.892  0.00  0.00    +0.000 F 
ATOM      3  F   UNL     1      42.638   4.699  13.327  0.00  0.00    +0.000 F 
ENDROOT
BRANCH   1   4
ATOM      4  C   UNL     1      44.910   5.287  12.831  0.00  0.00    +0.000 A 
ATOM      5  C   UNL     1      45.654   6.387  12.394  0.00  0.00    +0.000 A 
ATOM      6  C   UNL     1      46.983   6.567  12.815  0.00  0.00    +0.000 A 
ATOM      7  C   UNL     1      47.507   5.599  13.680  0.00  0.00    +0.000 A 
ATOM      8  C   UNL     1      46.716   4.527  14.062  0.00  0.00    +0.000 A 
ATOM      9  N   UNL     1      45.442   4.350  13.657  0.00  0.00    +0.000 NA
BRANCH   6  10
ATOM     10  C   UNL     1      47.787   7.718  12.344  0.00  0.00    +0.000 A 
ATOM     11  C   UNL     1      47.253   9.014  12.285  0.00  0.00    +0.000 A 
ATOM     12  C   UNL     1      48.027  10.056  11.791  0.00  0.00    +0.000 A 
ATOM     13  N   UNL     1      49.294   9.912  11.368  0.00  0.00    +0.000 NA
ATOM     14  C   UNL     1      49.807   8.669  11.442  0.00  0.00    +0.000 A 
ATOM     15  F   UNL     1      51.070   8.495  11.030  0.00  0.00    +0.000 F 
ATOM     16  C   UNL     1      49.112   7.565  11.909  0.00  0.00    +0.000 A 
ENDBRANCH   6  10
ENDBRANCH   1   4
BRANCH   1  17
ATOM     17  C   UNL     1      43.403   4.097  11.167  0.00  0.00    +0.000 C 
BRANCH  17  22
ATOM     18  C   UNL     1      46.459   2.533   7.672  0.00  0.00    +0.000 A 
ATOM     19  C   UNL     1      45.590   1.934   8.550  0.00  0.00    +0.000 A 
ATOM     20  N   UNL     1      44.680   2.611   9.276  0.00  0.00    +0.000 NA
ATOM     21  C   UNL     1      44.643   3.947   9.130  0.00  0.00    +0.000 A 
ATOM     22  N   UNL     1      43.713   4.683   9.849  0.00  0.00    +0.000 N 
ATOM     23  N   UNL     1      45.470   4.628   8.324  0.00  0.00    +0.000 NA
ATOM     24  C   UNL     1      46.368   3.905   7.610  0.00  0.00    +0.000 A 
ATOM     25  H   UNL     1      44.025   5.650   9.860  0.00  0.00    +0.000 HD
BRANCH  18  27
ATOM     26  N   UNL     1      48.552   2.460   6.452  0.00  0.00    +0.000 N 
ATOM     27  C   UNL     1      47.440   1.786   6.878  0.00  0.00    +0.000 C 
ATOM     28  O   UNL     1      47.282   0.597   6.629  0.00  0.00    +0.000 OA
ATOM     29  H   UNL     1      49.263   1.910   5.986  0.00  0.00    +0.000 HD
ATOM     30  H   UNL     1      48.843   3.348   6.839  0.00  0.00    +0.000 HD
ENDBRANCH  18  27
ENDBRANCH  17  22
ENDBRANCH   1  17
TORSDOF 5
ENDMDL
MODEL 3
REMARK VINA RESULT:    -9.379      2.145      3.832
REMARK INTER + INTRA:         -13.130
REMARK INTER:                 -12.256
REMARK INTRA:                  -0.875
REMARK UNBOUND:                -1.010
REMARK  Name = 
REMARK  5 active torsions:
REMARK  status: ('A' for Active; 'I' for Inactive)
REMARK    1  A    between atoms: C_2  and  C_4
REMARK    2  A    between atoms: N_8  and  C_9
REMARK    3  A    between atoms: C_9  and  C_10
REMARK    4  A    between atoms: C_10  and  C_13
REMARK    5  A    between atoms: C_15  and  C_16
REMARK                            x       y       z     vdW  Elec       q    Type
REMARK                         _______ _______ _______ _____ _____    ______ ____
ROOT
ATOM      1  C   UNL     1      43.428   5.152  12.339  0.00  0.00    +0.000 C 
ATOM      2  F   UNL     1      42.882   6.329  11.902  0.00  0.00    +0.000 F 
ATOM      3  F   UNL     1      42.609   4.740  13.360  0.00  0.00    +0.000 F 
ENDROOT
BRANCH   1   4
ATOM      4  C   UNL     1      44.867   5.342  12.819  0.00  0.00    +0.000 A 
ATOM      5  C   UNL     1      45.585   6.458  12.378  0.00  0.00    +0.000 A 
ATOM      6  C   UNL     1      46.919   6.655  12.775  0.00  0.00    +0.000 A 
ATOM      7  C   UNL     1      47.475   5.688  13.621  0.00  0.00    +0.000 A 
ATOM      8  C   UNL     1      46.708   4.600  14.009  0.00  0.00    +0.000 A 
ATOM      9  N   UNL     1      45.430   4.407  13.626  0.00  0.00    +0.000 NA
BRANCH   6  10
ATOM     10  C   UNL     1      47.696   7.823  12.298  0.00  0.00    +0.000 A 
ATOM     11  C   UNL     1      49.038   7.705  11.909  0.00  0.00    +0.000 A 
ATOM     12  C   UNL     1      49.742   8.835  11.514  0.00  0.00    +0.000 A 
ATOM     13  N   UNL     1      49.210  10.068  11.460  0.00  0.00    +0.000 NA
ATOM     14  C   UNL     1      47.917  10.172  11.820  0.00  0.00    +0.000 A 
ATOM     15  F   UNL     1      47.358  11.390  11.774  0.00  0.00    +0.000 F 
ATOM     16  C   UNL     1      47.135   9.108  12.238  0.00  0.00    +0.000 A 
ENDBRANCH   6  10
ENDBRANCH   1   4
BRANCH   1  17
ATOM     17  C   UNL     1      43.344   4.120  11.194  0.00  0.00    +0.000 C 
BRANCH  17  22
ATOM     18  C   UNL     1      46.459   2.509   7.772  0.00  0.00    +0.000 A 
ATOM     19  C   UNL     1      45.579   1.922   8.648  0.00  0.00    +0.000 A 
ATOM     20  N   UNL     1      44.655   2.608   9.348  0.00  0.00    +0.000 NA
ATOM     21  C   UNL     1      44.616   3.940   9.178  0.00  0.00    +0.000 A 
ATOM     22  N   UNL     1      43.671   4.684   9.870  0.00  0.00    +0.000 N 
ATOM     23  N   UNL     1      45.451   4.611   8.372  0.00  0.00    +0.000 NA
ATOM     24  C   UNL     1      46.363   3.879   7.685  0.00  0.00    +0.000 A 
ATOM     25  H   UNL     1      43.979   5.653   9.869  0.00  0.00    +0.000 HD
BRANCH  18  27
ATOM     26  N   UNL     1      48.394   2.468   6.315  0.00  0.00    +0.000 N 
ATOM     27  C   UNL     1      47.455   1.753   7.006  0.00  0.00    +0.000 C 
ATOM     28  O   UNL     1      47.460   0.529   7.008  0.00  0.00    +0.000 OA
ATOM     29  H   UNL     1      49.129   1.933   5.867  0.00  0.00    +0.000 HD
ATOM     30  H   UNL     1      48.582   3.447   6.484  0.00  0.00    +0.000 HD
ENDBRANCH  18  27
ENDBRANCH  17  22
ENDBRANCH   1  17
TORSDOF 5
ENDMDL
MODEL 4
REMARK VINA RESULT:    -9.005      2.542      3.456
REMARK INTER + INTRA:         -12.647
REMARK INTER:                 -11.562
REMARK INTRA:                  -1.085
REMARK UNBOUND:                -1.010
REMARK  Name = 
REMARK  5 active torsions:
REMARK  status: ('A' for Active; 'I' for Inactive)
REMARK    1  A    between atoms: C_2  and  C_4
REMARK    2  A    between atoms: N_8  and  C_9
REMARK    3  A    between atoms: C_9  and  C_10
REMARK    4  A    between atoms: C_10  and  C_13
REMARK    5  A    between atoms: C_15  and  C_16
REMARK                            x       y       z     vdW  Elec       q    Type
REMARK                         _______ _______ _______ _____ _____    ______ ____
ROOT
ATOM      1  C   UNL     1      44.463   4.269  12.326  0.00  0.00    +0.000 C 
ATOM      2  F   UNL     1      43.868   4.113  13.550  0.00  0.00    +0.000 F 
ATOM      3  F   UNL     1      45.481   3.348  12.308  0.00  0.00    +0.000 F 
ENDROOT
BRANCH   1   4
ATOM      4  C   UNL     1      44.991   5.690  12.134  0.00  0.00    +0.000 A 
ATOM      5  C   UNL     1      46.351   5.940  12.342  0.00  0.00    +0.000 A 
ATOM      6  C   UNL     1      46.872   7.238  12.201  0.00  0.00    +0.000 A 
ATOM      7  C   UNL     1      45.966   8.246  11.848  0.00  0.00    +0.000 A 
ATOM      8  C   UNL     1      44.629   7.928  11.671  0.00  0.00    +0.000 A 
ATOM      9  N   UNL     1      44.127   6.685  11.808  0.00  0.00    +0.000 NA
BRANCH   6  10
ATOM     10  C   UNL     1      48.307   7.518  12.438  0.00  0.00    +0.000 A 
ATOM     11  C   UNL     1      48.856   7.508  13.728  0.00  0.00    +0.000 A 
ATOM     12  C   UNL     1      50.196   7.823  13.909  0.00  0.00    +0.000 A 
ATOM     13  N   UNL     1      51.035   8.130  12.905  0.00  0.00    +0.000 NA
ATOM     14  C   UNL     1      50.507   8.121  11.667  0.00  0.00    +0.000 A 
ATOM     15  F   UNL     1      51.321   8.421  10.645  0.00  0.00    +0.000 F 
ATOM     16  C   UNL     1      49.181   7.831  11.386  0.00  0.00    +0.000 A 
ENDBRANCH   6  10
ENDBRANCH   1   4
BRANCH   1  17
ATOM     17  C   UNL     1      43.439   3.892  11.234  0.00  0.00    +0.000 C 
BRANCH  17  22
ATOM     18  C   UNL     1      46.469   2.481   7.651  0.00  0.00    +0.000 A 
ATOM     19  C   UNL     1      45.625   1.842   8.526  0.00  0.00    +0.000 A 
ATOM     20  N   UNL     1      44.713   2.483   9.284  0.00  0.00    +0.000 NA
ATOM     21  C   UNL     1      44.650   3.820   9.175  0.00  0.00    +0.000 A 
ATOM     22  N   UNL     1      43.717   4.519   9.927  0.00  0.00    +0.000 N 
ATOM     23  N   UNL     1      45.450   4.538   8.375  0.00  0.00    +0.000 NA
ATOM     24  C   UNL     1      46.351   3.852   7.628  0.00  0.00    +0.000 A 
ATOM     25  H   UNL     1      44.011   5.491   9.960  0.00  0.00    +0.000 HD
BRANCH  18  27
ATOM     26  N   UNL     1      48.549   2.478   6.409  0.00  0.00    +0.000 N 
ATOM     27  C   UNL     1      47.451   1.775   6.822  0.00  0.00    +0.000 C 
ATOM     28  O   UNL     1      47.305   0.593   6.536  0.00  0.00    +0.000 OA
ATOM     29  H   UNL     1      49.262   1.953   5.917  0.00  0.00    +0.000 HD
ATOM     30  H   UNL     1      48.833   3.356   6.822  0.00  0.00    +0.000 HD
ENDBRANCH  18  27
ENDBRANCH  17  22
ENDBRANCH   1  17
TORSDOF 5
ENDMDL
MODEL 5
REMARK VINA RESULT:    -8.366      3.341      8.181
REMARK INTER + INTRA:         -11.821
REMARK INTER:                 -10.943
REMARK INTRA:                  -0.878
REMARK UNBOUND:                -1.010
REMARK  Name = 
REMARK  5 active torsions:
REMARK  status: ('A' for Active; 'I' for Inactive)
REMARK    1  A    between atoms: C_2  and  C_4
REMARK    2  A    between atoms: N_8  and  C_9
REMARK    3  A    between atoms: C_9  and  C_10
REMARK    4  A    between atoms: C_10  and  C_13
REMARK    5  A    between atoms: C_15  and  C_16
REMARK                            x       y       z     vdW  Elec       q    Type
REMARK                         _______ _______ _______ _____ _____    ______ ____
ROOT
ATOM      1  C   UNL     1      45.528   6.116  11.960  0.00  0.00    +0.000 C 
ATOM      2  F   UNL     1      44.512   6.887  12.458  0.00  0.00    +0.000 F 
ATOM      3  F   UNL     1      46.155   6.912  11.034  0.00  0.00    +0.000 F 
ENDROOT
BRANCH   1   4
ATOM      4  C   UNL     1      45.001   4.830  11.325  0.00  0.00    +0.000 A 
ATOM      5  C   UNL     1      45.641   4.325  10.189  0.00  0.00    +0.000 A 
ATOM      6  C   UNL     1      45.171   3.159   9.559  0.00  0.00    +0.000 A 
ATOM      7  C   UNL     1      44.048   2.546  10.125  0.00  0.00    +0.000 A 
ATOM      8  C   UNL     1      43.455   3.109  11.245  0.00  0.00    +0.000 A 
ATOM      9  N   UNL     1      43.902   4.229  11.848  0.00  0.00    +0.000 NA
BRANCH   6  10
ATOM     10  C   UNL     1      45.829   2.626   8.343  0.00  0.00    +0.000 A 
ATOM     11  C   UNL     1      46.290   1.303   8.276  0.00  0.00    +0.000 A 
ATOM     12  C   UNL     1      46.944   0.859   7.134  0.00  0.00    +0.000 A 
ATOM     13  N   UNL     1      47.160   1.624   6.050  0.00  0.00    +0.000 NA
ATOM     14  C   UNL     1      46.701   2.888   6.115  0.00  0.00    +0.000 A 
ATOM     15  F   UNL     1      46.900   3.674   5.047  0.00  0.00    +0.000 F 
ATOM     16  C   UNL     1      46.047   3.425   7.211  0.00  0.00    +0.000 A 
ENDBRANCH   6  10
ENDBRANCH   1   4
BRANCH   1  17
ATOM     17  C   UNL     1      46.521   5.818  13.104  0.00  0.00    +0.000 C 
BRANCH  17  22
ATOM     18  C   UNL     1      48.517   3.871  17.133  0.00  0.00    +0.000 A 
ATOM     19  C   UNL     1      48.016   5.102  16.787  0.00  0.00    +0.000 A 
ATOM     20  N   UNL     1      47.305   5.328  15.665  0.00  0.00    +0.000 NA
ATOM     21  C   UNL     1      47.098   4.285  14.844  0.00  0.00    +0.000 A 
ATOM     22  N   UNL     1      46.360   4.471  13.684  0.00  0.00    +0.000 N 
ATOM     23  N   UNL     1      47.572   3.053  15.076  0.00  0.00    +0.000 NA
ATOM     24  C   UNL     1      48.279   2.870  16.219  0.00  0.00    +0.000 A 
ATOM     25  H   UNL     1      46.566   3.696  13.059  0.00  0.00    +0.000 HD
BRANCH  18  27
ATOM     26  N   UNL     1      48.591   3.180  19.454  0.00  0.00    +0.000 N 
ATOM     27  C   UNL     1      49.281   3.632  18.362  0.00  0.00    +0.000 C 
ATOM     28  O   UNL     1      50.492   3.804  18.399  0.00  0.00    +0.000 OA
ATOM     29  H   UNL     1      49.145   2.931  20.265  0.00  0.00    +0.000 HD
ATOM     30  H   UNL     1      47.660   2.789  19.399  0.00  0.00    +0.000 HD
ENDBRANCH  18  27
ENDBRANCH  17  22
ENDBRANCH   1  17
TORSDOF 5
ENDMDL
MODEL 6
REMARK VINA RESULT:    -8.170      3.264      7.786
REMARK INTER + INTRA:         -11.568
REMARK INTER:                 -10.833
REMARK INTRA:                  -0.735
REMARK UNBOUND:                -1.010
REMARK  Name = 
REMARK  5 active torsions:
REMARK  status: ('A' for Active; 'I' for Inactive)
REMARK    1  A    between atoms: C_2  and  C_4
REMARK    2  A    between atoms: N_8  and  C_9
REMARK    3  A    between atoms: C_9  and  C_10
REMARK    4  A    between atoms: C_10  and  C_13
REMARK    5  A    between atoms: C_15  and  C_16
REMARK                            x       y       z     vdW  Elec       q    Type
REMARK                         _______ _______ _______ _____ _____    ______ ____
ROOT
ATOM      1  C   UNL     1      46.028   7.242  12.226  0.00  0.00    +0.000 C 
ATOM      2  F   UNL     1      45.246   8.151  12.887  0.00  0.00    +0.000 F 
ATOM      3  F   UNL     1      46.788   7.989  11.362  0.00  0.00    +0.000 F 
ENDROOT
BRANCH   1   4
ATOM      4  C   UNL     1      45.183   6.210  11.479  0.00  0.00    +0.000 A 
ATOM      5  C   UNL     1      45.800   5.390  10.529  0.00  0.00    +0.000 A 
ATOM      6  C   UNL     1      45.053   4.447   9.802  0.00  0.00    +0.000 A 
ATOM      7  C   UNL     1      43.683   4.379  10.078  0.00  0.00    +0.000 A 
ATOM      8  C   UNL     1      43.135   5.233  11.024  0.00  0.00    +0.000 A 
ATOM      9  N   UNL     1      43.849   6.140  11.720  0.00  0.00    +0.000 NA
BRANCH   6  10
ATOM     10  C   UNL     1      45.693   3.587   8.779  0.00  0.00    +0.000 A 
ATOM     11  C   UNL     1      46.298   4.129   7.636  0.00  0.00    +0.000 A 
ATOM     12  C   UNL     1      46.843   3.283   6.679  0.00  0.00    +0.000 A 
ATOM     13  N   UNL     1      46.849   1.942   6.781  0.00  0.00    +0.000 NA
ATOM     14  C   UNL     1      46.282   1.429   7.889  0.00  0.00    +0.000 A 
ATOM     15  F   UNL     1      46.276   0.095   8.020  0.00  0.00    +0.000 F 
ATOM     16  C   UNL     1      45.704   2.189   8.893  0.00  0.00    +0.000 A 
ENDBRANCH   6  10
ENDBRANCH   1   4
BRANCH   1  17
ATOM     17  C   UNL     1      46.968   6.570  13.251  0.00  0.00    +0.000 C 
BRANCH  17  22
ATOM     18  C   UNL     1      48.567   3.910  17.042  0.00  0.00    +0.000 A 
ATOM     19  C   UNL     1      48.514   5.249  16.740  0.00  0.00    +0.000 A 
ATOM     20  N   UNL     1      47.810   5.752  15.707  0.00  0.00    +0.000 NA
ATOM     21  C   UNL     1      47.142   4.881  14.932  0.00  0.00    +0.000 A 
ATOM     22  N   UNL     1      46.395   5.356  13.865  0.00  0.00    +0.000 N 
ATOM     23  N   UNL     1      47.158   3.554  15.124  0.00  0.00    +0.000 NA
ATOM     24  C   UNL     1      47.877   3.093  16.177  0.00  0.00    +0.000 A 
ATOM     25  H   UNL     1      46.230   4.579  13.231  0.00  0.00    +0.000 HD
BRANCH  18  27
ATOM     26  N   UNL     1      48.650   3.162  19.345  0.00  0.00    +0.000 N 
ATOM     27  C   UNL     1      49.327   3.373  18.175  0.00  0.00    +0.000 C 
ATOM     28  O   UNL     1      50.516   3.098  18.068  0.00  0.00    +0.000 OA
ATOM     29  H   UNL     1      49.165   2.705  20.088  0.00  0.00    +0.000 HD
ATOM     30  H   UNL     1      47.641   3.133  19.404  0.00  0.00    +0.000 HD
ENDBRANCH  18  27
ENDBRANCH  17  22
ENDBRANCH   1  17
TORSDOF 5
ENDMDL
MODEL 7
REMARK VINA RESULT:    -7.765      3.537      8.357
REMARK INTER + INTRA:         -11.045
REMARK INTER:                 -10.362
REMARK INTRA:                  -0.684
REMARK UNBOUND:                -1.010
REMARK  Name = 
REMARK  5 active torsions:
REMARK  status: ('A' for Active; 'I' for Inactive)
REMARK    1  A    between atoms: C_2  and  C_4
REMARK    2  A    between atoms: N_8  and  C_9
REMARK    3  A    between atoms: C_9  and  C_10
REMARK    4  A    between atoms: C_10  and  C_13
REMARK    5  A    between atoms: C_15  and  C_16
REMARK                            x       y       z     vdW  Elec       q    Type
REMARK                         _______ _______ _______ _____ _____    ______ ____
ROOT
ATOM      1  C   UNL     1      44.810   3.526  12.835  0.00  0.00    +0.000 C 
ATOM      2  F   UNL     1      45.747   2.545  13.024  0.00  0.00    +0.000 F 
ATOM      3  F   UNL     1      43.660   3.031  13.397  0.00  0.00    +0.000 F 
ENDROOT
BRANCH   1   4
ATOM      4  C   UNL     1      44.616   3.842  11.352  0.00  0.00    +0.000 A 
ATOM      5  C   UNL     1      45.324   3.097  10.404  0.00  0.00    +0.000 A 
ATOM      6  C   UNL     1      45.194   3.373   9.032  0.00  0.00    +0.000 A 
ATOM      7  C   UNL     1      44.332   4.418   8.678  0.00  0.00    +0.000 A 
ATOM      8  C   UNL     1      43.672   5.123   9.672  0.00  0.00    +0.000 A 
ATOM      9  N   UNL     1      43.798   4.862  10.989  0.00  0.00    +0.000 NA
BRANCH   6  10
ATOM     10  C   UNL     1      45.954   2.603   8.020  0.00  0.00    +0.000 A 
ATOM     11  C   UNL     1      46.287   1.255   8.218  0.00  0.00    +0.000 A 
ATOM     12  C   UNL     1      47.041   0.585   7.265  0.00  0.00    +0.000 A 
ATOM     13  N   UNL     1      47.475   1.146   6.123  0.00  0.00    +0.000 NA
ATOM     14  C   UNL     1      47.138   2.435   5.931  0.00  0.00    +0.000 A 
ATOM     15  F   UNL     1      47.554   3.021   4.799  0.00  0.00    +0.000 F 
ATOM     16  C   UNL     1      46.399   3.191   6.826  0.00  0.00    +0.000 A 
ENDBRANCH   6  10
ENDBRANCH   1   4
BRANCH   1  17
ATOM     17  C   UNL     1      45.246   4.777  13.629  0.00  0.00    +0.000 C 
BRANCH  17  22
ATOM     18  C   UNL     1      48.250   4.447  17.485  0.00  0.00    +0.000 A 
ATOM     19  C   UNL     1      47.134   3.771  17.054  0.00  0.00    +0.000 A 
ATOM     20  N   UNL     1      46.608   3.913  15.822  0.00  0.00    +0.000 NA
ATOM     21  C   UNL     1      47.211   4.776  14.988  0.00  0.00    +0.000 A 
ATOM     22  N   UNL     1      46.710   4.943  13.706  0.00  0.00    +0.000 N 
ATOM     23  N   UNL     1      48.284   5.505  15.324  0.00  0.00    +0.000 NA
ATOM     24  C   UNL     1      48.783   5.329  16.573  0.00  0.00    +0.000 A 
ATOM     25  H   UNL     1      47.072   5.821  13.343  0.00  0.00    +0.000 HD
BRANCH  18  27
ATOM     26  N   UNL     1      48.314   3.277  19.606  0.00  0.00    +0.000 N 
ATOM     27  C   UNL     1      48.823   4.279  18.825  0.00  0.00    +0.000 C 
ATOM     28  O   UNL     1      49.739   4.990  19.216  0.00  0.00    +0.000 OA
ATOM     29  H   UNL     1      48.780   3.114  20.490  0.00  0.00    +0.000 HD
ATOM     30  H   UNL     1      47.750   2.521  19.242  0.00  0.00    +0.000 HD
ENDBRANCH  18  27
ENDBRANCH  17  22
ENDBRANCH   1  17
TORSDOF 5
ENDMDL
MODEL 8
REMARK VINA RESULT:    -7.651      3.590      7.854
REMARK INTER + INTRA:         -10.897
REMARK INTER:                 -10.102
REMARK INTRA:                  -0.795
REMARK UNBOUND:                -1.010
REMARK  Name = 
REMARK  5 active torsions:
REMARK  status: ('A' for Active; 'I' for Inactive)
REMARK    1  A    between atoms: C_2  and  C_4
REMARK    2  A    between atoms: N_8  and  C_9
REMARK    3  A    between atoms: C_9  and  C_10
REMARK    4  A    between atoms: C_10  and  C_13
REMARK    5  A    between atoms: C_15  and  C_16
REMARK                            x       y       z     vdW  Elec       q    Type
REMARK                         _______ _______ _______ _____ _____    ______ ____
ROOT
ATOM      1  C   UNL     1      48.780   7.991  12.454  0.00  0.00    +0.000 C 
ATOM      2  F   UNL     1      49.298   9.035  11.736  0.00  0.00    +0.000 F 
ATOM      3  F   UNL     1      49.552   6.909  12.114  0.00  0.00    +0.000 F 
ENDROOT
BRANCH   1   4
ATOM      4  C   UNL     1      47.307   7.753  12.120  0.00  0.00    +0.000 A 
ATOM      5  C   UNL     1      46.946   6.579  11.453  0.00  0.00    +0.000 A 
ATOM      6  C   UNL     1      45.607   6.335  11.104  0.00  0.00    +0.000 A 
ATOM      7  C   UNL     1      44.674   7.317  11.456  0.00  0.00    +0.000 A 
ATOM      8  C   UNL     1      45.105   8.464  12.105  0.00  0.00    +0.000 A 
ATOM      9  N   UNL     1      46.389   8.702  12.438  0.00  0.00    +0.000 NA
BRANCH   6  10
ATOM     10  C   UNL     1      45.216   5.103  10.380  0.00  0.00    +0.000 A 
ATOM     11  C   UNL     1      44.511   4.069  11.014  0.00  0.00    +0.000 A 
ATOM     12  C   UNL     1      44.206   2.911  10.310  0.00  0.00    +0.000 A 
ATOM     13  N   UNL     1      44.534   2.709   9.022  0.00  0.00    +0.000 NA
ATOM     14  C   UNL     1      45.196   3.712   8.415  0.00  0.00    +0.000 A 
ATOM     15  F   UNL     1      45.533   3.541   7.129  0.00  0.00    +0.000 F 
ATOM     16  C   UNL     1      45.553   4.899   9.033  0.00  0.00    +0.000 A 
ENDBRANCH   6  10
ENDBRANCH   1   4
BRANCH   1  17
ATOM     17  C   UNL     1      48.979   8.285  13.957  0.00  0.00    +0.000 C 
BRANCH  17  22
ATOM     18  C   UNL     1      48.229   4.456  16.921  0.00  0.00    +0.000 A 
ATOM     19  C   UNL     1      47.615   4.961  15.800  0.00  0.00    +0.000 A 
ATOM     20  N   UNL     1      48.156   5.919  15.023  0.00  0.00    +0.000 NA
ATOM     21  C   UNL     1      49.354   6.407  15.386  0.00  0.00    +0.000 A 
ATOM     22  N   UNL     1      49.952   7.385  14.607  0.00  0.00    +0.000 N 
ATOM     23  N   UNL     1      50.018   6.004  16.478  0.00  0.00    +0.000 NA
ATOM     24  C   UNL     1      49.439   5.036  17.230  0.00  0.00    +0.000 A 
ATOM     25  H   UNL     1      50.662   7.842  15.174  0.00  0.00    +0.000 HD
BRANCH  18  27
ATOM     26  N   UNL     1      48.330   3.025  18.873  0.00  0.00    +0.000 N 
ATOM     27  C   UNL     1      47.638   3.405  17.755  0.00  0.00    +0.000 C 
ATOM     28  O   UNL     1      46.555   2.908  17.476  0.00  0.00    +0.000 OA
ATOM     29  H   UNL     1      47.867   2.366  19.487  0.00  0.00    +0.000 HD
ATOM     30  H   UNL     1      49.081   3.571  19.273  0.00  0.00    +0.000 HD
ENDBRANCH  18  27
ENDBRANCH  17  22
ENDBRANCH   1  17
TORSDOF 5
ENDMDL
MODEL 9
REMARK VINA RESULT:    -7.345      3.688      6.097
REMARK INTER + INTRA:         -10.502
REMARK INTER:                  -9.711
REMARK INTRA:                  -0.791
REMARK UNBOUND:                -1.010
REMARK  Name = 
REMARK  5 active torsions:
REMARK  status: ('A' for Active; 'I' for Inactive)
REMARK    1  A    between atoms: C_2  and  C_4
REMARK    2  A    between atoms: N_8  and  C_9
REMARK    3  A    between atoms: C_9  and  C_10
REMARK    4  A    between atoms: C_10  and  C_13
REMARK    5  A    between atoms: C_15  and  C_16
REMARK                            x       y       z     vdW  Elec       q    Type
REMARK                         _______ _______ _______ _____ _____    ______ ____
ROOT
ATOM      1  C   UNL     1      47.583   3.874  17.046  0.00  0.00    +0.000 C 
ATOM      2  F   UNL     1      46.785   4.759  17.720  0.00  0.00    +0.000 F 
ATOM      3  F   UNL     1      47.349   2.661  17.644  0.00  0.00    +0.000 F 
ENDROOT
BRANCH   1   4
ATOM      4  C   UNL     1      49.058   4.265  17.133  0.00  0.00    +0.000 A 
ATOM      5  C   UNL     1      49.995   3.294  17.499  0.00  0.00    +0.000 A 
ATOM      6  C   UNL     1      51.357   3.619  17.616  0.00  0.00    +0.000 A 
ATOM      7  C   UNL     1      51.714   4.946  17.351  0.00  0.00    +0.000 A 
ATOM      8  C   UNL     1      50.730   5.860  17.005  0.00  0.00    +0.000 A 
ATOM      9  N   UNL     1      49.423   5.551  16.896  0.00  0.00    +0.000 NA
BRANCH   6  10
ATOM     10  C   UNL     1      52.356   2.602  18.023  0.00  0.00    +0.000 A 
ATOM     11  C   UNL     1      52.242   1.261  17.628  0.00  0.00    +0.000 A 
ATOM     12  C   UNL     1      53.175   0.332  18.071  0.00  0.00    +0.000 A 
ATOM     13  N   UNL     1      54.219   0.637  18.861  0.00  0.00    +0.000 NA
ATOM     14  C   UNL     1      54.331   1.930  19.222  0.00  0.00    +0.000 A 
ATOM     15  F   UNL     1      55.365   2.264  20.008  0.00  0.00    +0.000 F 
ATOM     16  C   UNL     1      53.448   2.926  18.841  0.00  0.00    +0.000 A 
ENDBRANCH   6  10
ENDBRANCH   1   4
BRANCH   1  17
ATOM     17  C   UNL     1      47.102   3.800  15.581  0.00  0.00    +0.000 C 
BRANCH  17  22
ATOM     18  C   UNL     1      45.559   4.965  11.079  0.00  0.00    +0.000 A 
ATOM     19  C   UNL     1      45.290   3.959  11.974  0.00  0.00    +0.000 A 
ATOM     20  N   UNL     1      45.687   3.983  13.262  0.00  0.00    +0.000 NA
ATOM     21  C   UNL     1      46.394   5.050  13.671  0.00  0.00    +0.000 A 
ATOM     22  N   UNL     1      46.811   5.122  14.991  0.00  0.00    +0.000 N 
ATOM     23  N   UNL     1      46.735   6.067  12.866  0.00  0.00    +0.000 NA
ATOM     24  C   UNL     1      46.312   6.002  11.579  0.00  0.00    +0.000 A 
ATOM     25  H   UNL     1      47.566   5.801  15.042  0.00  0.00    +0.000 HD
BRANCH  18  27
ATOM     26  N   UNL     1      43.814   4.584   9.441  0.00  0.00    +0.000 N 
ATOM     27  C   UNL     1      45.114   4.935   9.681  0.00  0.00    +0.000 C 
ATOM     28  O   UNL     1      45.872   5.240   8.769  0.00  0.00    +0.000 OA
ATOM     29  H   UNL     1      43.497   4.657   8.482  0.00  0.00    +0.000 HD
ATOM     30  H   UNL     1      43.101   4.573  10.158  0.00  0.00    +0.000 HD
ENDBRANCH  18  27
ENDBRANCH  17  22
ENDBRANCH   1  17
TORSDOF 5
ENDMDL
