MODEL 1
REMARK VINA RESULT:    -9.496      0.000      0.000
REMARK INTER + INTRA:         -13.247
REMARK INTER:                 -12.271
REMARK INTRA:                  -0.976
REMARK UNBOUND:                -0.976
REMARK  Name = 
REMARK  5 active torsions:
REMARK  status: ('A' for Active; 'I' for Inactive)
REMARK    1  A    between atoms: C_2  and  C_4
REMARK    2  A    between atoms: C_7  and  C_8
REMARK    3  A    between atoms: C_8  and  C_9
REMARK    4  A    between atoms: C_9  and  C_10
REMARK    5  A    between atoms: C_14  and  C_15
REMARK                            x       y       z     vdW  Elec       q    Type
REMARK                         _______ _______ _______ _____ _____    ______ ____
ROOT
ATOM      1  C   UNL     1      44.249   4.645  11.851  0.00  0.00    +0.000 C 
ATOM      2  C   UNL     1      43.540   3.701  12.819  0.00  0.00    +0.000 C 
ATOM      3  C   UNL     1      43.141   5.142  12.792  0.00  0.00    +0.000 C 
ENDROOT
BRANCH   1   4
ATOM      4  C   UNL     1      45.628   5.168  12.243  0.00  0.00    +0.000 A 
ATOM      5  C   UNL     1      46.193   6.247  11.561  0.00  0.00    +0.000 A 
ATOM      6  C   UNL     1      47.214   6.973  12.160  0.00  0.00    +0.000 A 
ATOM      7  C   UNL     1      47.680   6.581  13.409  0.00  0.00    +0.000 A 
ATOM      8  C   UNL     1      47.153   5.438  13.999  0.00  0.00    +0.000 A 
ATOM      9  N   UNL     1      46.149   4.734  13.418  0.00  0.00    +0.000 NA
BRANCH   8  10
ATOM     10  C   UNL     1      47.590   4.934  15.314  0.00  0.00    +0.000 A 
ATOM     11  C   UNL     1      47.214   3.664  15.783  0.00  0.00    +0.000 A 
ATOM     12  C   UNL     1      47.636   3.208  17.040  0.00  0.00    +0.000 A 
ATOM     13  C   UNL     1      48.441   4.016  17.828  0.00  0.00    +0.000 A 
ATOM     14  F   UNL     1      48.835   3.582  19.031  0.00  0.00    +0.000 F 
ATOM     15  C   UNL     1      48.846   5.267  17.385  0.00  0.00    +0.000 A 
ATOM     16  C   UNL     1      48.426   5.720  16.133  0.00  0.00    +0.000 A 
ENDBRANCH   8  10
ENDBRANCH   1   4
BRANCH   1  17
ATOM     17  C   UNL     1      43.875   4.626  10.383  0.00  0.00    +0.000 C 
BRANCH  17  21
ATOM     18  C   UNL     1      46.411   2.334   7.712  0.00  0.00    +0.000 A 
ATOM     19  C   UNL     1      46.392   3.729   7.586  0.00  0.00    +0.000 A 
ATOM     20  C   UNL     1      45.579   4.511   8.425  0.00  0.00    +0.000 A 
ATOM     21  C   UNL     1      44.765   3.908   9.389  0.00  0.00    +0.000 A 
ATOM     22  C   UNL     1      44.782   2.500   9.484  0.00  0.00    +0.000 A 
ATOM     23  C   UNL     1      45.588   1.720   8.654  0.00  0.00    +0.000 A 
BRANCH  18  25
ATOM     24  N   UNL     1      48.393   2.050   6.332  0.00  0.00    +0.000 N 
ATOM     25  C   UNL     1      47.290   1.463   6.890  0.00  0.00    +0.000 C 
ATOM     26  O   UNL     1      47.082   0.262   6.763  0.00  0.00    +0.000 OA
ATOM     27  H   UNL     1      49.065   1.417   5.915  0.00  0.00    +0.000 HD
ATOM     28  H   UNL     1      48.728   2.950   6.641  0.00  0.00    +0.000 HD
ENDBRANCH  18  25
ENDBRANCH  17  21
ENDBRANCH   1  17
TORSDOF 5
ENDMDL
MODEL 2
REMARK VINA RESULT:    -8.411      1.930      2.506
REMARK INTER + INTRA:         -11.845
REMARK INTER:                 -10.892
REMARK INTRA:                  -0.953
REMARK UNBOUND:                -0.976
REMARK  Name = 
REMARK  5 active torsions:
REMARK  status: ('A' for Active; 'I' for Inactive)
REMARK    1  A    between atoms: C_2  and  C_4
REMARK    2  A    between atoms: C_7  and  C_8
REMARK    3  A    between atoms: C_8  and  C_9
REMARK    4  A    between atoms: C_9  and  C_10
REMARK    5  A    between atoms: C_14  and  C_15
REMARK                            x       y       z     vdW  Elec       q    Type
REMARK                         _______ _______ _______ _____ _____    ______ ____
ROOT
ATOM      1  C   UNL     1      44.319   5.139  11.733  0.00  0.00    +0.000 C 
ATOM      2  C   UNL     1      44.545   4.136  12.861  0.00  0.00    +0.000 C 
ATOM      3  C   UNL     1      43.339   5.016  12.909  0.00  0.00    +0.000 C 
ENDROOT
BRANCH   1   4
ATOM      4  C   UNL     1      45.113   6.443  11.767  0.00  0.00    +0.000 A 
ATOM      5  C   UNL     1      44.515   7.641  11.372  0.00  0.00    +0.000 A 
ATOM      6  C   UNL     1      45.067   8.846  11.785  0.00  0.00    +0.000 A 
ATOM      7  C   UNL     1      46.227   8.833  12.549  0.00  0.00    +0.000 A 
ATOM      8  C   UNL     1      46.839   7.615  12.827  0.00  0.00    +0.000 A 
ATOM      9  N   UNL     1      46.295   6.438  12.431  0.00  0.00    +0.000 NA
BRANCH   8  10
ATOM     10  C   UNL     1      48.078   7.498  13.617  0.00  0.00    +0.000 A 
ATOM     11  C   UNL     1      48.161   6.665  14.745  0.00  0.00    +0.000 A 
ATOM     12  C   UNL     1      49.349   6.574  15.486  0.00  0.00    +0.000 A 
ATOM     13  C   UNL     1      50.458   7.309  15.097  0.00  0.00    +0.000 A 
ATOM     14  F   UNL     1      51.587   7.226  15.811  0.00  0.00    +0.000 F 
ATOM     15  C   UNL     1      50.414   8.125  13.976  0.00  0.00    +0.000 A 
ATOM     16  C   UNL     1      49.232   8.215  13.239  0.00  0.00    +0.000 A 
ENDBRANCH   8  10
ENDBRANCH   1   4
BRANCH   1  17
ATOM     17  C   UNL     1      43.781   4.656  10.403  0.00  0.00    +0.000 C 
BRANCH  17  21
ATOM     18  C   UNL     1      46.394   2.382   7.791  0.00  0.00    +0.000 A 
ATOM     19  C   UNL     1      46.402   3.780   7.696  0.00  0.00    +0.000 A 
ATOM     20  C   UNL     1      45.566   4.557   8.517  0.00  0.00    +0.000 A 
ATOM     21  C   UNL     1      44.702   3.946   9.431  0.00  0.00    +0.000 A 
ATOM     22  C   UNL     1      44.692   2.536   9.494  0.00  0.00    +0.000 A 
ATOM     23  C   UNL     1      45.521   1.761   8.681  0.00  0.00    +0.000 A 
BRANCH  18  25
ATOM     24  N   UNL     1      48.385   2.115   6.421  0.00  0.00    +0.000 N 
ATOM     25  C   UNL     1      47.293   1.515   6.987  0.00  0.00    +0.000 C 
ATOM     26  O   UNL     1      47.111   0.309   6.881  0.00  0.00    +0.000 OA
ATOM     27  H   UNL     1      49.072   1.490   6.018  0.00  0.00    +0.000 HD
ATOM     28  H   UNL     1      48.701   3.028   6.715  0.00  0.00    +0.000 HD
ENDBRANCH  18  25
ENDBRANCH  17  21
ENDBRANCH   1  17
TORSDOF 5
ENDMDL
MODEL 3
REMARK VINA RESULT:    -8.044      2.736      3.848
REMARK INTER + INTRA:         -11.370
REMARK INTER:                 -11.035
REMARK INTRA:                  -0.336
REMARK UNBOUND:                -0.976
REMARK  Name = 
REMARK  5 active torsions:
REMARK  status: ('A' for Active; 'I' for Inactive)
REMARK    1  A    between atoms: C_2  and  C_4
REMARK    2  A    between atoms: C_7  and  C_8
REMARK    3  A    between atoms: C_8  and  C_9
REMARK    4  A    between atoms: C_9  and  C_10
REMARK    5  A    between atoms: C_14  and  C_15
REMARK                            x       y       z     vdW  Elec       q    Type
REMARK                         _______ _______ _______ _____ _____    ______ ____
ROOT
ATOM      1  C   UNL     1      43.674   4.763  11.641  0.00  0.00    +0.000 C 
ATOM      2  C   UNL     1      42.404   5.493  12.071  0.00  0.00    +0.000 C 
ATOM      3  C   UNL     1      43.255   6.095  11.000  0.00  0.00    +0.000 C 
ENDROOT
BRANCH   1   4
ATOM      4  C   UNL     1      44.911   4.902  12.523  0.00  0.00    +0.000 A 
ATOM      5  C   UNL     1      45.465   3.779  13.141  0.00  0.00    +0.000 A 
ATOM      6  C   UNL     1      46.782   3.823  13.579  0.00  0.00    +0.000 A 
ATOM      7  C   UNL     1      47.506   5.000  13.431  0.00  0.00    +0.000 A 
ATOM      8  C   UNL     1      46.874   6.119  12.902  0.00  0.00    +0.000 A 
ATOM      9  N   UNL     1      45.591   6.074  12.466  0.00  0.00    +0.000 NA
BRANCH   8  10
ATOM     10  C   UNL     1      47.553   7.416  12.718  0.00  0.00    +0.000 A 
ATOM     11  C   UNL     1      47.278   8.519  13.543  0.00  0.00    +0.000 A 
ATOM     12  C   UNL     1      47.930   9.745  13.345  0.00  0.00    +0.000 A 
ATOM     13  C   UNL     1      48.863   9.869  12.328  0.00  0.00    +0.000 A 
ATOM     14  F   UNL     1      49.478  11.043  12.136  0.00  0.00    +0.000 F 
ATOM     15  C   UNL     1      49.171   8.793  11.509  0.00  0.00    +0.000 A 
ATOM     16  C   UNL     1      48.522   7.572  11.707  0.00  0.00    +0.000 A 
ENDBRANCH   8  10
ENDBRANCH   1   4
BRANCH   1  17
ATOM     17  C   UNL     1      43.568   3.557  10.730  0.00  0.00    +0.000 C 
BRANCH  17  21
ATOM     18  C   UNL     1      46.477   2.766   7.611  0.00  0.00    +0.000 A 
ATOM     19  C   UNL     1      46.112   4.094   7.866  0.00  0.00    +0.000 A 
ATOM     20  C   UNL     1      45.167   4.397   8.862  0.00  0.00    +0.000 A 
ATOM     21  C   UNL     1      44.566   3.375   9.604  0.00  0.00    +0.000 A 
ATOM     22  C   UNL     1      44.931   2.043   9.316  0.00  0.00    +0.000 A 
ATOM     23  C   UNL     1      45.869   1.738   8.328  0.00  0.00    +0.000 A 
BRANCH  18  25
ATOM     24  N   UNL     1      47.542   3.127   5.455  0.00  0.00    +0.000 N 
ATOM     25  C   UNL     1      47.509   2.392   6.609  0.00  0.00    +0.000 C 
ATOM     26  O   UNL     1      48.334   1.512   6.820  0.00  0.00    +0.000 OA
ATOM     27  H   UNL     1      48.345   2.973   4.858  0.00  0.00    +0.000 HD
ATOM     28  H   UNL     1      47.066   4.013   5.376  0.00  0.00    +0.000 HD
ENDBRANCH  18  25
ENDBRANCH  17  21
ENDBRANCH   1  17
TORSDOF 5
ENDMDL
MODEL 4
REMARK VINA RESULT:    -7.438      3.902      7.857
REMARK INTER + INTRA:         -10.588
REMARK INTER:                 -10.520
REMARK INTRA:                  -0.067
REMARK UNBOUND:                -0.976
REMARK  Name = 
REMARK  5 active torsions:
REMARK  status: ('A' for Active; 'I' for Inactive)
REMARK    1  A    between atoms: C_2  and  C_4
REMARK    2  A    between atoms: C_7  and  C_8
REMARK    3  A    between atoms: C_8  and  C_9
REMARK    4  A    between atoms: C_9  and  C_10
REMARK    5  A    between atoms: C_14  and  C_15
REMARK                            x       y       z     vdW  Elec       q    Type
REMARK                         _______ _______ _______ _____ _____    ______ ____
ROOT
ATOM      1  C   UNL     1      46.346   7.412  12.323  0.00  0.00    +0.000 C 
ATOM      2  C   UNL     1      46.143   8.817  11.763  0.00  0.00    +0.000 C 
ATOM      3  C   UNL     1      45.682   8.521  13.153  0.00  0.00    +0.000 C 
ENDROOT
BRANCH   1   4
ATOM      4  C   UNL     1      45.361   6.325  11.902  0.00  0.00    +0.000 A 
ATOM      5  C   UNL     1      44.015   6.418  12.260  0.00  0.00    +0.000 A 
ATOM      6  C   UNL     1      43.069   5.689  11.552  0.00  0.00    +0.000 A 
ATOM      7  C   UNL     1      43.490   4.849  10.528  0.00  0.00    +0.000 A 
ATOM      8  C   UNL     1      44.852   4.715  10.282  0.00  0.00    +0.000 A 
ATOM      9  N   UNL     1      45.775   5.434  10.967  0.00  0.00    +0.000 NA
BRANCH   8  10
ATOM     10  C   UNL     1      45.398   3.839   9.228  0.00  0.00    +0.000 A 
ATOM     11  C   UNL     1      46.022   4.360   8.082  0.00  0.00    +0.000 A 
ATOM     12  C   UNL     1      46.528   3.509   7.089  0.00  0.00    +0.000 A 
ATOM     13  C   UNL     1      46.418   2.135   7.242  0.00  0.00    +0.000 A 
ATOM     14  F   UNL     1      46.894   1.325   6.289  0.00  0.00    +0.000 F 
ATOM     15  C   UNL     1      45.825   1.590   8.371  0.00  0.00    +0.000 A 
ATOM     16  C   UNL     1      45.322   2.438   9.360  0.00  0.00    +0.000 A 
ENDBRANCH   8  10
ENDBRANCH   1   4
BRANCH   1  17
ATOM     17  C   UNL     1      47.720   6.993  12.805  0.00  0.00    +0.000 C 
BRANCH  17  21
ATOM     18  C   UNL     1      47.878   4.667  16.464  0.00  0.00    +0.000 A 
ATOM     19  C   UNL     1      48.619   5.855  16.391  0.00  0.00    +0.000 A 
ATOM     20  C   UNL     1      48.604   6.636  15.222  0.00  0.00    +0.000 A 
ATOM     21  C   UNL     1      47.861   6.233  14.108  0.00  0.00    +0.000 A 
ATOM     22  C   UNL     1      47.140   5.022  14.195  0.00  0.00    +0.000 A 
ATOM     23  C   UNL     1      47.152   4.244  15.353  0.00  0.00    +0.000 A 
BRANCH  18  25
ATOM     24  N   UNL     1      46.901   2.813  17.696  0.00  0.00    +0.000 N 
ATOM     25  C   UNL     1      47.815   3.831  17.690  0.00  0.00    +0.000 C 
ATOM     26  O   UNL     1      48.581   3.996  18.631  0.00  0.00    +0.000 OA
ATOM     27  H   UNL     1      46.979   2.155  18.462  0.00  0.00    +0.000 HD
ATOM     28  H   UNL     1      46.460   2.491  16.847  0.00  0.00    +0.000 HD
ENDBRANCH  18  25
ENDBRANCH  17  21
ENDBRANCH   1  17
TORSDOF 5
ENDMDL
MODEL 5
REMARK VINA RESULT:    -7.223      4.270      7.787
REMARK INTER + INTRA:         -10.310
REMARK INTER:                  -9.164
REMARK INTRA:                  -1.146
REMARK UNBOUND:                -0.976
REMARK  Name = 
REMARK  5 active torsions:
REMARK  status: ('A' for Active; 'I' for Inactive)
REMARK    1  A    between atoms: C_2  and  C_4
REMARK    2  A    between atoms: C_7  and  C_8
REMARK    3  A    between atoms: C_8  and  C_9
REMARK    4  A    between atoms: C_9  and  C_10
REMARK    5  A    between atoms: C_14  and  C_15
REMARK                            x       y       z     vdW  Elec       q    Type
REMARK                         _______ _______ _______ _____ _____    ______ ____
ROOT
ATOM      1  C   UNL     1      46.345   4.594  13.245  0.00  0.00    +0.000 C 
ATOM      2  C   UNL     1      46.110   4.485  14.750  0.00  0.00    +0.000 C 
ATOM      3  C   UNL     1      47.212   3.687  14.131  0.00  0.00    +0.000 C 
ENDROOT
BRANCH   1   4
ATOM      4  C   UNL     1      45.426   3.801  12.319  0.00  0.00    +0.000 A 
ATOM      5  C   UNL     1      44.063   3.695  12.602  0.00  0.00    +0.000 A 
ATOM      6  C   UNL     1      43.181   3.353  11.586  0.00  0.00    +0.000 A 
ATOM      7  C   UNL     1      43.681   3.082  10.318  0.00  0.00    +0.000 A 
ATOM      8  C   UNL     1      45.056   3.102  10.116  0.00  0.00    +0.000 A 
ATOM      9  N   UNL     1      45.917   3.445  11.106  0.00  0.00    +0.000 NA
BRANCH   8  10
ATOM     10  C   UNL     1      45.684   2.816   8.813  0.00  0.00    +0.000 A 
ATOM     11  C   UNL     1      46.077   1.517   8.450  0.00  0.00    +0.000 A 
ATOM     12  C   UNL     1      46.679   1.268   7.208  0.00  0.00    +0.000 A 
ATOM     13  C   UNL     1      46.882   2.315   6.322  0.00  0.00    +0.000 A 
ATOM     14  F   UNL     1      47.463   2.076   5.141  0.00  0.00    +0.000 F 
ATOM     15  C   UNL     1      46.485   3.605   6.642  0.00  0.00    +0.000 A 
ATOM     16  C   UNL     1      45.886   3.852   7.879  0.00  0.00    +0.000 A 
ENDBRANCH   8  10
ENDBRANCH   1   4
BRANCH   1  17
ATOM     17  C   UNL     1      47.057   5.809  12.688  0.00  0.00    +0.000 C 
BRANCH  17  21
ATOM     18  C   UNL     1      44.761   9.380  11.799  0.00  0.00    +0.000 A 
ATOM     19  C   UNL     1      45.773   9.457  12.765  0.00  0.00    +0.000 A 
ATOM     20  C   UNL     1      46.537   8.322  13.090  0.00  0.00    +0.000 A 
ATOM     21  C   UNL     1      46.289   7.096  12.466  0.00  0.00    +0.000 A 
ATOM     22  C   UNL     1      45.249   7.035  11.513  0.00  0.00    +0.000 A 
ATOM     23  C   UNL     1      44.489   8.158  11.186  0.00  0.00    +0.000 A 
BRANCH  18  25
ATOM     24  N   UNL     1      42.820  10.816  12.089  0.00  0.00    +0.000 N 
ATOM     25  C   UNL     1      43.959  10.558  11.377  0.00  0.00    +0.000 C 
ATOM     26  O   UNL     1      44.323  11.305  10.477  0.00  0.00    +0.000 OA
ATOM     27  H   UNL     1      42.374  11.705  11.900  0.00  0.00    +0.000 HD
ATOM     28  H   UNL     1      42.647  10.389  12.987  0.00  0.00    +0.000 HD
ENDBRANCH  18  25
ENDBRANCH  17  21
ENDBRANCH   1  17
TORSDOF 5
ENDMDL
MODEL 6
REMARK VINA RESULT:    -7.175      4.633      7.670
REMARK INTER + INTRA:         -10.249
REMARK INTER:                  -9.433
REMARK INTRA:                  -0.816
REMARK UNBOUND:                -0.976
REMARK  Name = 
REMARK  5 active torsions:
REMARK  status: ('A' for Active; 'I' for Inactive)
REMARK    1  A    between atoms: C_2  and  C_4
REMARK    2  A    between atoms: C_7  and  C_8
REMARK    3  A    between atoms: C_8  and  C_9
REMARK    4  A    between atoms: C_9  and  C_10
REMARK    5  A    between atoms: C_14  and  C_15
REMARK                            x       y       z     vdW  Elec       q    Type
REMARK                         _______ _______ _______ _____ _____    ______ ____
ROOT
ATOM      1  C   UNL     1      43.959   5.658  11.871  0.00  0.00    +0.000 C 
ATOM      2  C   UNL     1      43.311   6.585  10.845  0.00  0.00    +0.000 C 
ATOM      3  C   UNL     1      42.467   6.017  11.940  0.00  0.00    +0.000 C 
ENDROOT
BRANCH   1   4
ATOM      4  C   UNL     1      44.193   4.203  11.473  0.00  0.00    +0.000 A 
ATOM      5  C   UNL     1      43.433   3.185  12.050  0.00  0.00    +0.000 A 
ATOM      6  C   UNL     1      43.345   1.955  11.412  0.00  0.00    +0.000 A 
ATOM      7  C   UNL     1      44.052   1.752  10.232  0.00  0.00    +0.000 A 
ATOM      8  C   UNL     1      44.875   2.767   9.756  0.00  0.00    +0.000 A 
ATOM      9  N   UNL     1      44.954   3.970  10.374  0.00  0.00    +0.000 NA
BRANCH   8  10
ATOM     10  C   UNL     1      45.674   2.643   8.522  0.00  0.00    +0.000 A 
ATOM     11  C   UNL     1      46.293   1.435   8.160  0.00  0.00    +0.000 A 
ATOM     12  C   UNL     1      47.054   1.342   6.985  0.00  0.00    +0.000 A 
ATOM     13  C   UNL     1      47.192   2.452   6.167  0.00  0.00    +0.000 A 
ATOM     14  F   UNL     1      47.926   2.362   5.051  0.00  0.00    +0.000 F 
ATOM     15  C   UNL     1      46.576   3.654   6.487  0.00  0.00    +0.000 A 
ATOM     16  C   UNL     1      45.819   3.746   7.657  0.00  0.00    +0.000 A 
ENDBRANCH   8  10
ENDBRANCH   1   4
BRANCH   1  17
ATOM     17  C   UNL     1      44.808   6.250  12.977  0.00  0.00    +0.000 C 
BRANCH  17  21
ATOM     18  C   UNL     1      48.123   8.857  11.959  0.00  0.00    +0.000 A 
ATOM     19  C   UNL     1      48.293   7.472  11.826  0.00  0.00    +0.000 A 
ATOM     20  C   UNL     1      47.248   6.590  12.153  0.00  0.00    +0.000 A 
ATOM     21  C   UNL     1      46.028   7.079  12.629  0.00  0.00    +0.000 A 
ATOM     22  C   UNL     1      45.885   8.475  12.777  0.00  0.00    +0.000 A 
ATOM     23  C   UNL     1      46.919   9.355  12.455  0.00  0.00    +0.000 A 
BRANCH  18  25
ATOM     24  N   UNL     1      50.438   9.349  11.402  0.00  0.00    +0.000 N 
ATOM     25  C   UNL     1      49.172   9.837  11.579  0.00  0.00    +0.000 C 
ATOM     26  O   UNL     1      48.916  11.017  11.371  0.00  0.00    +0.000 OA
ATOM     27  H   UNL     1      51.103   9.990  10.988  0.00  0.00    +0.000 HD
ATOM     28  H   UNL     1      50.616   8.361  11.300  0.00  0.00    +0.000 HD
ENDBRANCH  18  25
ENDBRANCH  17  21
ENDBRANCH   1  17
TORSDOF 5
ENDMDL
MODEL 7
REMARK VINA RESULT:    -6.907      3.296      5.067
REMARK INTER + INTRA:          -9.901
REMARK INTER:                  -8.793
REMARK INTRA:                  -1.109
REMARK UNBOUND:                -0.976
REMARK  Name = 
REMARK  5 active torsions:
REMARK  status: ('A' for Active; 'I' for Inactive)
REMARK    1  A    between atoms: C_2  and  C_4
REMARK    2  A    between atoms: C_7  and  C_8
REMARK    3  A    between atoms: C_8  and  C_9
REMARK    4  A    between atoms: C_9  and  C_10
REMARK    5  A    between atoms: C_14  and  C_15
REMARK                            x       y       z     vdW  Elec       q    Type
REMARK                         _______ _______ _______ _____ _____    ______ ____
ROOT
ATOM      1  C   UNL     1      48.449   8.140  13.643  0.00  0.00    +0.000 C 
ATOM      2  C   UNL     1      47.624   9.373  13.285  0.00  0.00    +0.000 C 
ATOM      3  C   UNL     1      49.105   9.414  13.089  0.00  0.00    +0.000 C 
ENDROOT
BRANCH   1   4
ATOM      4  C   UNL     1      48.780   7.902  15.113  0.00  0.00    +0.000 A 
ATOM      5  C   UNL     1      48.356   8.810  16.086  0.00  0.00    +0.000 A 
ATOM      6  C   UNL     1      48.284   8.403  17.412  0.00  0.00    +0.000 A 
ATOM      7  C   UNL     1      48.676   7.113  17.747  0.00  0.00    +0.000 A 
ATOM      8  C   UNL     1      49.188   6.284  16.754  0.00  0.00    +0.000 A 
ATOM      9  N   UNL     1      49.250   6.678  15.459  0.00  0.00    +0.000 NA
BRANCH   8  10
ATOM     10  C   UNL     1      49.643   4.905  17.012  0.00  0.00    +0.000 A 
ATOM     11  C   UNL     1      50.963   4.623  17.402  0.00  0.00    +0.000 A 
ATOM     12  C   UNL     1      51.377   3.303  17.635  0.00  0.00    +0.000 A 
ATOM     13  C   UNL     1      50.471   2.264  17.487  0.00  0.00    +0.000 A 
ATOM     14  F   UNL     1      50.871   1.005  17.703  0.00  0.00    +0.000 F 
ATOM     15  C   UNL     1      49.155   2.512  17.124  0.00  0.00    +0.000 A 
ATOM     16  C   UNL     1      48.744   3.826  16.892  0.00  0.00    +0.000 A 
ENDBRANCH   8  10
ENDBRANCH   1   4
BRANCH   1  17
ATOM     17  C   UNL     1      48.465   6.955  12.699  0.00  0.00    +0.000 C 
BRANCH  17  21
ATOM     18  C   UNL     1      44.865   4.615  12.076  0.00  0.00    +0.000 A 
ATOM     19  C   UNL     1      45.249   5.532  11.088  0.00  0.00    +0.000 A 
ATOM     20  C   UNL     1      46.404   6.317  11.252  0.00  0.00    +0.000 A 
ATOM     21  C   UNL     1      47.180   6.206  12.409  0.00  0.00    +0.000 A 
ATOM     22  C   UNL     1      46.763   5.294  13.402  0.00  0.00    +0.000 A 
ATOM     23  C   UNL     1      45.618   4.512  13.245  0.00  0.00    +0.000 A 
BRANCH  18  25
ATOM     24  N   UNL     1      43.777   2.484  12.509  0.00  0.00    +0.000 N 
ATOM     25  C   UNL     1      43.686   3.723  11.933  0.00  0.00    +0.000 C 
ATOM     26  O   UNL     1      42.655   4.088  11.383  0.00  0.00    +0.000 OA
ATOM     27  H   UNL     1      42.916   1.952  12.547  0.00  0.00    +0.000 HD
ATOM     28  H   UNL     1      44.490   2.266  13.188  0.00  0.00    +0.000 HD
ENDBRANCH  18  25
ENDBRANCH  17  21
ENDBRANCH   1  17
TORSDOF 5
ENDMDL
MODEL 8
REMARK VINA RESULT:    -6.902      3.731      7.773
REMARK INTER + INTRA:          -9.895
REMARK INTER:                  -9.619
REMARK INTRA:                  -0.277
REMARK UNBOUND:                -0.976
REMARK  Name = 
REMARK  5 active torsions:
REMARK  status: ('A' for Active; 'I' for Inactive)
REMARK    1  A    between atoms: C_2  and  C_4
REMARK    2  A    between atoms: C_7  and  C_8
REMARK    3  A    between atoms: C_8  and  C_9
REMARK    4  A    between atoms: C_9  and  C_10
REMARK    5  A    between atoms: C_14  and  C_15
REMARK                            x       y       z     vdW  Elec       q    Type
REMARK                         _______ _______ _______ _____ _____    ______ ____
ROOT
ATOM      1  C   UNL     1      48.600   7.848  12.832  0.00  0.00    +0.000 C 
ATOM      2  C   UNL     1      49.575   7.383  11.753  0.00  0.00    +0.000 C 
ATOM      3  C   UNL     1      49.270   8.841  11.869  0.00  0.00    +0.000 C 
ENDROOT
BRANCH   1   4
ATOM      4  C   UNL     1      47.107   7.689  12.562  0.00  0.00    +0.000 A 
ATOM      5  C   UNL     1      46.245   8.778  12.707  0.00  0.00    +0.000 A 
ATOM      6  C   UNL     1      45.007   8.756  12.079  0.00  0.00    +0.000 A 
ATOM      7  C   UNL     1      44.636   7.629  11.355  0.00  0.00    +0.000 A 
ATOM      8  C   UNL     1      45.489   6.532  11.329  0.00  0.00    +0.000 A 
ATOM      9  N   UNL     1      46.702   6.557  11.934  0.00  0.00    +0.000 NA
BRANCH   8  10
ATOM     10  C   UNL     1      45.179   5.287  10.601  0.00  0.00    +0.000 A 
ATOM     11  C   UNL     1      44.431   4.253  11.189  0.00  0.00    +0.000 A 
ATOM     12  C   UNL     1      44.154   3.074  10.481  0.00  0.00    +0.000 A 
ATOM     13  C   UNL     1      44.616   2.930   9.182  0.00  0.00    +0.000 A 
ATOM     14  F   UNL     1      44.357   1.800   8.511  0.00  0.00    +0.000 F 
ATOM     15  C   UNL     1      45.340   3.941   8.567  0.00  0.00    +0.000 A 
ATOM     16  C   UNL     1      45.616   5.114   9.272  0.00  0.00    +0.000 A 
ENDBRANCH   8  10
ENDBRANCH   1   4
BRANCH   1  17
ATOM     17  C   UNL     1      49.069   7.942  14.269  0.00  0.00    +0.000 C 
BRANCH  17  21
ATOM     18  C   UNL     1      48.057   4.602  16.846  0.00  0.00    +0.000 A 
ATOM     19  C   UNL     1      48.965   5.560  17.315  0.00  0.00    +0.000 A 
ATOM     20  C   UNL     1      49.328   6.654  16.511  0.00  0.00    +0.000 A 
ATOM     21  C   UNL     1      48.800   6.797  15.224  0.00  0.00    +0.000 A 
ATOM     22  C   UNL     1      47.904   5.808  14.762  0.00  0.00    +0.000 A 
ATOM     23  C   UNL     1      47.541   4.720  15.557  0.00  0.00    +0.000 A 
BRANCH  18  25
ATOM     24  N   UNL     1      48.369   3.124  18.752  0.00  0.00    +0.000 N 
ATOM     25  C   UNL     1      47.597   3.455  17.671  0.00  0.00    +0.000 C 
ATOM     26  O   UNL     1      46.548   2.867  17.442  0.00  0.00    +0.000 OA
ATOM     27  H   UNL     1      47.963   2.455  19.394  0.00  0.00    +0.000 HD
ATOM     28  H   UNL     1      49.072   3.752  19.114  0.00  0.00    +0.000 HD
ENDBRANCH  18  25
ENDBRANCH  17  21
ENDBRANCH   1  17
TORSDOF 5
ENDMDL
MODEL 9
REMARK VINA RESULT:    -6.868      4.919      8.862
REMARK INTER + INTRA:          -9.851
REMARK INTER:                  -8.963
REMARK INTRA:                  -0.889
REMARK UNBOUND:                -0.976
REMARK  Name = 
REMARK  5 active torsions:
REMARK  status: ('A' for Active; 'I' for Inactive)
REMARK    1  A    between atoms: C_2  and  C_4
REMARK    2  A    between atoms: C_7  and  C_8
REMARK    3  A    between atoms: C_8  and  C_9
REMARK    4  A    between atoms: C_9  and  C_10
REMARK    5  A    between atoms: C_14  and  C_15
REMARK                            x       y       z     vdW  Elec       q    Type
REMARK                         _______ _______ _______ _____ _____    ______ ____
ROOT
ATOM      1  C   UNL     1      48.402   3.502  17.113  0.00  0.00    +0.000 C 
ATOM      2  C   UNL     1      48.120   3.636  18.608  0.00  0.00    +0.000 C 
ATOM      3  C   UNL     1      47.131   2.916  17.749  0.00  0.00    +0.000 C 
ENDROOT
BRANCH   1   4
ATOM      4  C   UNL     1      48.108   4.704  16.220  0.00  0.00    +0.000 A 
ATOM      5  C   UNL     1      48.872   5.867  16.333  0.00  0.00    +0.000 A 
ATOM      6  C   UNL     1      48.893   6.773  15.280  0.00  0.00    +0.000 A 
ATOM      7  C   UNL     1      48.118   6.521  14.154  0.00  0.00    +0.000 A 
ATOM      8  C   UNL     1      47.297   5.399  14.138  0.00  0.00    +0.000 A 
ATOM      9  N   UNL     1      47.283   4.510  15.161  0.00  0.00    +0.000 NA
BRANCH   8  10
ATOM     10  C   UNL     1      46.429   5.053  12.997  0.00  0.00    +0.000 A 
ATOM     11  C   UNL     1      46.199   5.952  11.942  0.00  0.00    +0.000 A 
ATOM     12  C   UNL     1      45.364   5.605  10.870  0.00  0.00    +0.000 A 
ATOM     13  C   UNL     1      44.764   4.356  10.845  0.00  0.00    +0.000 A 
ATOM     14  F   UNL     1      43.961   4.030   9.825  0.00  0.00    +0.000 F 
ATOM     15  C   UNL     1      44.987   3.438  11.861  0.00  0.00    +0.000 A 
ATOM     16  C   UNL     1      45.818   3.784  12.928  0.00  0.00    +0.000 A 
ENDBRANCH   8  10
ENDBRANCH   1   4
BRANCH   1  17
ATOM     17  C   UNL     1      49.404   2.473  16.633  0.00  0.00    +0.000 C 
BRANCH  17  21
ATOM     18  C   UNL     1      53.354   2.106  18.389  0.00  0.00    +0.000 A 
ATOM     19  C   UNL     1      52.790   3.383  18.267  0.00  0.00    +0.000 A 
ATOM     20  C   UNL     1      51.517   3.550  17.696  0.00  0.00    +0.000 A 
ATOM     21  C   UNL     1      50.798   2.446  17.229  0.00  0.00    +0.000 A 
ATOM     22  C   UNL     1      51.393   1.171  17.341  0.00  0.00    +0.000 A 
ATOM     23  C   UNL     1      52.658   1.000  17.906  0.00  0.00    +0.000 A 
BRANCH  18  25
ATOM     24  N   UNL     1      54.669   1.641  20.382  0.00  0.00    +0.000 N 
ATOM     25  C   UNL     1      54.672   1.866  19.032  0.00  0.00    +0.000 C 
ATOM     26  O   UNL     1      55.711   1.807  18.386  0.00  0.00    +0.000 OA
ATOM     27  H   UNL     1      55.543   1.319  20.777  0.00  0.00    +0.000 HD
ATOM     28  H   UNL     1      53.820   1.416  20.880  0.00  0.00    +0.000 HD
ENDBRANCH  18  25
ENDBRANCH  17  21
ENDBRANCH   1  17
TORSDOF 5
ENDMDL
