MODEL 1
REMARK VINA RESULT:    -9.332      0.000      0.000
REMARK INTER + INTRA:         -14.794
REMARK INTER:                 -13.423
REMARK INTRA:                  -1.371
REMARK UNBOUND:                -1.371
REMARK  Name = 
REMARK  8 active torsions:
REMARK  status: ('A' for Active; 'I' for Inactive)
REMARK    1  A    between atoms: C_2  and  C_4
REMARK    2  A    between atoms: N_8  and  C_9
REMARK    3  A    between atoms: C_9  and  C_10
REMARK    4  A    between atoms: C_10  and  C_11
REMARK    5  A    between atoms: C_10  and  C_13
REMARK    6  A    between atoms: C_11  and  O_12
REMARK    7  A    between atoms: C_17  and  O_18
REMARK    8  A    between atoms: O_18  and  C_19
REMARK                            x       y       z     vdW  Elec       q    Type
REMARK                         _______ _______ _______ _____ _____    ______ ____
ROOT
ATOM      1  C   UNL     1      43.892   4.945  12.248  0.00  0.00    +0.000 C 
ENDROOT
BRANCH   1   2
ATOM      2  C   UNL     1      45.330   5.426  12.440  0.00  0.00    +0.000 A 
ATOM      3  C   UNL     1      45.949   6.285  11.520  0.00  0.00    +0.000 A 
ATOM      4  C   UNL     1      47.238   6.768  11.747  0.00  0.00    +0.000 A 
ATOM      5  C   UNL     1      47.939   6.398  12.895  0.00  0.00    +0.000 A 
ATOM      6  C   UNL     1      47.350   5.532  13.812  0.00  0.00    +0.000 A 
ATOM      7  C   UNL     1      46.052   5.056  13.588  0.00  0.00    +0.000 A 
BRANCH   6   8
ATOM      8  O   UNL     1      47.934   5.123  14.985  0.00  0.00    +0.000 OA
BRANCH   8   9
ATOM      9  C   UNL     1      47.258   4.149  15.808  0.00  0.00    +0.000 C 
ATOM     10  C   UNL     1      47.147   4.461  17.312  0.00  0.00    +0.000 C 
ATOM     11  C   UNL     1      47.668   3.050  17.626  0.00  0.00    +0.000 C 
ATOM     12  F   UNL     1      48.653   2.987  18.550  0.00  0.00    +0.000 F 
ATOM     13  F   UNL     1      46.722   2.161  18.008  0.00  0.00    +0.000 F 
ATOM     14  C   UNL     1      48.126   2.927  16.165  0.00  0.00    +0.000 C 
ENDBRANCH   8   9
ENDBRANCH   6   8
ENDBRANCH   1   2
BRANCH   1  15
ATOM     15  C   UNL     1      43.515   5.030  10.754  0.00  0.00    +0.000 C 
BRANCH  15  20
ATOM     16  C   UNL     1      46.619   2.648   7.521  0.00  0.00    +0.000 A 
ATOM     17  C   UNL     1      46.252   3.989   7.574  0.00  0.00    +0.000 A 
ATOM     18  C   UNL     1      45.231   4.380   8.440  0.00  0.00    +0.000 A 
ATOM     19  C   UNL     1      44.611   3.433   9.250  0.00  0.00    +0.000 A 
ATOM     20  N   UNL     1      43.558   3.729  10.099  0.00  0.00    +0.000 N 
ATOM     21  N   UNL     1      44.962   2.132   9.212  0.00  0.00    +0.000 NA
ATOM     22  C   UNL     1      45.938   1.761   8.339  0.00  0.00    +0.000 A 
ATOM     23  H   UNL     1      43.395   2.899  10.665  0.00  0.00    +0.000 HD
BRANCH  16  25
ATOM     24  N   UNL     1      47.950   2.896   5.504  0.00  0.00    +0.000 N 
ATOM     25  C   UNL     1      47.664   2.141   6.609  0.00  0.00    +0.000 C 
ATOM     26  O   UNL     1      48.270   1.103   6.844  0.00  0.00    +0.000 OA
ATOM     27  H   UNL     1      48.733   2.591   4.939  0.00  0.00    +0.000 HD
ATOM     28  H   UNL     1      47.652   3.856   5.407  0.00  0.00    +0.000 HD
ENDBRANCH  16  25
ENDBRANCH  15  20
ENDBRANCH   1  15
BRANCH   1  29
ATOM     29  C   UNL     1      43.650   3.550  12.858  0.00  0.00    +0.000 C 
BRANCH  29  30
ATOM     30  O   UNL     1      44.593   2.573  12.427  0.00  0.00    +0.000 OA
ATOM     31  H   UNL     1      45.468   2.825  12.770  0.00  0.00    +0.000 HD
ENDBRANCH  29  30
ENDBRANCH   1  29
TORSDOF 8
ENDMDL
MODEL 2
REMARK VINA RESULT:    -8.056      1.601      1.827
REMARK INTER + INTRA:         -12.960
REMARK INTER:                 -11.990
REMARK INTRA:                  -0.970
REMARK UNBOUND:                -1.371
REMARK  Name = 
REMARK  8 active torsions:
REMARK  status: ('A' for Active; 'I' for Inactive)
REMARK    1  A    between atoms: C_2  and  C_4
REMARK    2  A    between atoms: N_8  and  C_9
REMARK    3  A    between atoms: C_9  and  C_10
REMARK    4  A    between atoms: C_10  and  C_11
REMARK    5  A    between atoms: C_10  and  C_13
REMARK    6  A    between atoms: C_11  and  O_12
REMARK    7  A    between atoms: C_17  and  O_18
REMARK    8  A    between atoms: O_18  and  C_19
REMARK                            x       y       z     vdW  Elec       q    Type
REMARK                         _______ _______ _______ _____ _____    ______ ____
ROOT
ATOM      1  C   UNL     1      44.527   4.925  12.380  0.00  0.00    +0.000 C 
ENDROOT
BRANCH   1   2
ATOM      2  C   UNL     1      45.485   6.077  12.683  0.00  0.00    +0.000 A 
ATOM      3  C   UNL     1      45.141   7.410  12.419  0.00  0.00    +0.000 A 
ATOM      4  C   UNL     1      46.000   8.453  12.766  0.00  0.00    +0.000 A 
ATOM      5  C   UNL     1      47.224   8.186  13.379  0.00  0.00    +0.000 A 
ATOM      6  C   UNL     1      47.592   6.868  13.634  0.00  0.00    +0.000 A 
ATOM      7  C   UNL     1      46.725   5.823  13.294  0.00  0.00    +0.000 A 
BRANCH   6   8
ATOM      8  O   UNL     1      48.757   6.490  14.255  0.00  0.00    +0.000 OA
BRANCH   8   9
ATOM      9  C   UNL     1      48.855   6.591  15.691  0.00  0.00    +0.000 C 
ATOM     10  C   UNL     1      50.264   6.482  16.305  0.00  0.00    +0.000 C 
ATOM     11  C   UNL     1      49.731   5.445  17.305  0.00  0.00    +0.000 C 
ATOM     12  F   UNL     1      50.480   4.329  17.441  0.00  0.00    +0.000 F 
ATOM     13  F   UNL     1      49.508   5.915  18.555  0.00  0.00    +0.000 F 
ATOM     14  C   UNL     1      48.475   5.294  16.433  0.00  0.00    +0.000 C 
ENDBRANCH   8   9
ENDBRANCH   6   8
ENDBRANCH   1   2
BRANCH   1  15
ATOM     15  C   UNL     1      43.901   5.128  10.984  0.00  0.00    +0.000 C 
BRANCH  15  20
ATOM     16  C   UNL     1      46.645   2.738   7.446  0.00  0.00    +0.000 A 
ATOM     17  C   UNL     1      46.402   4.098   7.612  0.00  0.00    +0.000 A 
ATOM     18  C   UNL     1      45.456   4.509   8.551  0.00  0.00    +0.000 A 
ATOM     19  C   UNL     1      44.787   3.561   9.320  0.00  0.00    +0.000 A 
ATOM     20  N   UNL     1      43.801   3.881  10.237  0.00  0.00    +0.000 N 
ATOM     21  N   UNL     1      45.019   2.241   9.172  0.00  0.00    +0.000 NA
ATOM     22  C   UNL     1      45.921   1.854   8.230  0.00  0.00    +0.000 A 
ATOM     23  H   UNL     1      43.588   3.028  10.749  0.00  0.00    +0.000 HD
BRANCH  16  25
ATOM     24  N   UNL     1      47.876   3.003   5.368  0.00  0.00    +0.000 N 
ATOM     25  C   UNL     1      47.602   2.213   6.452  0.00  0.00    +0.000 C 
ATOM     26  O   UNL     1      48.152   1.128   6.603  0.00  0.00    +0.000 OA
ATOM     27  H   UNL     1      48.604   2.679   4.745  0.00  0.00    +0.000 HD
ATOM     28  H   UNL     1      47.636   3.984   5.333  0.00  0.00    +0.000 HD
ENDBRANCH  16  25
ENDBRANCH  15  20
ENDBRANCH   1  15
BRANCH   1  29
ATOM     29  C   UNL     1      45.192   3.544  12.553  0.00  0.00    +0.000 C 
BRANCH  29  30
ATOM     30  O   UNL     1      44.257   2.473  12.639  0.00  0.00    +0.000 OA
ATOM     31  H   UNL     1      43.623   2.565  11.906  0.00  0.00    +0.000 HD
ENDBRANCH  29  30
ENDBRANCH   1  29
TORSDOF 8
ENDMDL
MODEL 3
REMARK VINA RESULT:    -7.898      3.514      4.643
REMARK INTER + INTRA:         -12.732
REMARK INTER:                 -12.236
REMARK INTRA:                  -0.497
REMARK UNBOUND:                -1.371
REMARK  Name = 
REMARK  8 active torsions:
REMARK  status: ('A' for Active; 'I' for Inactive)
REMARK    1  A    between atoms: C_2  and  C_4
REMARK    2  A    between atoms: N_8  and  C_9
REMARK    3  A    between atoms: C_9  and  C_10
REMARK    4  A    between atoms: C_10  and  C_11
REMARK    5  A    between atoms: C_10  and  C_13
REMARK    6  A    between atoms: C_11  and  O_12
REMARK    7  A    between atoms: C_17  and  O_18
REMARK    8  A    between atoms: O_18  and  C_19
REMARK                            x       y       z     vdW  Elec       q    Type
REMARK                         _______ _______ _______ _____ _____    ______ ____
ROOT
ATOM      1  C   UNL     1      43.569   4.667  12.207  0.00  0.00    +0.000 C 
ENDROOT
BRANCH   1   2
ATOM      2  C   UNL     1      44.870   5.287  12.718  0.00  0.00    +0.000 A 
ATOM      3  C   UNL     1      45.904   4.500  13.244  0.00  0.00    +0.000 A 
ATOM      4  C   UNL     1      47.111   5.077  13.642  0.00  0.00    +0.000 A 
ATOM      5  C   UNL     1      47.307   6.453  13.529  0.00  0.00    +0.000 A 
ATOM      6  C   UNL     1      46.285   7.255  13.026  0.00  0.00    +0.000 A 
ATOM      7  C   UNL     1      45.079   6.674  12.618  0.00  0.00    +0.000 A 
BRANCH   6   8
ATOM      8  O   UNL     1      46.377   8.613  12.846  0.00  0.00    +0.000 OA
BRANCH   8   9
ATOM      9  C   UNL     1      47.678   9.238  12.845  0.00  0.00    +0.000 C 
ATOM     10  C   UNL     1      47.733  10.737  12.493  0.00  0.00    +0.000 C 
ATOM     11  C   UNL     1      48.858  10.443  11.489  0.00  0.00    +0.000 C 
ATOM     12  F   UNL     1      48.708  11.004  10.268  0.00  0.00    +0.000 F 
ATOM     13  F   UNL     1      50.103  10.764  11.911  0.00  0.00    +0.000 F 
ATOM     14  C   UNL     1      48.506   8.951  11.577  0.00  0.00    +0.000 C 
ENDBRANCH   8   9
ENDBRANCH   6   8
ENDBRANCH   1   2
BRANCH   1  15
ATOM     15  C   UNL     1      43.416   4.961  10.699  0.00  0.00    +0.000 C 
BRANCH  15  20
ATOM     16  C   UNL     1      46.555   2.565   7.510  0.00  0.00    +0.000 A 
ATOM     17  C   UNL     1      45.786   2.053   8.551  0.00  0.00    +0.000 A 
ATOM     18  C   UNL     1      45.142   2.936   9.418  0.00  0.00    +0.000 A 
ATOM     19  C   UNL     1      45.258   4.308   9.219  0.00  0.00    +0.000 A 
ATOM     20  N   UNL     1      44.693   5.251  10.060  0.00  0.00    +0.000 N 
ATOM     21  N   UNL     1      45.995   4.816   8.210  0.00  0.00    +0.000 NA
ATOM     22  C   UNL     1      46.643   3.943   7.392  0.00  0.00    +0.000 A 
ATOM     23  H   UNL     1      44.811   6.156   9.609  0.00  0.00    +0.000 HD
BRANCH  16  25
ATOM     24  N   UNL     1      48.239   2.309   5.779  0.00  0.00    +0.000 N 
ATOM     25  C   UNL     1      47.298   1.705   6.568  0.00  0.00    +0.000 C 
ATOM     26  O   UNL     1      47.103   0.497   6.513  0.00  0.00    +0.000 OA
ATOM     27  H   UNL     1      48.810   1.698   5.208  0.00  0.00    +0.000 HD
ATOM     28  H   UNL     1      48.593   3.237   5.963  0.00  0.00    +0.000 HD
ENDBRANCH  16  25
ENDBRANCH  15  20
ENDBRANCH   1  15
BRANCH   1  29
ATOM     29  C   UNL     1      43.456   3.168  12.549  0.00  0.00    +0.000 C 
BRANCH  29  30
ATOM     30  O   UNL     1      42.762   2.412  11.560  0.00  0.00    +0.000 OA
ATOM     31  H   UNL     1      42.033   1.940  11.998  0.00  0.00    +0.000 HD
ENDBRANCH  29  30
ENDBRANCH   1  29
TORSDOF 8
ENDMDL
MODEL 4
REMARK VINA RESULT:    -7.778      4.621      8.114
REMARK INTER + INTRA:         -12.559
REMARK INTER:                 -11.457
REMARK INTRA:                  -1.102
REMARK UNBOUND:                -1.371
REMARK  Name = 
REMARK  8 active torsions:
REMARK  status: ('A' for Active; 'I' for Inactive)
REMARK    1  A    between atoms: C_2  and  C_4
REMARK    2  A    between atoms: N_8  and  C_9
REMARK    3  A    between atoms: C_9  and  C_10
REMARK    4  A    between atoms: C_10  and  C_11
REMARK    5  A    between atoms: C_10  and  C_13
REMARK    6  A    between atoms: C_11  and  O_12
REMARK    7  A    between atoms: C_17  and  O_18
REMARK    8  A    between atoms: O_18  and  C_19
REMARK                            x       y       z     vdW  Elec       q    Type
REMARK                         _______ _______ _______ _____ _____    ______ ____
ROOT
ATOM      1  C   UNL     1      45.319   6.431  12.393  0.00  0.00    +0.000 C 
ENDROOT
BRANCH   1   2
ATOM      2  C   UNL     1      44.752   5.070  11.990  0.00  0.00    +0.000 A 
ATOM      3  C   UNL     1      43.953   4.316  12.862  0.00  0.00    +0.000 A 
ATOM      4  C   UNL     1      43.388   3.108  12.451  0.00  0.00    +0.000 A 
ATOM      5  C   UNL     1      43.616   2.624  11.163  0.00  0.00    +0.000 A 
ATOM      6  C   UNL     1      44.422   3.347  10.289  0.00  0.00    +0.000 A 
ATOM      7  C   UNL     1      44.980   4.564  10.698  0.00  0.00    +0.000 A 
BRANCH   6   8
ATOM      8  O   UNL     1      44.692   2.980   8.993  0.00  0.00    +0.000 OA
BRANCH   8   9
ATOM      9  C   UNL     1      46.062   2.954   8.539  0.00  0.00    +0.000 C 
ATOM     10  C   UNL     1      46.386   3.740   7.254  0.00  0.00    +0.000 C 
ATOM     11  C   UNL     1      47.116   2.504   6.703  0.00  0.00    +0.000 C 
ATOM     12  F   UNL     1      46.802   2.163   5.433  0.00  0.00    +0.000 F 
ATOM     13  F   UNL     1      48.466   2.560   6.766  0.00  0.00    +0.000 F 
ATOM     14  C   UNL     1      46.448   1.659   7.798  0.00  0.00    +0.000 C 
ENDBRANCH   8   9
ENDBRANCH   6   8
ENDBRANCH   1   2
BRANCH   1  15
ATOM     15  C   UNL     1      46.847   6.321  12.573  0.00  0.00    +0.000 C 
BRANCH  15  20
ATOM     16  C   UNL     1      48.474   4.009  16.788  0.00  0.00    +0.000 A 
ATOM     17  C   UNL     1      47.500   3.611  15.877  0.00  0.00    +0.000 A 
ATOM     18  C   UNL     1      47.087   4.506  14.890  0.00  0.00    +0.000 A 
ATOM     19  C   UNL     1      47.666   5.770  14.817  0.00  0.00    +0.000 A 
ATOM     20  N   UNL     1      47.279   6.734  13.902  0.00  0.00    +0.000 N 
ATOM     21  N   UNL     1      48.614   6.165  15.691  0.00  0.00    +0.000 NA
ATOM     22  C   UNL     1      48.984   5.291  16.667  0.00  0.00    +0.000 A 
ATOM     23  H   UNL     1      47.950   7.495  13.976  0.00  0.00    +0.000 HD
BRANCH  16  25
ATOM     24  N   UNL     1      48.250   3.186  19.063  0.00  0.00    +0.000 N 
ATOM     25  C   UNL     1      48.945   3.139  17.885  0.00  0.00    +0.000 C 
ATOM     26  O   UNL     1      49.899   2.385  17.739  0.00  0.00    +0.000 OA
ATOM     27  H   UNL     1      48.519   2.518  19.774  0.00  0.00    +0.000 HD
ATOM     28  H   UNL     1      47.333   3.602  19.140  0.00  0.00    +0.000 HD
ENDBRANCH  16  25
ENDBRANCH  15  20
ENDBRANCH   1  15
BRANCH   1  29
ATOM     29  C   UNL     1      44.899   7.555  11.424  0.00  0.00    +0.000 C 
BRANCH  29  30
ATOM     30  O   UNL     1      43.490   7.643  11.236  0.00  0.00    +0.000 OA
ATOM     31  H   UNL     1      43.171   8.431  11.710  0.00  0.00    +0.000 HD
ENDBRANCH  29  30
ENDBRANCH   1  29
TORSDOF 8
ENDMDL
MODEL 5
REMARK VINA RESULT:    -7.705      4.523      8.452
REMARK INTER + INTRA:         -12.454
REMARK INTER:                 -11.648
REMARK INTRA:                  -0.806
REMARK UNBOUND:                -1.371
REMARK  Name = 
REMARK  8 active torsions:
REMARK  status: ('A' for Active; 'I' for Inactive)
REMARK    1  A    between atoms: C_2  and  C_4
REMARK    2  A    between atoms: N_8  and  C_9
REMARK    3  A    between atoms: C_9  and  C_10
REMARK    4  A    between atoms: C_10  and  C_11
REMARK    5  A    between atoms: C_10  and  C_13
REMARK    6  A    between atoms: C_11  and  O_12
REMARK    7  A    between atoms: C_17  and  O_18
REMARK    8  A    between atoms: O_18  and  C_19
REMARK                            x       y       z     vdW  Elec       q    Type
REMARK                         _______ _______ _______ _____ _____    ______ ____
ROOT
ATOM      1  C   UNL     1      45.588   6.483  13.035  0.00  0.00    +0.000 C 
ENDROOT
BRANCH   1   2
ATOM      2  C   UNL     1      44.973   5.559  11.984  0.00  0.00    +0.000 A 
ATOM      3  C   UNL     1      43.798   4.836  12.235  0.00  0.00    +0.000 A 
ATOM      4  C   UNL     1      43.213   4.052  11.239  0.00  0.00    +0.000 A 
ATOM      5  C   UNL     1      43.794   3.968   9.974  0.00  0.00    +0.000 A 
ATOM      6  C   UNL     1      44.971   4.663   9.710  0.00  0.00    +0.000 A 
ATOM      7  C   UNL     1      45.551   5.458  10.706  0.00  0.00    +0.000 A 
BRANCH   6   8
ATOM      8  O   UNL     1      45.614   4.675   8.497  0.00  0.00    +0.000 OA
BRANCH   8   9
ATOM      9  C   UNL     1      45.620   3.478   7.690  0.00  0.00    +0.000 C 
ATOM     10  C   UNL     1      46.248   2.217   8.315  0.00  0.00    +0.000 C 
ATOM     11  C   UNL     1      47.073   2.014   7.034  0.00  0.00    +0.000 C 
ATOM     12  F   UNL     1      48.387   1.762   7.224  0.00  0.00    +0.000 F 
ATOM     13  F   UNL     1      46.611   1.053   6.201  0.00  0.00    +0.000 F 
ATOM     14  C   UNL     1      46.730   3.453   6.621  0.00  0.00    +0.000 C 
ENDBRANCH   8   9
ENDBRANCH   6   8
ENDBRANCH   1   2
BRANCH   1  15
ATOM     15  C   UNL     1      47.052   6.067  13.294  0.00  0.00    +0.000 C 
BRANCH  15  20
ATOM     16  C   UNL     1      48.249   4.428  17.946  0.00  0.00    +0.000 A 
ATOM     17  C   UNL     1      48.789   5.478  17.208  0.00  0.00    +0.000 A 
ATOM     18  C   UNL     1      48.427   5.622  15.869  0.00  0.00    +0.000 A 
ATOM     19  C   UNL     1      47.522   4.734  15.297  0.00  0.00    +0.000 A 
ATOM     20  N   UNL     1      47.149   4.777  13.964  0.00  0.00    +0.000 N 
ATOM     21  N   UNL     1      46.987   3.717  16.003  0.00  0.00    +0.000 NA
ATOM     22  C   UNL     1      47.374   3.571  17.300  0.00  0.00    +0.000 A 
ATOM     23  H   UNL     1      46.383   4.116  13.852  0.00  0.00    +0.000 HD
BRANCH  16  25
ATOM     24  N   UNL     1      48.295   2.949  19.873  0.00  0.00    +0.000 N 
ATOM     25  C   UNL     1      48.602   4.180  19.358  0.00  0.00    +0.000 C 
ATOM     26  O   UNL     1      49.171   5.028  20.034  0.00  0.00    +0.000 OA
ATOM     27  H   UNL     1      48.628   2.755  20.809  0.00  0.00    +0.000 HD
ATOM     28  H   UNL     1      48.054   2.159  19.292  0.00  0.00    +0.000 HD
ENDBRANCH  16  25
ENDBRANCH  15  20
ENDBRANCH   1  15
BRANCH   1  29
ATOM     29  C   UNL     1      45.434   7.974  12.673  0.00  0.00    +0.000 C 
BRANCH  29  30
ATOM     30  O   UNL     1      46.034   8.851  13.621  0.00  0.00    +0.000 OA
ATOM     31  H   UNL     1      45.490   8.841  14.428  0.00  0.00    +0.000 HD
ENDBRANCH  29  30
ENDBRANCH   1  29
TORSDOF 8
ENDMDL
MODEL 6
REMARK VINA RESULT:    -7.639      3.590      4.706
REMARK INTER + INTRA:         -12.360
REMARK INTER:                 -11.250
REMARK INTRA:                  -1.110
REMARK UNBOUND:                -1.371
REMARK  Name = 
REMARK  8 active torsions:
REMARK  status: ('A' for Active; 'I' for Inactive)
REMARK    1  A    between atoms: C_2  and  C_4
REMARK    2  A    between atoms: N_8  and  C_9
REMARK    3  A    between atoms: C_9  and  C_10
REMARK    4  A    between atoms: C_10  and  C_11
REMARK    5  A    between atoms: C_10  and  C_13
REMARK    6  A    between atoms: C_11  and  O_12
REMARK    7  A    between atoms: C_17  and  O_18
REMARK    8  A    between atoms: O_18  and  C_19
REMARK                            x       y       z     vdW  Elec       q    Type
REMARK                         _______ _______ _______ _____ _____    ______ ____
ROOT
ATOM      1  C   UNL     1      44.247   5.900  12.152  0.00  0.00    +0.000 C 
ENDROOT
BRANCH   1   2
ATOM      2  C   UNL     1      45.697   6.105  12.591  0.00  0.00    +0.000 A 
ATOM      3  C   UNL     1      46.244   5.407  13.678  0.00  0.00    +0.000 A 
ATOM      4  C   UNL     1      47.589   5.555  14.020  0.00  0.00    +0.000 A 
ATOM      5  C   UNL     1      48.413   6.410  13.289  0.00  0.00    +0.000 A 
ATOM      6  C   UNL     1      47.886   7.126  12.218  0.00  0.00    +0.000 A 
ATOM      7  C   UNL     1      46.539   6.968  11.869  0.00  0.00    +0.000 A 
BRANCH   6   8
ATOM      8  O   UNL     1      48.609   7.972  11.414  0.00  0.00    +0.000 OA
BRANCH   8   9
ATOM      9  C   UNL     1      49.955   8.326  11.794  0.00  0.00    +0.000 C 
ATOM     10  C   UNL     1      50.502   9.666  11.264  0.00  0.00    +0.000 C 
ATOM     11  C   UNL     1      51.775   8.943  10.796  0.00  0.00    +0.000 C 
ATOM     12  F   UNL     1      52.172   9.224   9.536  0.00  0.00    +0.000 F 
ATOM     13  F   UNL     1      52.857   9.115  11.591  0.00  0.00    +0.000 F 
ATOM     14  C   UNL     1      51.043   7.604  10.975  0.00  0.00    +0.000 C 
ENDBRANCH   8   9
ENDBRANCH   6   8
ENDBRANCH   1   2
BRANCH   1  15
ATOM     15  C   UNL     1      44.167   5.918  10.612  0.00  0.00    +0.000 C 
BRANCH  15  20
ATOM     16  C   UNL     1      46.529   2.511   7.682  0.00  0.00    +0.000 A 
ATOM     17  C   UNL     1      46.549   3.902   7.619  0.00  0.00    +0.000 A 
ATOM     18  C   UNL     1      45.665   4.630   8.416  0.00  0.00    +0.000 A 
ATOM     19  C   UNL     1      44.796   3.961   9.273  0.00  0.00    +0.000 A 
ATOM     20  N   UNL     1      43.855   4.605  10.060  0.00  0.00    +0.000 N 
ATOM     21  N   UNL     1      44.772   2.615   9.347  0.00  0.00    +0.000 NA
ATOM     22  C   UNL     1      45.618   1.918   8.540  0.00  0.00    +0.000 A 
ATOM     23  H   UNL     1      43.461   3.902  10.681  0.00  0.00    +0.000 HD
BRANCH  16  25
ATOM     24  N   UNL     1      48.476   2.266   6.250  0.00  0.00    +0.000 N 
ATOM     25  C   UNL     1      47.404   1.662   6.849  0.00  0.00    +0.000 C 
ATOM     26  O   UNL     1      47.197   0.462   6.721  0.00  0.00    +0.000 OA
ATOM     27  H   UNL     1      49.123   1.659   5.762  0.00  0.00    +0.000 HD
ATOM     28  H   UNL     1      48.812   3.179   6.523  0.00  0.00    +0.000 HD
ENDBRANCH  16  25
ENDBRANCH  15  20
ENDBRANCH   1  15
BRANCH   1  29
ATOM     29  C   UNL     1      43.614   4.642  12.780  0.00  0.00    +0.000 C 
BRANCH  29  30
ATOM     30  O   UNL     1      42.528   4.932  13.656  0.00  0.00    +0.000 OA
ATOM     31  H   UNL     1      42.856   5.517  14.361  0.00  0.00    +0.000 HD
ENDBRANCH  29  30
ENDBRANCH   1  29
TORSDOF 8
ENDMDL
MODEL 7
REMARK VINA RESULT:    -7.565      4.810      8.325
REMARK INTER + INTRA:         -12.253
REMARK INTER:                 -11.224
REMARK INTRA:                  -1.029
REMARK UNBOUND:                -1.371
REMARK  Name = 
REMARK  8 active torsions:
REMARK  status: ('A' for Active; 'I' for Inactive)
REMARK    1  A    between atoms: C_2  and  C_4
REMARK    2  A    between atoms: N_8  and  C_9
REMARK    3  A    between atoms: C_9  and  C_10
REMARK    4  A    between atoms: C_10  and  C_11
REMARK    5  A    between atoms: C_10  and  C_13
REMARK    6  A    between atoms: C_11  and  O_12
REMARK    7  A    between atoms: C_17  and  O_18
REMARK    8  A    between atoms: O_18  and  C_19
REMARK                            x       y       z     vdW  Elec       q    Type
REMARK                         _______ _______ _______ _____ _____    ______ ____
ROOT
ATOM      1  C   UNL     1      46.189   5.580  13.901  0.00  0.00    +0.000 C 
ENDROOT
BRANCH   1   2
ATOM      2  C   UNL     1      45.179   5.118  12.851  0.00  0.00    +0.000 A 
ATOM      3  C   UNL     1      43.977   5.807  12.631  0.00  0.00    +0.000 A 
ATOM      4  C   UNL     1      43.099   5.410  11.621  0.00  0.00    +0.000 A 
ATOM      5  C   UNL     1      43.400   4.313  10.815  0.00  0.00    +0.000 A 
ATOM      6  C   UNL     1      44.579   3.604  11.029  0.00  0.00    +0.000 A 
ATOM      7  C   UNL     1      45.464   4.009  12.035  0.00  0.00    +0.000 A 
BRANCH   6   8
ATOM      8  O   UNL     1      44.988   2.528  10.281  0.00  0.00    +0.000 OA
BRANCH   8   9
ATOM      9  C   UNL     1      44.991   2.630   8.841  0.00  0.00    +0.000 C 
ATOM     10  C   UNL     1      46.029   1.780   8.083  0.00  0.00    +0.000 C 
ATOM     11  C   UNL     1      46.440   3.026   7.282  0.00  0.00    +0.000 C 
ATOM     12  F   UNL     1      47.770   3.246   7.193  0.00  0.00    +0.000 F 
ATOM     13  F   UNL     1      45.953   3.085   6.021  0.00  0.00    +0.000 F 
ATOM     14  C   UNL     1      45.696   3.893   8.309  0.00  0.00    +0.000 C 
ENDBRANCH   8   9
ENDBRANCH   6   8
ENDBRANCH   1   2
BRANCH   1  15
ATOM     15  C   UNL     1      46.717   4.358  14.682  0.00  0.00    +0.000 C 
BRANCH  15  20
ATOM     16  C   UNL     1      50.635   2.516  17.332  0.00  0.00    +0.000 A 
ATOM     17  C   UNL     1      49.605   1.840  16.684  0.00  0.00    +0.000 A 
ATOM     18  C   UNL     1      48.528   2.568  16.177  0.00  0.00    +0.000 A 
ATOM     19  C   UNL     1      48.508   3.953  16.307  0.00  0.00    +0.000 A 
ATOM     20  N   UNL     1      47.455   4.744  15.877  0.00  0.00    +0.000 N 
ATOM     21  N   UNL     1      49.502   4.620  16.928  0.00  0.00    +0.000 NA
ATOM     22  C   UNL     1      50.530   3.893  17.444  0.00  0.00    +0.000 A 
ATOM     23  H   UNL     1      47.760   5.711  15.965  0.00  0.00    +0.000 HD
BRANCH  16  25
ATOM     24  N   UNL     1      51.720   0.461  18.038  0.00  0.00    +0.000 N 
ATOM     25  C   UNL     1      51.794   1.823  17.928  0.00  0.00    +0.000 C 
ATOM     26  O   UNL     1      52.793   2.436  18.284  0.00  0.00    +0.000 OA
ATOM     27  H   UNL     1      52.556  -0.013  18.356  0.00  0.00    +0.000 HD
ATOM     28  H   UNL     1      51.033  -0.091  17.543  0.00  0.00    +0.000 HD
ENDBRANCH  16  25
ENDBRANCH  15  20
ENDBRANCH   1  15
BRANCH   1  29
ATOM     29  C   UNL     1      47.312   6.447  13.296  0.00  0.00    +0.000 C 
BRANCH  29  30
ATOM     30  O   UNL     1      48.607   5.866  13.424  0.00  0.00    +0.000 OA
ATOM     31  H   UNL     1      48.834   5.839  14.371  0.00  0.00    +0.000 HD
ENDBRANCH  29  30
ENDBRANCH   1  29
TORSDOF 8
ENDMDL
MODEL 8
REMARK VINA RESULT:    -7.554      3.512      4.059
REMARK INTER + INTRA:         -12.238
REMARK INTER:                 -11.436
REMARK INTRA:                  -0.802
REMARK UNBOUND:                -1.371
REMARK  Name = 
REMARK  8 active torsions:
REMARK  status: ('A' for Active; 'I' for Inactive)
REMARK    1  A    between atoms: C_2  and  C_4
REMARK    2  A    between atoms: N_8  and  C_9
REMARK    3  A    between atoms: C_9  and  C_10
REMARK    4  A    between atoms: C_10  and  C_11
REMARK    5  A    between atoms: C_10  and  C_13
REMARK    6  A    between atoms: C_11  and  O_12
REMARK    7  A    between atoms: C_17  and  O_18
REMARK    8  A    between atoms: O_18  and  C_19
REMARK                            x       y       z     vdW  Elec       q    Type
REMARK                         _______ _______ _______ _____ _____    ______ ____
ROOT
ATOM      1  C   UNL     1      43.235   5.578  11.972  0.00  0.00    +0.000 C 
ENDROOT
BRANCH   1   2
ATOM      2  C   UNL     1      44.203   6.759  12.049  0.00  0.00    +0.000 A 
ATOM      3  C   UNL     1      43.883   8.011  11.504  0.00  0.00    +0.000 A 
ATOM      4  C   UNL     1      44.750   9.095  11.645  0.00  0.00    +0.000 A 
ATOM      5  C   UNL     1      45.957   8.950  12.327  0.00  0.00    +0.000 A 
ATOM      6  C   UNL     1      46.303   7.711  12.859  0.00  0.00    +0.000 A 
ATOM      7  C   UNL     1      45.427   6.626  12.727  0.00  0.00    +0.000 A 
BRANCH   6   8
ATOM      8  O   UNL     1      47.450   7.460  13.571  0.00  0.00    +0.000 OA
BRANCH   8   9
ATOM      9  C   UNL     1      48.652   7.091  12.864  0.00  0.00    +0.000 C 
ATOM     10  C   UNL     1      49.901   7.960  13.106  0.00  0.00    +0.000 C 
ATOM     11  C   UNL     1      50.103   8.064  11.587  0.00  0.00    +0.000 C 
ATOM     12  F   UNL     1      50.338   9.309  11.116  0.00  0.00    +0.000 F 
ATOM     13  F   UNL     1      51.076   7.270  11.082  0.00  0.00    +0.000 F 
ATOM     14  C   UNL     1      48.672   7.544  11.391  0.00  0.00    +0.000 C 
ENDBRANCH   8   9
ENDBRANCH   6   8
ENDBRANCH   1   2
BRANCH   1  15
ATOM     15  C   UNL     1      43.344   4.912  10.584  0.00  0.00    +0.000 C 
BRANCH  15  20
ATOM     16  C   UNL     1      46.504   2.368   7.533  0.00  0.00    +0.000 A 
ATOM     17  C   UNL     1      45.722   1.904   8.586  0.00  0.00    +0.000 A 
ATOM     18  C   UNL     1      45.073   2.826   9.408  0.00  0.00    +0.000 A 
ATOM     19  C   UNL     1      45.199   4.188   9.153  0.00  0.00    +0.000 A 
ATOM     20  N   UNL     1      44.630   5.169   9.948  0.00  0.00    +0.000 N 
ATOM     21  N   UNL     1      45.950   4.650   8.132  0.00  0.00    +0.000 NA
ATOM     22  C   UNL     1      46.601   3.739   7.359  0.00  0.00    +0.000 A 
ATOM     23  H   UNL     1      44.758   6.053   9.460  0.00  0.00    +0.000 HD
BRANCH  16  25
ATOM     24  N   UNL     1      48.226   2.026   5.854  0.00  0.00    +0.000 N 
ATOM     25  C   UNL     1      47.253   1.465   6.636  0.00  0.00    +0.000 C 
ATOM     26  O   UNL     1      47.034   0.260   6.613  0.00  0.00    +0.000 OA
ATOM     27  H   UNL     1      48.798   1.387   5.316  0.00  0.00    +0.000 HD
ATOM     28  H   UNL     1      48.594   2.952   6.019  0.00  0.00    +0.000 HD
ENDBRANCH  16  25
ENDBRANCH  15  20
ENDBRANCH   1  15
BRANCH   1  29
ATOM     29  C   UNL     1      43.420   4.587  13.139  0.00  0.00    +0.000 C 
BRANCH  29  30
ATOM     30  O   UNL     1      44.073   3.380  12.758  0.00  0.00    +0.000 OA
ATOM     31  H   UNL     1      44.820   3.236  13.366  0.00  0.00    +0.000 HD
ENDBRANCH  29  30
ENDBRANCH   1  29
TORSDOF 8
ENDMDL
MODEL 9
REMARK VINA RESULT:    -7.155      2.753      3.423
REMARK INTER + INTRA:         -11.664
REMARK INTER:                 -10.570
REMARK INTRA:                  -1.094
REMARK UNBOUND:                -1.371
REMARK  Name = 
REMARK  8 active torsions:
REMARK  status: ('A' for Active; 'I' for Inactive)
REMARK    1  A    between atoms: C_2  and  C_4
REMARK    2  A    between atoms: N_8  and  C_9
REMARK    3  A    between atoms: C_9  and  C_10
REMARK    4  A    between atoms: C_10  and  C_11
REMARK    5  A    between atoms: C_10  and  C_13
REMARK    6  A    between atoms: C_11  and  O_12
REMARK    7  A    between atoms: C_17  and  O_18
REMARK    8  A    between atoms: O_18  and  C_19
REMARK                            x       y       z     vdW  Elec       q    Type
REMARK                         _______ _______ _______ _____ _____    ______ ____
ROOT
ATOM      1  C   UNL     1      44.127   6.284  11.857  0.00  0.00    +0.000 C 
ENDROOT
BRANCH   1   2
ATOM      2  C   UNL     1      45.354   5.729  12.582  0.00  0.00    +0.000 A 
ATOM      3  C   UNL     1      45.296   4.543  13.327  0.00  0.00    +0.000 A 
ATOM      4  C   UNL     1      46.442   4.016  13.924  0.00  0.00    +0.000 A 
ATOM      5  C   UNL     1      47.669   4.667  13.794  0.00  0.00    +0.000 A 
ATOM      6  C   UNL     1      47.744   5.856  13.074  0.00  0.00    +0.000 A 
ATOM      7  C   UNL     1      46.596   6.378  12.467  0.00  0.00    +0.000 A 
BRANCH   6   8
ATOM      8  O   UNL     1      48.900   6.565  12.860  0.00  0.00    +0.000 OA
BRANCH   8   9
ATOM      9  C   UNL     1      49.280   7.594  13.798  0.00  0.00    +0.000 C 
ATOM     10  C   UNL     1      50.723   8.126  13.706  0.00  0.00    +0.000 C 
ATOM     11  C   UNL     1      50.875   7.931  15.222  0.00  0.00    +0.000 C 
ATOM     12  F   UNL     1      52.006   7.304  15.617  0.00  0.00    +0.000 F 
ATOM     13  F   UNL     1      50.783   9.063  15.958  0.00  0.00    +0.000 F 
ATOM     14  C   UNL     1      49.610   7.061  15.207  0.00  0.00    +0.000 C 
ENDBRANCH   8   9
ENDBRANCH   6   8
ENDBRANCH   1   2
BRANCH   1  15
ATOM     15  C   UNL     1      44.280   6.060  10.338  0.00  0.00    +0.000 C 
BRANCH  15  20
ATOM     16  C   UNL     1      46.279   2.037   7.975  0.00  0.00    +0.000 A 
ATOM     17  C   UNL     1      46.493   3.394   7.752  0.00  0.00    +0.000 A 
ATOM     18  C   UNL     1      45.683   4.324   8.403  0.00  0.00    +0.000 A 
ATOM     19  C   UNL     1      44.693   3.887   9.278  0.00  0.00    +0.000 A 
ATOM     20  N   UNL     1      43.816   4.742   9.925  0.00  0.00    +0.000 N 
ATOM     21  N   UNL     1      44.480   2.576   9.506  0.00  0.00    +0.000 NA
ATOM     22  C   UNL     1      45.257   1.679   8.839  0.00  0.00    +0.000 A 
ATOM     23  H   UNL     1      43.301   4.179  10.598  0.00  0.00    +0.000 HD
BRANCH  16  25
ATOM     24  N   UNL     1      46.771  -0.315   7.618  0.00  0.00    +0.000 N 
ATOM     25  C   UNL     1      47.065   0.983   7.302  0.00  0.00    +0.000 C 
ATOM     26  O   UNL     1      47.924   1.257   6.473  0.00  0.00    +0.000 OA
ATOM     27  H   UNL     1      47.246  -1.030   7.082  0.00  0.00    +0.000 HD
ATOM     28  H   UNL     1      45.924  -0.582   8.100  0.00  0.00    +0.000 HD
ENDBRANCH  16  25
ENDBRANCH  15  20
ENDBRANCH   1  15
BRANCH   1  29
ATOM     29  C   UNL     1      42.806   5.727  12.424  0.00  0.00    +0.000 C 
BRANCH  29  30
ATOM     30  O   UNL     1      41.647   6.304  11.830  0.00  0.00    +0.000 OA
ATOM     31  H   UNL     1      41.074   6.634  12.545  0.00  0.00    +0.000 HD
ENDBRANCH  29  30
ENDBRANCH   1  29
TORSDOF 8
ENDMDL
