MODEL 1
REMARK VINA RESULT:    -9.180      0.000      0.000
REMARK INTER + INTRA:         -12.828
REMARK INTER:                 -11.864
REMARK INTRA:                  -0.964
REMARK UNBOUND:                -0.964
REMARK  Name = 
REMARK  5 active torsions:
REMARK  status: ('A' for Active; 'I' for Inactive)
REMARK    1  A    between atoms: C_2  and  C_4
REMARK    2  A    between atoms: N_8  and  C_9
REMARK    3  A    between atoms: C_9  and  C_10
REMARK    4  A    between atoms: C_10  and  C_11
REMARK    5  A    between atoms: C_15  and  C_16
REMARK                            x       y       z     vdW  Elec       q    Type
REMARK                         _______ _______ _______ _____ _____    ______ ____
ROOT
ATOM      1  C   UNL     1      43.383   4.474  11.215  0.00  0.00    +0.000 C 
ENDROOT
BRANCH   1   6
ATOM      2  C   UNL     1      46.458   2.520   7.705  0.00  0.00    +0.000 A 
ATOM      3  C   UNL     1      45.617   1.876   8.606  0.00  0.00    +0.000 A 
ATOM      4  C   UNL     1      44.713   2.633   9.349  0.00  0.00    +0.000 A 
ATOM      5  C   UNL     1      44.680   4.017   9.201  0.00  0.00    +0.000 A 
ATOM      6  N   UNL     1      43.756   4.821   9.852  0.00  0.00    +0.000 N 
ATOM      7  N   UNL     1      45.513   4.655   8.356  0.00  0.00    +0.000 NA
ATOM      8  C   UNL     1      46.383   3.901   7.631  0.00  0.00    +0.000 A 
ATOM      9  H   UNL     1      44.048   5.787   9.700  0.00  0.00    +0.000 HD
BRANCH   2  11
ATOM     10  N   UNL     1      48.550   2.460   6.477  0.00  0.00    +0.000 N 
ATOM     11  C   UNL     1      47.411   1.793   6.844  0.00  0.00    +0.000 C 
ATOM     12  O   UNL     1      47.218   0.634   6.506  0.00  0.00    +0.000 OA
ATOM     13  H   UNL     1      49.245   1.920   5.977  0.00  0.00    +0.000 HD
ATOM     14  H   UNL     1      48.860   3.304   6.935  0.00  0.00    +0.000 HD
ENDBRANCH   2  11
ENDBRANCH   1   6
BRANCH   1  15
ATOM     15  C   UNL     1      43.558   5.669  12.155  0.00  0.00    +0.000 C 
BRANCH  15  16
ATOM     16  C   UNL     1      44.981   5.734  12.660  0.00  0.00    +0.000 A 
ATOM     17  C   UNL     1      45.497   4.719  13.470  0.00  0.00    +0.000 A 
ATOM     18  C   UNL     1      46.824   4.764  13.883  0.00  0.00    +0.000 A 
ATOM     19  C   UNL     1      47.649   5.818  13.481  0.00  0.00    +0.000 A 
ATOM     20  C   UNL     1      47.177   6.844  12.643  0.00  0.00    +0.000 A 
ATOM     21  C   UNL     1      45.826   6.780  12.251  0.00  0.00    +0.000 A 
BRANCH  20  22
ATOM     22  C   UNL     1      48.068   7.935  12.177  0.00  0.00    +0.000 A 
ATOM     23  C   UNL     1      47.618   9.267  12.083  0.00  0.00    +0.000 A 
ATOM     24  C   UNL     1      48.456  10.295  11.636  0.00  0.00    +0.000 A 
ATOM     25  C   UNL     1      49.774  10.018  11.286  0.00  0.00    +0.000 A 
ATOM     26  C   UNL     1      50.240   8.712  11.372  0.00  0.00    +0.000 A 
ATOM     27 CL   UNL     1      51.872   8.360  10.949  0.00  0.00    +0.000 Cl
ATOM     28  C   UNL     1      49.400   7.681  11.800  0.00  0.00    +0.000 A 
ENDBRANCH  20  22
ENDBRANCH  15  16
ENDBRANCH   1  15
TORSDOF 5
ENDMDL
MODEL 2
REMARK VINA RESULT:    -9.025      2.305      3.993
REMARK INTER + INTRA:         -12.627
REMARK INTER:                 -11.840
REMARK INTRA:                  -0.787
REMARK UNBOUND:                -0.964
REMARK  Name = 
REMARK  5 active torsions:
REMARK  status: ('A' for Active; 'I' for Inactive)
REMARK    1  A    between atoms: C_2  and  C_4
REMARK    2  A    between atoms: N_8  and  C_9
REMARK    3  A    between atoms: C_9  and  C_10
REMARK    4  A    between atoms: C_10  and  C_11
REMARK    5  A    between atoms: C_15  and  C_16
REMARK                            x       y       z     vdW  Elec       q    Type
REMARK                         _______ _______ _______ _____ _____    ______ ____
ROOT
ATOM      1  C   UNL     1      43.414   4.492  11.225  0.00  0.00    +0.000 C 
ENDROOT
BRANCH   1   6
ATOM      2  C   UNL     1      46.468   2.516   7.709  0.00  0.00    +0.000 A 
ATOM      3  C   UNL     1      45.643   1.878   8.627  0.00  0.00    +0.000 A 
ATOM      4  C   UNL     1      44.740   2.637   9.370  0.00  0.00    +0.000 A 
ATOM      5  C   UNL     1      44.694   4.018   9.203  0.00  0.00    +0.000 A 
ATOM      6  N   UNL     1      43.769   4.823   9.852  0.00  0.00    +0.000 N 
ATOM      7  N   UNL     1      45.511   4.652   8.340  0.00  0.00    +0.000 NA
ATOM      8  C   UNL     1      46.381   3.896   7.616  0.00  0.00    +0.000 A 
ATOM      9  H   UNL     1      44.051   5.789   9.684  0.00  0.00    +0.000 HD
BRANCH   2  11
ATOM     10  N   UNL     1      48.487   2.493   6.362  0.00  0.00    +0.000 N 
ATOM     11  C   UNL     1      47.419   1.786   6.848  0.00  0.00    +0.000 C 
ATOM     12  O   UNL     1      47.286   0.594   6.610  0.00  0.00    +0.000 OA
ATOM     13  H   UNL     1      49.188   1.961   5.863  0.00  0.00    +0.000 HD
ATOM     14  H   UNL     1      48.765   3.388   6.737  0.00  0.00    +0.000 HD
ENDBRANCH   2  11
ENDBRANCH   1   6
BRANCH   1  15
ATOM     15  C   UNL     1      43.669   5.676  12.161  0.00  0.00    +0.000 C 
BRANCH  15  16
ATOM     16  C   UNL     1      45.145   5.803  12.455  0.00  0.00    +0.000 A 
ATOM     17  C   UNL     1      45.971   6.575  11.635  0.00  0.00    +0.000 A 
ATOM     18  C   UNL     1      47.318   6.728  11.948  0.00  0.00    +0.000 A 
ATOM     19  C   UNL     1      47.846   6.119  13.089  0.00  0.00    +0.000 A 
ATOM     20  C   UNL     1      47.043   5.357  13.957  0.00  0.00    +0.000 A 
ATOM     21  C   UNL     1      45.687   5.208  13.608  0.00  0.00    +0.000 A 
BRANCH  20  22
ATOM     22  C   UNL     1      47.595   4.753  15.194  0.00  0.00    +0.000 A 
ATOM     23  C   UNL     1      47.548   3.364  15.423  0.00  0.00    +0.000 A 
ATOM     24  C   UNL     1      48.063   2.795  16.594  0.00  0.00    +0.000 A 
ATOM     25  C   UNL     1      48.652   3.602  17.561  0.00  0.00    +0.000 A 
ATOM     26  C   UNL     1      48.710   4.976  17.357  0.00  0.00    +0.000 A 
ATOM     27 CL   UNL     1      49.445   5.984  18.544  0.00  0.00    +0.000 Cl
ATOM     28  C   UNL     1      48.181   5.548  16.197  0.00  0.00    +0.000 A 
ENDBRANCH  20  22
ENDBRANCH  15  16
ENDBRANCH   1  15
TORSDOF 5
ENDMDL
MODEL 3
REMARK VINA RESULT:    -8.629      2.196      2.601
REMARK INTER + INTRA:         -12.115
REMARK INTER:                 -11.203
REMARK INTRA:                  -0.912
REMARK UNBOUND:                -0.964
REMARK  Name = 
REMARK  5 active torsions:
REMARK  status: ('A' for Active; 'I' for Inactive)
REMARK    1  A    between atoms: C_2  and  C_4
REMARK    2  A    between atoms: N_8  and  C_9
REMARK    3  A    between atoms: C_9  and  C_10
REMARK    4  A    between atoms: C_10  and  C_11
REMARK    5  A    between atoms: C_15  and  C_16
REMARK                            x       y       z     vdW  Elec       q    Type
REMARK                         _______ _______ _______ _____ _____    ______ ____
ROOT
ATOM      1  C   UNL     1      43.443   3.278  11.653  0.00  0.00    +0.000 C 
ENDROOT
BRANCH   1   6
ATOM      2  C   UNL     1      46.448   2.680   7.627  0.00  0.00    +0.000 A 
ATOM      3  C   UNL     1      45.790   1.724   8.393  0.00  0.00    +0.000 A 
ATOM      4  C   UNL     1      44.855   2.141   9.339  0.00  0.00    +0.000 A 
ATOM      5  C   UNL     1      44.612   3.499   9.523  0.00  0.00    +0.000 A 
ATOM      6  N   UNL     1      43.642   3.978  10.392  0.00  0.00    +0.000 N 
ATOM      7  N   UNL     1      45.267   4.435   8.810  0.00  0.00    +0.000 NA
ATOM      8  C   UNL     1      46.170   4.013   7.884  0.00  0.00    +0.000 A 
ATOM      9  H   UNL     1      43.778   4.987  10.456  0.00  0.00    +0.000 HD
BRANCH   2  11
ATOM     10  N   UNL     1      47.334   3.021   5.393  0.00  0.00    +0.000 N 
ATOM     11  C   UNL     1      47.417   2.326   6.571  0.00  0.00    +0.000 C 
ATOM     12  O   UNL     1      48.283   1.481   6.749  0.00  0.00    +0.000 OA
ATOM     13  H   UNL     1      48.066   2.848   4.717  0.00  0.00    +0.000 HD
ATOM     14  H   UNL     1      46.814   3.882   5.303  0.00  0.00    +0.000 HD
ENDBRANCH   2  11
ENDBRANCH   1   6
BRANCH   1  15
ATOM     15  C   UNL     1      43.405   4.260  12.827  0.00  0.00    +0.000 C 
BRANCH  15  16
ATOM     16  C   UNL     1      44.715   5.004  12.931  0.00  0.00    +0.000 A 
ATOM     17  C   UNL     1      45.890   4.333  13.279  0.00  0.00    +0.000 A 
ATOM     18  C   UNL     1      47.100   5.019  13.318  0.00  0.00    +0.000 A 
ATOM     19  C   UNL     1      47.145   6.379  12.999  0.00  0.00    +0.000 A 
ATOM     20  C   UNL     1      45.991   7.085  12.615  0.00  0.00    +0.000 A 
ATOM     21  C   UNL     1      44.779   6.368  12.597  0.00  0.00    +0.000 A 
BRANCH  20  22
ATOM     22  C   UNL     1      46.050   8.516  12.228  0.00  0.00    +0.000 A 
ATOM     23  C   UNL     1      47.244   9.257  12.317  0.00  0.00    +0.000 A 
ATOM     24  C   UNL     1      47.298  10.609  11.958  0.00  0.00    +0.000 A 
ATOM     25  C   UNL     1      46.158  11.251  11.486  0.00  0.00    +0.000 A 
ATOM     26  C   UNL     1      44.968  10.540  11.389  0.00  0.00    +0.000 A 
ATOM     27 CL   UNL     1      43.553  11.323  10.797  0.00  0.00    +0.000 Cl
ATOM     28  C   UNL     1      44.908   9.195  11.763  0.00  0.00    +0.000 A 
ENDBRANCH  20  22
ENDBRANCH  15  16
ENDBRANCH   1  15
TORSDOF 5
ENDMDL
MODEL 4
REMARK VINA RESULT:    -8.101      4.617      7.857
REMARK INTER + INTRA:         -11.432
REMARK INTER:                 -10.779
REMARK INTRA:                  -0.654
REMARK UNBOUND:                -0.964
REMARK  Name = 
REMARK  5 active torsions:
REMARK  status: ('A' for Active; 'I' for Inactive)
REMARK    1  A    between atoms: C_2  and  C_4
REMARK    2  A    between atoms: N_8  and  C_9
REMARK    3  A    between atoms: C_9  and  C_10
REMARK    4  A    between atoms: C_10  and  C_11
REMARK    5  A    between atoms: C_15  and  C_16
REMARK                            x       y       z     vdW  Elec       q    Type
REMARK                         _______ _______ _______ _____ _____    ______ ____
ROOT
ATOM      1  C   UNL     1      47.101   6.554  12.789  0.00  0.00    +0.000 C 
ENDROOT
BRANCH   1   6
ATOM      2  C   UNL     1      48.571   4.334  17.091  0.00  0.00    +0.000 A 
ATOM      3  C   UNL     1      48.889   5.590  16.587  0.00  0.00    +0.000 A 
ATOM      4  C   UNL     1      48.205   6.064  15.469  0.00  0.00    +0.000 A 
ATOM      5  C   UNL     1      47.236   5.271  14.860  0.00  0.00    +0.000 A 
ATOM      6  N   UNL     1      46.466   5.712  13.793  0.00  0.00    +0.000 N 
ATOM      7  N   UNL     1      46.943   4.040  15.319  0.00  0.00    +0.000 NA
ATOM      8  C   UNL     1      47.613   3.594  16.417  0.00  0.00    +0.000 A 
ATOM      9  H   UNL     1      45.961   4.899  13.441  0.00  0.00    +0.000 HD
BRANCH   2  11
ATOM     10  N   UNL     1      48.385   3.217  19.237  0.00  0.00    +0.000 N 
ATOM     11  C   UNL     1      49.211   3.773  18.297  0.00  0.00    +0.000 C 
ATOM     12  O   UNL     1      50.425   3.766  18.436  0.00  0.00    +0.000 OA
ATOM     13  H   UNL     1      48.837   2.742  20.008  0.00  0.00    +0.000 HD
ATOM     14  H   UNL     1      47.423   2.978  19.046  0.00  0.00    +0.000 HD
ENDBRANCH   2  11
ENDBRANCH   1   6
BRANCH   1  15
ATOM     15  C   UNL     1      46.061   7.169  11.849  0.00  0.00    +0.000 C 
BRANCH  15  16
ATOM     16  C   UNL     1      45.272   6.082  11.157  0.00  0.00    +0.000 A 
ATOM     17  C   UNL     1      43.913   5.904  11.430  0.00  0.00    +0.000 A 
ATOM     18  C   UNL     1      43.185   4.936  10.746  0.00  0.00    +0.000 A 
ATOM     19  C   UNL     1      43.808   4.146   9.777  0.00  0.00    +0.000 A 
ATOM     20  C   UNL     1      45.167   4.311   9.451  0.00  0.00    +0.000 A 
ATOM     21  C   UNL     1      45.881   5.290  10.169  0.00  0.00    +0.000 A 
BRANCH  20  22
ATOM     22  C   UNL     1      45.813   3.506   8.387  0.00  0.00    +0.000 A 
ATOM     23  C   UNL     1      46.353   4.104   7.232  0.00  0.00    +0.000 A 
ATOM     24  C   UNL     1      46.957   3.343   6.224  0.00  0.00    +0.000 A 
ATOM     25  C   UNL     1      47.050   1.961   6.355  0.00  0.00    +0.000 A 
ATOM     26  C   UNL     1      46.526   1.348   7.487  0.00  0.00    +0.000 A 
ATOM     27 CL   UNL     1      46.643  -0.360   7.663  0.00  0.00    +0.000 Cl
ATOM     28  C   UNL     1      45.906   2.105   8.485  0.00  0.00    +0.000 A 
ENDBRANCH  20  22
ENDBRANCH  15  16
ENDBRANCH   1  15
TORSDOF 5
ENDMDL
MODEL 5
REMARK VINA RESULT:    -8.040      1.556      2.334
REMARK INTER + INTRA:         -11.354
REMARK INTER:                 -10.203
REMARK INTRA:                  -1.151
REMARK UNBOUND:                -0.964
REMARK  Name = 
REMARK  5 active torsions:
REMARK  status: ('A' for Active; 'I' for Inactive)
REMARK    1  A    between atoms: C_2  and  C_4
REMARK    2  A    between atoms: N_8  and  C_9
REMARK    3  A    between atoms: C_9  and  C_10
REMARK    4  A    between atoms: C_10  and  C_11
REMARK    5  A    between atoms: C_15  and  C_16
REMARK                            x       y       z     vdW  Elec       q    Type
REMARK                         _______ _______ _______ _____ _____    ______ ____
ROOT
ATOM      1  C   UNL     1      43.340   3.408  11.226  0.00  0.00    +0.000 C 
ENDROOT
BRANCH   1   6
ATOM      2  C   UNL     1      46.523   2.808   7.339  0.00  0.00    +0.000 A 
ATOM      3  C   UNL     1      46.028   3.975   7.908  0.00  0.00    +0.000 A 
ATOM      4  C   UNL     1      45.314   3.897   9.103  0.00  0.00    +0.000 A 
ATOM      5  C   UNL     1      45.084   2.657   9.694  0.00  0.00    +0.000 A 
ATOM      6  N   UNL     1      44.448   2.515  10.919  0.00  0.00    +0.000 N 
ATOM      7  N   UNL     1      45.530   1.516   9.134  0.00  0.00    +0.000 NA
ATOM      8  C   UNL     1      46.233   1.610   7.973  0.00  0.00    +0.000 A 
ATOM      9  H   UNL     1      44.267   1.518  11.041  0.00  0.00    +0.000 HD
BRANCH   2  11
ATOM     10  N   UNL     1      48.661   2.513   6.230  0.00  0.00    +0.000 N 
ATOM     11  C   UNL     1      47.328   2.803   6.102  0.00  0.00    +0.000 C 
ATOM     12  O   UNL     1      46.826   3.008   5.007  0.00  0.00    +0.000 OA
ATOM     13  H   UNL     1      49.182   2.407   5.369  0.00  0.00    +0.000 HD
ATOM     14  H   UNL     1      49.051   2.094   7.062  0.00  0.00    +0.000 HD
ENDBRANCH   2  11
ENDBRANCH   1   6
BRANCH   1  15
ATOM     15  C   UNL     1      43.616   4.210  12.499  0.00  0.00    +0.000 C 
BRANCH  15  16
ATOM     16  C   UNL     1      44.287   5.520  12.158  0.00  0.00    +0.000 A 
ATOM     17  C   UNL     1      43.574   6.543  11.527  0.00  0.00    +0.000 A 
ATOM     18  C   UNL     1      44.188   7.764  11.268  0.00  0.00    +0.000 A 
ATOM     19  C   UNL     1      45.516   7.975  11.647  0.00  0.00    +0.000 A 
ATOM     20  C   UNL     1      46.261   6.982  12.310  0.00  0.00    +0.000 A 
ATOM     21  C   UNL     1      45.618   5.752  12.547  0.00  0.00    +0.000 A 
BRANCH  20  22
ATOM     22  C   UNL     1      47.654   7.226  12.755  0.00  0.00    +0.000 A 
ATOM     23  C   UNL     1      48.031   7.101  14.107  0.00  0.00    +0.000 A 
ATOM     24  C   UNL     1      49.344   7.337  14.529  0.00  0.00    +0.000 A 
ATOM     25  C   UNL     1      50.321   7.691  13.603  0.00  0.00    +0.000 A 
ATOM     26  C   UNL     1      49.974   7.820  12.264  0.00  0.00    +0.000 A 
ATOM     27 CL   UNL     1      51.176   8.249  11.109  0.00  0.00    +0.000 Cl
ATOM     28  C   UNL     1      48.659   7.602  11.844  0.00  0.00    +0.000 A 
ENDBRANCH  20  22
ENDBRANCH  15  16
ENDBRANCH   1  15
TORSDOF 5
ENDMDL
MODEL 6
REMARK VINA RESULT:    -8.001      4.285      7.325
REMARK INTER + INTRA:         -11.303
REMARK INTER:                 -10.288
REMARK INTRA:                  -1.016
REMARK UNBOUND:                -0.964
REMARK  Name = 
REMARK  5 active torsions:
REMARK  status: ('A' for Active; 'I' for Inactive)
REMARK    1  A    between atoms: C_2  and  C_4
REMARK    2  A    between atoms: N_8  and  C_9
REMARK    3  A    between atoms: C_9  and  C_10
REMARK    4  A    between atoms: C_10  and  C_11
REMARK    5  A    between atoms: C_15  and  C_16
REMARK                            x       y       z     vdW  Elec       q    Type
REMARK                         _______ _______ _______ _____ _____    ______ ____
ROOT
ATOM      1  C   UNL     1      45.891   7.594  12.892  0.00  0.00    +0.000 C 
ENDROOT
BRANCH   1   6
ATOM      2  C   UNL     1      47.836   4.053  15.938  0.00  0.00    +0.000 A 
ATOM      3  C   UNL     1      46.898   3.930  14.918  0.00  0.00    +0.000 A 
ATOM      4  C   UNL     1      46.660   5.018  14.081  0.00  0.00    +0.000 A 
ATOM      5  C   UNL     1      47.339   6.215  14.290  0.00  0.00    +0.000 A 
ATOM      6  N   UNL     1      47.206   7.312  13.449  0.00  0.00    +0.000 N 
ATOM      7  N   UNL     1      48.225   6.358  15.294  0.00  0.00    +0.000 NA
ATOM      8  C   UNL     1      48.453   5.283  16.097  0.00  0.00    +0.000 A 
ATOM      9  H   UNL     1      47.674   8.093  13.909  0.00  0.00    +0.000 HD
BRANCH   2  11
ATOM     10  N   UNL     1      47.380   2.748  17.931  0.00  0.00    +0.000 N 
ATOM     11  C   UNL     1      48.185   2.938  16.840  0.00  0.00    +0.000 C 
ATOM     12  O   UNL     1      49.124   2.192  16.606  0.00  0.00    +0.000 OA
ATOM     13  H   UNL     1      47.562   1.920  18.484  0.00  0.00    +0.000 HD
ATOM     14  H   UNL     1      46.467   3.170  18.017  0.00  0.00    +0.000 HD
ENDBRANCH   2  11
ENDBRANCH   1   6
BRANCH   1  15
ATOM     15  C   UNL     1      45.908   7.496  11.365  0.00  0.00    +0.000 C 
BRANCH  15  16
ATOM     16  C   UNL     1      45.242   6.217  10.914  0.00  0.00    +0.000 A 
ATOM     17  C   UNL     1      43.985   5.855  11.408  0.00  0.00    +0.000 A 
ATOM     18  C   UNL     1      43.359   4.703  10.944  0.00  0.00    +0.000 A 
ATOM     19  C   UNL     1      43.979   3.909   9.976  0.00  0.00    +0.000 A 
ATOM     20  C   UNL     1      45.230   4.252   9.432  0.00  0.00    +0.000 A 
ATOM     21  C   UNL     1      45.847   5.416   9.930  0.00  0.00    +0.000 A 
BRANCH  20  22
ATOM     22  C   UNL     1      45.864   3.435   8.368  0.00  0.00    +0.000 A 
ATOM     23  C   UNL     1      46.403   4.023   7.207  0.00  0.00    +0.000 A 
ATOM     24  C   UNL     1      46.995   3.251   6.200  0.00  0.00    +0.000 A 
ATOM     25  C   UNL     1      47.076   1.869   6.338  0.00  0.00    +0.000 A 
ATOM     26  C   UNL     1      46.551   1.267   7.475  0.00  0.00    +0.000 A 
ATOM     27 CL   UNL     1      46.654  -0.442   7.659  0.00  0.00    +0.000 Cl
ATOM     28  C   UNL     1      45.944   2.034   8.473  0.00  0.00    +0.000 A 
ENDBRANCH  20  22
ENDBRANCH  15  16
ENDBRANCH   1  15
TORSDOF 5
ENDMDL
MODEL 7
REMARK VINA RESULT:    -7.504      3.982      6.989
REMARK INTER + INTRA:         -10.661
REMARK INTER:                  -9.505
REMARK INTRA:                  -1.156
REMARK UNBOUND:                -0.964
REMARK  Name = 
REMARK  5 active torsions:
REMARK  status: ('A' for Active; 'I' for Inactive)
REMARK    1  A    between atoms: C_2  and  C_4
REMARK    2  A    between atoms: N_8  and  C_9
REMARK    3  A    between atoms: C_9  and  C_10
REMARK    4  A    between atoms: C_10  and  C_11
REMARK    5  A    between atoms: C_15  and  C_16
REMARK                            x       y       z     vdW  Elec       q    Type
REMARK                         _______ _______ _______ _____ _____    ______ ____
ROOT
ATOM      1  C   UNL     1      46.768   4.114  13.838  0.00  0.00    +0.000 C 
ENDROOT
BRANCH   1   6
ATOM      2  C   UNL     1      49.272   8.205  12.227  0.00  0.00    +0.000 A 
ATOM      3  C   UNL     1      48.205   7.531  11.644  0.00  0.00    +0.000 A 
ATOM      4  C   UNL     1      47.549   6.540  12.373  0.00  0.00    +0.000 A 
ATOM      5  C   UNL     1      47.983   6.222  13.657  0.00  0.00    +0.000 A 
ATOM      6  N   UNL     1      47.330   5.302  14.465  0.00  0.00    +0.000 N 
ATOM      7  N   UNL     1      49.036   6.845  14.219  0.00  0.00    +0.000 NA
ATOM      8  C   UNL     1      49.660   7.816  13.499  0.00  0.00    +0.000 A 
ATOM      9  H   UNL     1      47.933   5.139  15.271  0.00  0.00    +0.000 HD
BRANCH   2  11
ATOM     10  N   UNL     1      49.253  10.388  11.167  0.00  0.00    +0.000 N 
ATOM     11  C   UNL     1      49.992   9.298  11.546  0.00  0.00    +0.000 C 
ATOM     12  O   UNL     1      51.200   9.256  11.362  0.00  0.00    +0.000 OA
ATOM     13  H   UNL     1      49.771  11.175  10.798  0.00  0.00    +0.000 HD
ATOM     14  H   UNL     1      48.326  10.568  11.523  0.00  0.00    +0.000 HD
ENDBRANCH   2  11
ENDBRANCH   1   6
BRANCH   1  15
ATOM     15  C   UNL     1      45.239   4.133  13.894  0.00  0.00    +0.000 C 
BRANCH  15  16
ATOM     16  C   UNL     1      44.665   4.330  12.511  0.00  0.00    +0.000 A 
ATOM     17  C   UNL     1      43.559   5.161  12.310  0.00  0.00    +0.000 A 
ATOM     18  C   UNL     1      43.075   5.378  11.024  0.00  0.00    +0.000 A 
ATOM     19  C   UNL     1      43.698   4.774   9.929  0.00  0.00    +0.000 A 
ATOM     20  C   UNL     1      44.830   3.954  10.084  0.00  0.00    +0.000 A 
ATOM     21  C   UNL     1      45.291   3.742  11.398  0.00  0.00    +0.000 A 
BRANCH  20  22
ATOM     22  C   UNL     1      45.520   3.355   8.916  0.00  0.00    +0.000 A 
ATOM     23  C   UNL     1      45.981   4.145   7.845  0.00  0.00    +0.000 A 
ATOM     24  C   UNL     1      46.626   3.579   6.739  0.00  0.00    +0.000 A 
ATOM     25  C   UNL     1      46.840   2.205   6.685  0.00  0.00    +0.000 A 
ATOM     26  C   UNL     1      46.395   1.405   7.731  0.00  0.00    +0.000 A 
ATOM     27 CL   UNL     1      46.664  -0.295   7.678  0.00  0.00    +0.000 Cl
ATOM     28  C   UNL     1      45.735   1.967   8.827  0.00  0.00    +0.000 A 
ENDBRANCH  20  22
ENDBRANCH  15  16
ENDBRANCH   1  15
TORSDOF 5
ENDMDL
MODEL 8
REMARK VINA RESULT:    -7.434      4.168      7.203
REMARK INTER + INTRA:         -10.571
REMARK INTER:                  -9.793
REMARK INTRA:                  -0.778
REMARK UNBOUND:                -0.964
REMARK  Name = 
REMARK  5 active torsions:
REMARK  status: ('A' for Active; 'I' for Inactive)
REMARK    1  A    between atoms: C_2  and  C_4
REMARK    2  A    between atoms: N_8  and  C_9
REMARK    3  A    between atoms: C_9  and  C_10
REMARK    4  A    between atoms: C_10  and  C_11
REMARK    5  A    between atoms: C_15  and  C_16
REMARK                            x       y       z     vdW  Elec       q    Type
REMARK                         _______ _______ _______ _____ _____    ______ ____
ROOT
ATOM      1  C   UNL     1      45.613   7.342  12.879  0.00  0.00    +0.000 C 
ENDROOT
BRANCH   1   6
ATOM      2  C   UNL     1      50.498   8.466  12.200  0.00  0.00    +0.000 A 
ATOM      3  C   UNL     1      49.690   7.569  11.511  0.00  0.00    +0.000 A 
ATOM      4  C   UNL     1      48.317   7.572  11.750  0.00  0.00    +0.000 A 
ATOM      5  C   UNL     1      47.779   8.448  12.688  0.00  0.00    +0.000 A 
ATOM      6  N   UNL     1      46.414   8.557  12.920  0.00  0.00    +0.000 N 
ATOM      7  N   UNL     1      48.556   9.299  13.386  0.00  0.00    +0.000 NA
ATOM      8  C   UNL     1      49.893   9.290  13.134  0.00  0.00    +0.000 A 
ATOM      9  H   UNL     1      46.303   9.139  13.750  0.00  0.00    +0.000 HD
BRANCH   2  11
ATOM     10  N   UNL     1      52.545   7.541  11.280  0.00  0.00    +0.000 N 
ATOM     11  C   UNL     1      51.954   8.563  11.974  0.00  0.00    +0.000 C 
ATOM     12  O   UNL     1      52.600   9.530  12.353  0.00  0.00    +0.000 OA
ATOM     13  H   UNL     1      53.520   7.667  11.038  0.00  0.00    +0.000 HD
ATOM     14  H   UNL     1      52.017   6.871  10.741  0.00  0.00    +0.000 HD
ENDBRANCH   2  11
ENDBRANCH   1   6
BRANCH   1  15
ATOM     15  C   UNL     1      44.754   7.292  11.613  0.00  0.00    +0.000 C 
BRANCH  15  16
ATOM     16  C   UNL     1      44.439   5.860  11.249  0.00  0.00    +0.000 A 
ATOM     17  C   UNL     1      43.384   5.183  11.867  0.00  0.00    +0.000 A 
ATOM     18  C   UNL     1      43.070   3.883  11.484  0.00  0.00    +0.000 A 
ATOM     19  C   UNL     1      43.803   3.254  10.474  0.00  0.00    +0.000 A 
ATOM     20  C   UNL     1      44.853   3.909   9.807  0.00  0.00    +0.000 A 
ATOM     21  C   UNL     1      45.157   5.219  10.225  0.00  0.00    +0.000 A 
BRANCH  20  22
ATOM     22  C   UNL     1      45.596   3.257   8.701  0.00  0.00    +0.000 A 
ATOM     23  C   UNL     1      46.144   4.002   7.638  0.00  0.00    +0.000 A 
ATOM     24  C   UNL     1      46.839   3.386   6.591  0.00  0.00    +0.000 A 
ATOM     25  C   UNL     1      47.018   2.007   6.589  0.00  0.00    +0.000 A 
ATOM     26  C   UNL     1      46.488   1.251   7.628  0.00  0.00    +0.000 A 
ATOM     27 CL   UNL     1      46.711  -0.457   7.640  0.00  0.00    +0.000 Cl
ATOM     28  C   UNL     1      45.778   1.862   8.665  0.00  0.00    +0.000 A 
ENDBRANCH  20  22
ENDBRANCH  15  16
ENDBRANCH   1  15
TORSDOF 5
ENDMDL
MODEL 9
REMARK VINA RESULT:    -7.315      4.596      7.632
REMARK INTER + INTRA:         -10.417
REMARK INTER:                  -9.498
REMARK INTRA:                  -0.919
REMARK UNBOUND:                -0.964
REMARK  Name = 
REMARK  5 active torsions:
REMARK  status: ('A' for Active; 'I' for Inactive)
REMARK    1  A    between atoms: C_2  and  C_4
REMARK    2  A    between atoms: N_8  and  C_9
REMARK    3  A    between atoms: C_9  and  C_10
REMARK    4  A    between atoms: C_10  and  C_11
REMARK    5  A    between atoms: C_15  and  C_16
REMARK                            x       y       z     vdW  Elec       q    Type
REMARK                         _______ _______ _______ _____ _____    ______ ____
ROOT
ATOM      1  C   UNL     1      49.141   8.504  13.681  0.00  0.00    +0.000 C 
ENDROOT
BRANCH   1   6
ATOM      2  C   UNL     1      48.116   4.600  16.731  0.00  0.00    +0.000 A 
ATOM      3  C   UNL     1      47.432   5.052  15.608  0.00  0.00    +0.000 A 
ATOM      4  C   UNL     1      48.016   6.034  14.809  0.00  0.00    +0.000 A 
ATOM      5  C   UNL     1      49.255   6.564  15.156  0.00  0.00    +0.000 A 
ATOM      6  N   UNL     1      49.926   7.487  14.366  0.00  0.00    +0.000 N 
ATOM      7  N   UNL     1      49.912   6.158  16.260  0.00  0.00    +0.000 NA
ATOM      8  C   UNL     1      49.333   5.193  17.025  0.00  0.00    +0.000 A 
ATOM      9  H   UNL     1      50.715   7.826  14.916  0.00  0.00    +0.000 HD
BRANCH   2  11
ATOM     10  N   UNL     1      48.349   3.200  18.700  0.00  0.00    +0.000 N 
ATOM     11  C   UNL     1      47.594   3.532  17.606  0.00  0.00    +0.000 C 
ATOM     12  O   UNL     1      46.518   2.992  17.391  0.00  0.00    +0.000 OA
ATOM     13  H   UNL     1      47.935   2.544  19.349  0.00  0.00    +0.000 HD
ATOM     14  H   UNL     1      49.095   3.786  19.045  0.00  0.00    +0.000 HD
ENDBRANCH   2  11
ENDBRANCH   1   6
BRANCH   1  15
ATOM     15  C   UNL     1      48.901   8.121  12.218  0.00  0.00    +0.000 C 
BRANCH  15  16
ATOM     16  C   UNL     1      47.436   7.836  11.985  0.00  0.00    +0.000 A 
ATOM     17  C   UNL     1      46.468   8.803  12.268  0.00  0.00    +0.000 A 
ATOM     18  C   UNL     1      45.128   8.548  11.997  0.00  0.00    +0.000 A 
ATOM     19  C   UNL     1      44.747   7.328  11.432  0.00  0.00    +0.000 A 
ATOM     20  C   UNL     1      45.692   6.340  11.104  0.00  0.00    +0.000 A 
ATOM     21  C   UNL     1      47.040   6.620  11.402  0.00  0.00    +0.000 A 
BRANCH  20  22
ATOM     22  C   UNL     1      45.291   5.066  10.458  0.00  0.00    +0.000 A 
ATOM     23  C   UNL     1      44.531   4.098  11.142  0.00  0.00    +0.000 A 
ATOM     24  C   UNL     1      44.157   2.893  10.534  0.00  0.00    +0.000 A 
ATOM     25  C   UNL     1      44.524   2.634   9.217  0.00  0.00    +0.000 A 
ATOM     26  C   UNL     1      45.274   3.575   8.522  0.00  0.00    +0.000 A 
ATOM     27 CL   UNL     1      45.725   3.268   6.889  0.00  0.00    +0.000 Cl
ATOM     28  C   UNL     1      45.662   4.770   9.133  0.00  0.00    +0.000 A 
ENDBRANCH  20  22
ENDBRANCH  15  16
ENDBRANCH   1  15
TORSDOF 5
ENDMDL
