MODEL 1
REMARK VINA RESULT:    -9.113      0.000      0.000
REMARK INTER + INTRA:         -13.103
REMARK INTER:                 -12.309
REMARK INTRA:                  -0.794
REMARK UNBOUND:                -0.794
REMARK  Name = 
REMARK  6 active torsions:
REMARK  status: ('A' for Active; 'I' for Inactive)
REMARK    1  A    between atoms: C_2  and  C_20
REMARK    2  A    between atoms: N_3  and  C_4
REMARK    3  A    between atoms: C_4  and  C_5
REMARK    4  A    between atoms: C_8  and  C_9
REMARK    5  A    between atoms: C_9  and  N_10
REMARK    6  A    between atoms: C_11  and  C_13
REMARK                            x       y       z     vdW  Elec       q    Type
REMARK                         _______ _______ _______ _____ _____    ______ ____
ROOT
ATOM      1  C   UNL     1      46.072   4.904  13.214  0.00  0.00    +0.000 C 
ATOM      2  C   UNL     1      46.034   3.761  12.181  0.00  0.00    +0.000 C 
ATOM      3  C   UNL     1      44.636   3.165  12.002  0.00  0.00    +0.000 C 
ATOM      4  C   UNL     1      43.569   4.229  11.696  0.00  0.00    +0.000 C 
ATOM      5  C   UNL     1      43.613   5.348  12.751  0.00  0.00    +0.000 C 
ATOM      6  C   UNL     1      45.009   5.959  12.880  0.00  0.00    +0.000 C 
ENDROOT
BRANCH   1   7
ATOM      7  C   UNL     1      45.903   4.392  14.652  0.00  0.00    +0.000 C 
BRANCH   7  10
ATOM      8  O   UNL     1      46.510   3.311  17.204  0.00  0.00    +0.000 OA
ATOM      9  C   UNL     1      47.321   4.041  16.652  0.00  0.00    +0.000 C 
ATOM     10  N   UNL     1      47.088   4.634  15.437  0.00  0.00    +0.000 N 
ATOM     11  H   UNL     1      47.827   5.156  14.983  0.00  0.00    +0.000 HD
BRANCH   9  12
ATOM     12  C   UNL     1      48.613   4.366  17.255  0.00  0.00    +0.000 A 
ATOM     13  C   UNL     1      48.816   5.588  17.874  0.00  0.00    +0.000 A 
ATOM     14  S   UNL     1      50.380   5.754  18.538  0.00  0.00    +0.000 S 
ATOM     15  C   UNL     1      50.819   4.184  18.045  0.00  0.00    +0.000 A 
ATOM     16  N   UNL     1      52.043   3.670  18.334  0.00  0.00    +0.000 NA
ATOM     17  C   UNL     1      52.222   2.454  17.922  0.00  0.00    +0.000 A 
ATOM     18  N   UNL     1      51.292   1.714  17.237  0.00  0.00    +0.000 N 
ATOM     19  C   UNL     1      50.075   2.216  16.864  0.00  0.00    +0.000 A 
ATOM     20  O   UNL     1      49.334   1.574  16.127  0.00  0.00    +0.000 OA
ATOM     21  C   UNL     1      49.801   3.555  17.351  0.00  0.00    +0.000 A 
ATOM     22  H   UNL     1      51.509   0.785  16.904  0.00  0.00    +0.000 HD
ENDBRANCH   9  12
ENDBRANCH   7  10
ENDBRANCH   1   7
BRANCH   4  23
ATOM     23  C   UNL     1      43.724   4.827  10.280  0.00  0.00    +0.000 C 
BRANCH  23  24
ATOM     24  N   UNL     1      44.317   3.905   9.341  0.00  0.00    +0.000 N 
ATOM     25  C   UNL     1      45.419   4.227   8.595  0.00  0.00    +0.000 C 
ATOM     26  O   UNL     1      45.972   5.327   8.641  0.00  0.00    +0.000 OA
ATOM     27  H   UNL     1      43.975   2.949   9.255  0.00  0.00    +0.000 HD
BRANCH  25  28
ATOM     28  C   UNL     1      45.877   3.141   7.624  0.00  0.00    +0.000 C 
ATOM     29  C   UNL     1      46.111   1.824   8.337  0.00  0.00    +0.000 C 
ATOM     30  C   UNL     1      46.938   1.054   7.329  0.00  0.00    +0.000 C 
ATOM     31  C   UNL     1      47.728   2.123   6.583  0.00  0.00    +0.000 C 
ATOM     32  N   UNL     1      47.214   3.422   7.040  0.00  0.00    +0.000 NA
ATOM     33  H   UNL     1      47.109   4.056   6.248  0.00  0.00    +0.000 HD
ENDBRANCH  25  28
ENDBRANCH  23  24
ENDBRANCH   4  23
TORSDOF 6
ENDMDL
MODEL 2
REMARK VINA RESULT:    -8.314      1.277      1.890
REMARK INTER + INTRA:         -12.024
REMARK INTER:                 -11.207
REMARK INTRA:                  -0.817
REMARK UNBOUND:                -0.794
REMARK  Name = 
REMARK  6 active torsions:
REMARK  status: ('A' for Active; 'I' for Inactive)
REMARK    1  A    between atoms: C_2  and  C_20
REMARK    2  A    between atoms: N_3  and  C_4
REMARK    3  A    between atoms: C_4  and  C_5
REMARK    4  A    between atoms: C_8  and  C_9
REMARK    5  A    between atoms: C_9  and  N_10
REMARK    6  A    between atoms: C_11  and  C_13
REMARK                            x       y       z     vdW  Elec       q    Type
REMARK                         _______ _______ _______ _____ _____    ______ ____
ROOT
ATOM      1  C   UNL     1      46.068   4.877  13.190  0.00  0.00    +0.000 C 
ATOM      2  C   UNL     1      45.976   3.748  12.143  0.00  0.00    +0.000 C 
ATOM      3  C   UNL     1      44.560   3.188  11.993  0.00  0.00    +0.000 C 
ATOM      4  C   UNL     1      43.512   4.281  11.726  0.00  0.00    +0.000 C 
ATOM      5  C   UNL     1      43.610   5.385  12.794  0.00  0.00    +0.000 C 
ATOM      6  C   UNL     1      45.023   5.960  12.896  0.00  0.00    +0.000 C 
ENDROOT
BRANCH   1   7
ATOM      7  C   UNL     1      45.922   4.350  14.625  0.00  0.00    +0.000 C 
BRANCH   7  10
ATOM      8  O   UNL     1      46.428   3.229  17.182  0.00  0.00    +0.000 OA
ATOM      9  C   UNL     1      47.368   3.533  16.462  0.00  0.00    +0.000 C 
ATOM     10  N   UNL     1      47.210   4.115  15.230  0.00  0.00    +0.000 N 
ATOM     11  H   UNL     1      48.016   4.265  14.637  0.00  0.00    +0.000 HD
BRANCH   9  12
ATOM     12  C   UNL     1      48.758   3.322  16.866  0.00  0.00    +0.000 A 
ATOM     13  C   UNL     1      49.311   2.053  16.858  0.00  0.00    +0.000 A 
ATOM     14  S   UNL     1      50.950   2.030  17.336  0.00  0.00    +0.000 S 
ATOM     15  C   UNL     1      50.975   3.722  17.537  0.00  0.00    +0.000 A 
ATOM     16  N   UNL     1      52.109   4.372  17.907  0.00  0.00    +0.000 NA
ATOM     17  C   UNL     1      51.983   5.660  17.989  0.00  0.00    +0.000 A 
ATOM     18  N   UNL     1      50.823   6.351  17.747  0.00  0.00    +0.000 N 
ATOM     19  C   UNL     1      49.642   5.731  17.441  0.00  0.00    +0.000 A 
ATOM     20  O   UNL     1      48.599   6.372  17.377  0.00  0.00    +0.000 OA
ATOM     21  C   UNL     1      49.742   4.292  17.279  0.00  0.00    +0.000 A 
ATOM     22  H   UNL     1      50.779   7.352  17.870  0.00  0.00    +0.000 HD
ENDBRANCH   9  12
ENDBRANCH   7  10
ENDBRANCH   1   7
BRANCH   4  23
ATOM     23  C   UNL     1      43.646   4.893  10.315  0.00  0.00    +0.000 C 
BRANCH  23  24
ATOM     24  N   UNL     1      44.260   3.994   9.367  0.00  0.00    +0.000 N 
ATOM     25  C   UNL     1      45.396   4.322   8.677  0.00  0.00    +0.000 C 
ATOM     26  O   UNL     1      45.965   5.410   8.783  0.00  0.00    +0.000 OA
ATOM     27  H   UNL     1      43.906   3.048   9.234  0.00  0.00    +0.000 HD
BRANCH  25  28
ATOM     28  C   UNL     1      45.873   3.263   7.685  0.00  0.00    +0.000 C 
ATOM     29  C   UNL     1      46.101   1.929   8.369  0.00  0.00    +0.000 C 
ATOM     30  C   UNL     1      46.948   1.188   7.355  0.00  0.00    +0.000 C 
ATOM     31  C   UNL     1      47.745   2.279   6.649  0.00  0.00    +0.000 C 
ATOM     32  N   UNL     1      47.219   3.564   7.130  0.00  0.00    +0.000 NA
ATOM     33  H   UNL     1      47.123   4.217   6.353  0.00  0.00    +0.000 HD
ENDBRANCH  25  28
ENDBRANCH  23  24
ENDBRANCH   4  23
TORSDOF 6
ENDMDL
MODEL 3
REMARK VINA RESULT:    -7.919      2.136      2.583
REMARK INTER + INTRA:         -11.490
REMARK INTER:                 -10.989
REMARK INTRA:                  -0.501
REMARK UNBOUND:                -0.794
REMARK  Name = 
REMARK  6 active torsions:
REMARK  status: ('A' for Active; 'I' for Inactive)
REMARK    1  A    between atoms: C_2  and  C_20
REMARK    2  A    between atoms: N_3  and  C_4
REMARK    3  A    between atoms: C_4  and  C_5
REMARK    4  A    between atoms: C_8  and  C_9
REMARK    5  A    between atoms: C_9  and  N_10
REMARK    6  A    between atoms: C_11  and  C_13
REMARK                            x       y       z     vdW  Elec       q    Type
REMARK                         _______ _______ _______ _____ _____    ______ ____
ROOT
ATOM      1  C   UNL     1      46.479   5.559  12.434  0.00  0.00    +0.000 C 
ATOM      2  C   UNL     1      45.269   5.000  13.207  0.00  0.00    +0.000 C 
ATOM      3  C   UNL     1      44.030   5.893  13.102  0.00  0.00    +0.000 C 
ATOM      4  C   UNL     1      43.657   6.227  11.649  0.00  0.00    +0.000 C 
ATOM      5  C   UNL     1      44.875   6.802  10.904  0.00  0.00    +0.000 C 
ATOM      6  C   UNL     1      46.086   5.872  10.984  0.00  0.00    +0.000 C 
ENDROOT
BRANCH   1   7
ATOM      7  C   UNL     1      47.083   6.795  13.117  0.00  0.00    +0.000 C 
BRANCH   7  10
ATOM      8  O   UNL     1      49.724   6.985  14.135  0.00  0.00    +0.000 OA
ATOM      9  C   UNL     1      48.815   6.646  14.879  0.00  0.00    +0.000 C 
ATOM     10  N   UNL     1      47.520   6.493  14.457  0.00  0.00    +0.000 N 
ATOM     11  H   UNL     1      46.791   6.297  15.131  0.00  0.00    +0.000 HD
BRANCH   9  12
ATOM     12  C   UNL     1      49.039   6.348  16.293  0.00  0.00    +0.000 A 
ATOM     13  C   UNL     1      49.612   7.290  17.132  0.00  0.00    +0.000 A 
ATOM     14  S   UNL     1      49.756   6.754  18.747  0.00  0.00    +0.000 S 
ATOM     15  C   UNL     1      49.028   5.259  18.376  0.00  0.00    +0.000 A 
ATOM     16  N   UNL     1      48.809   4.324  19.337  0.00  0.00    +0.000 NA
ATOM     17  C   UNL     1      48.219   3.251  18.912  0.00  0.00    +0.000 A 
ATOM     18  N   UNL     1      47.840   3.026  17.613  0.00  0.00    +0.000 N 
ATOM     19  C   UNL     1      48.104   3.911  16.602  0.00  0.00    +0.000 A 
ATOM     20  O   UNL     1      47.882   3.608  15.434  0.00  0.00    +0.000 OA
ATOM     21  C   UNL     1      48.712   5.155  17.034  0.00  0.00    +0.000 A 
ATOM     22  H   UNL     1      47.422   2.149  17.337  0.00  0.00    +0.000 HD
ENDBRANCH   9  12
ENDBRANCH   7  10
ENDBRANCH   1   7
BRANCH   4  23
ATOM     23  C   UNL     1      43.097   5.003  10.889  0.00  0.00    +0.000 C 
BRANCH  23  24
ATOM     24  N   UNL     1      43.856   4.680   9.705  0.00  0.00    +0.000 N 
ATOM     25  C   UNL     1      44.214   3.396   9.392  0.00  0.00    +0.000 C 
ATOM     26  O   UNL     1      43.949   2.425  10.103  0.00  0.00    +0.000 OA
ATOM     27  H   UNL     1      44.089   5.396   9.017  0.00  0.00    +0.000 HD
BRANCH  25  28
ATOM     28  C   UNL     1      45.053   3.255   8.124  0.00  0.00    +0.000 C 
ATOM     29  C   UNL     1      45.986   2.063   8.208  0.00  0.00    +0.000 C 
ATOM     30  C   UNL     1      46.981   2.354   7.103  0.00  0.00    +0.000 C 
ATOM     31  C   UNL     1      47.048   3.876   7.038  0.00  0.00    +0.000 C 
ATOM     32  N   UNL     1      46.003   4.383   7.937  0.00  0.00    +0.000 NA
ATOM     33  H   UNL     1      45.514   5.165   7.501  0.00  0.00    +0.000 HD
ENDBRANCH  25  28
ENDBRANCH  23  24
ENDBRANCH   4  23
TORSDOF 6
ENDMDL
MODEL 4
REMARK VINA RESULT:    -7.854      2.013      2.526
REMARK INTER + INTRA:         -11.403
REMARK INTER:                 -10.391
REMARK INTRA:                  -1.012
REMARK UNBOUND:                -0.794
REMARK  Name = 
REMARK  6 active torsions:
REMARK  status: ('A' for Active; 'I' for Inactive)
REMARK    1  A    between atoms: C_2  and  C_20
REMARK    2  A    between atoms: N_3  and  C_4
REMARK    3  A    between atoms: C_4  and  C_5
REMARK    4  A    between atoms: C_8  and  C_9
REMARK    5  A    between atoms: C_9  and  N_10
REMARK    6  A    between atoms: C_11  and  C_13
REMARK                            x       y       z     vdW  Elec       q    Type
REMARK                         _______ _______ _______ _____ _____    ______ ____
ROOT
ATOM      1  C   UNL     1      46.022   4.997  13.107  0.00  0.00    +0.000 C 
ATOM      2  C   UNL     1      46.091   3.925  12.001  0.00  0.00    +0.000 C 
ATOM      3  C   UNL     1      44.777   3.158  11.831  0.00  0.00    +0.000 C 
ATOM      4  C   UNL     1      43.567   4.085  11.635  0.00  0.00    +0.000 C 
ATOM      5  C   UNL     1      43.508   5.132  12.761  0.00  0.00    +0.000 C 
ATOM      6  C   UNL     1      44.815   5.916  12.882  0.00  0.00    +0.000 C 
ENDROOT
BRANCH   1   7
ATOM      7  C   UNL     1      45.986   4.378  14.512  0.00  0.00    +0.000 C 
BRANCH   7  10
ATOM      8  O   UNL     1      48.106   3.182  15.968  0.00  0.00    +0.000 OA
ATOM      9  C   UNL     1      47.934   4.390  16.041  0.00  0.00    +0.000 C 
ATOM     10  N   UNL     1      46.909   5.039  15.400  0.00  0.00    +0.000 N 
ATOM     11  H   UNL     1      46.864   6.050  15.420  0.00  0.00    +0.000 HD
BRANCH   9  12
ATOM     12  C   UNL     1      48.799   5.253  16.844  0.00  0.00    +0.000 A 
ATOM     13  C   UNL     1      48.944   5.039  18.204  0.00  0.00    +0.000 A 
ATOM     14  S   UNL     1      50.020   6.137  18.947  0.00  0.00    +0.000 S 
ATOM     15  C   UNL     1      50.346   6.910  17.465  0.00  0.00    +0.000 A 
ATOM     16  N   UNL     1      51.233   7.937  17.385  0.00  0.00    +0.000 NA
ATOM     17  C   UNL     1      51.401   8.403  16.187  0.00  0.00    +0.000 A 
ATOM     18  N   UNL     1      50.754   7.944  15.068  0.00  0.00    +0.000 N 
ATOM     19  C   UNL     1      49.803   6.960  15.115  0.00  0.00    +0.000 A 
ATOM     20  O   UNL     1      49.144   6.682  14.119  0.00  0.00    +0.000 OA
ATOM     21  C   UNL     1      49.618   6.363  16.424  0.00  0.00    +0.000 A 
ATOM     22  H   UNL     1      50.897   8.380  14.168  0.00  0.00    +0.000 HD
ENDBRANCH   9  12
ENDBRANCH   7  10
ENDBRANCH   1   7
BRANCH   4  23
ATOM     23  C   UNL     1      43.579   4.785  10.258  0.00  0.00    +0.000 C 
BRANCH  23  24
ATOM     24  N   UNL     1      44.124   3.956   9.210  0.00  0.00    +0.000 N 
ATOM     25  C   UNL     1      45.274   4.282   8.542  0.00  0.00    +0.000 C 
ATOM     26  O   UNL     1      45.915   5.312   8.757  0.00  0.00    +0.000 OA
ATOM     27  H   UNL     1      43.707   3.055   8.980  0.00  0.00    +0.000 HD
BRANCH  25  28
ATOM     28  C   UNL     1      45.672   3.308   7.436  0.00  0.00    +0.000 C 
ATOM     29  C   UNL     1      46.347   2.074   8.002  0.00  0.00    +0.000 C 
ATOM     30  C   UNL     1      47.021   1.485   6.779  0.00  0.00    +0.000 C 
ATOM     31  C   UNL     1      47.354   2.691   5.907  0.00  0.00    +0.000 C 
ATOM     32  N   UNL     1      46.726   3.857   6.542  0.00  0.00    +0.000 NA
ATOM     33  H   UNL     1      46.290   4.450   5.834  0.00  0.00    +0.000 HD
ENDBRANCH  25  28
ENDBRANCH  23  24
ENDBRANCH   4  23
TORSDOF 6
ENDMDL
MODEL 5
REMARK VINA RESULT:    -7.669      1.705      1.905
REMARK INTER + INTRA:         -11.152
REMARK INTER:                 -10.584
REMARK INTRA:                  -0.568
REMARK UNBOUND:                -0.794
REMARK  Name = 
REMARK  6 active torsions:
REMARK  status: ('A' for Active; 'I' for Inactive)
REMARK    1  A    between atoms: C_2  and  C_20
REMARK    2  A    between atoms: N_3  and  C_4
REMARK    3  A    between atoms: C_4  and  C_5
REMARK    4  A    between atoms: C_8  and  C_9
REMARK    5  A    between atoms: C_9  and  N_10
REMARK    6  A    between atoms: C_11  and  C_13
REMARK                            x       y       z     vdW  Elec       q    Type
REMARK                         _______ _______ _______ _____ _____    ______ ____
ROOT
ATOM      1  C   UNL     1      46.170   4.855  13.136  0.00  0.00    +0.000 C 
ATOM      2  C   UNL     1      46.063   3.722  12.096  0.00  0.00    +0.000 C 
ATOM      3  C   UNL     1      44.642   3.170  11.959  0.00  0.00    +0.000 C 
ATOM      4  C   UNL     1      43.599   4.268  11.695  0.00  0.00    +0.000 C 
ATOM      5  C   UNL     1      43.711   5.376  12.757  0.00  0.00    +0.000 C 
ATOM      6  C   UNL     1      45.129   5.944  12.844  0.00  0.00    +0.000 C 
ENDROOT
BRANCH   1   7
ATOM      7  C   UNL     1      46.032   4.337  14.575  0.00  0.00    +0.000 C 
BRANCH   7  10
ATOM      8  O   UNL     1      48.181   3.219  16.051  0.00  0.00    +0.000 OA
ATOM      9  C   UNL     1      47.965   4.420  16.120  0.00  0.00    +0.000 C 
ATOM     10  N   UNL     1      46.924   5.032  15.469  0.00  0.00    +0.000 N 
ATOM     11  H   UNL     1      46.842   6.040  15.488  0.00  0.00    +0.000 HD
BRANCH   9  12
ATOM     12  C   UNL     1      48.792   5.314  16.930  0.00  0.00    +0.000 A 
ATOM     13  C   UNL     1      49.315   6.476  16.388  0.00  0.00    +0.000 A 
ATOM     14  S   UNL     1      50.225   7.390  17.507  0.00  0.00    +0.000 S 
ATOM     15  C   UNL     1      49.918   6.273  18.756  0.00  0.00    +0.000 A 
ATOM     16  N   UNL     1      50.388   6.476  20.015  0.00  0.00    +0.000 NA
ATOM     17  C   UNL     1      50.048   5.558  20.865  0.00  0.00    +0.000 A 
ATOM     18  N   UNL     1      49.293   4.452  20.565  0.00  0.00    +0.000 N 
ATOM     19  C   UNL     1      48.860   4.173  19.297  0.00  0.00    +0.000 A 
ATOM     20  O   UNL     1      48.316   3.104  19.045  0.00  0.00    +0.000 OA
ATOM     21  C   UNL     1      49.164   5.200  18.318  0.00  0.00    +0.000 A 
ATOM     22  H   UNL     1      49.099   3.749  21.265  0.00  0.00    +0.000 HD
ENDBRANCH   9  12
ENDBRANCH   7  10
ENDBRANCH   1   7
BRANCH   4  23
ATOM     23  C   UNL     1      43.726   4.872  10.279  0.00  0.00    +0.000 C 
BRANCH  23  24
ATOM     24  N   UNL     1      44.343   3.971   9.336  0.00  0.00    +0.000 N 
ATOM     25  C   UNL     1      45.475   4.302   8.640  0.00  0.00    +0.000 C 
ATOM     26  O   UNL     1      46.037   5.395   8.738  0.00  0.00    +0.000 OA
ATOM     27  H   UNL     1      43.995   3.022   9.210  0.00  0.00    +0.000 HD
BRANCH  25  28
ATOM     28  C   UNL     1      45.956   3.240   7.654  0.00  0.00    +0.000 C 
ATOM     29  C   UNL     1      46.109   1.890   8.327  0.00  0.00    +0.000 C 
ATOM     30  C   UNL     1      46.971   1.132   7.339  0.00  0.00    +0.000 C 
ATOM     31  C   UNL     1      47.835   2.204   6.683  0.00  0.00    +0.000 C 
ATOM     32  N   UNL     1      47.334   3.500   7.161  0.00  0.00    +0.000 NA
ATOM     33  H   UNL     1      47.294   4.166   6.389  0.00  0.00    +0.000 HD
ENDBRANCH  25  28
ENDBRANCH  23  24
ENDBRANCH   4  23
TORSDOF 6
ENDMDL
MODEL 6
REMARK VINA RESULT:    -7.372      4.835      5.375
REMARK INTER + INTRA:         -10.751
REMARK INTER:                 -10.193
REMARK INTRA:                  -0.559
REMARK UNBOUND:                -0.794
REMARK  Name = 
REMARK  6 active torsions:
REMARK  status: ('A' for Active; 'I' for Inactive)
REMARK    1  A    between atoms: C_2  and  C_20
REMARK    2  A    between atoms: N_3  and  C_4
REMARK    3  A    between atoms: C_4  and  C_5
REMARK    4  A    between atoms: C_8  and  C_9
REMARK    5  A    between atoms: C_9  and  N_10
REMARK    6  A    between atoms: C_11  and  C_13
REMARK                            x       y       z     vdW  Elec       q    Type
REMARK                         _______ _______ _______ _____ _____    ______ ____
ROOT
ATOM      1  C   UNL     1      44.945   6.476  11.630  0.00  0.00    +0.000 C 
ATOM      2  C   UNL     1      45.781   5.181  11.578  0.00  0.00    +0.000 C 
ATOM      3  C   UNL     1      45.322   4.134  12.596  0.00  0.00    +0.000 C 
ATOM      4  C   UNL     1      43.818   3.830  12.501  0.00  0.00    +0.000 C 
ATOM      5  C   UNL     1      43.004   5.134  12.576  0.00  0.00    +0.000 C 
ATOM      6  C   UNL     1      43.450   6.148  11.521  0.00  0.00    +0.000 C 
ENDROOT
BRANCH   1   7
ATOM      7  C   UNL     1      45.234   7.302  12.892  0.00  0.00    +0.000 C 
BRANCH   7  10
ATOM      8  O   UNL     1      45.692   9.895  11.836  0.00  0.00    +0.000 OA
ATOM      9  C   UNL     1      46.629   9.260  12.298  0.00  0.00    +0.000 C 
ATOM     10  N   UNL     1      46.499   7.987  12.791  0.00  0.00    +0.000 N 
ATOM     11  H   UNL     1      47.286   7.540  13.243  0.00  0.00    +0.000 HD
BRANCH   9  12
ATOM     12  C   UNL     1      47.987   9.800  12.343  0.00  0.00    +0.000 A 
ATOM     13  C   UNL     1      48.221  11.088  12.793  0.00  0.00    +0.000 A 
ATOM     14  S   UNL     1      49.875  11.511  12.794  0.00  0.00    +0.000 S 
ATOM     15  C   UNL     1      50.328   9.972  12.222  0.00  0.00    +0.000 A 
ATOM     16  N   UNL     1      51.634   9.645  12.031  0.00  0.00    +0.000 NA
ATOM     17  C   UNL     1      51.825   8.430  11.623  0.00  0.00    +0.000 A 
ATOM     18  N   UNL     1      50.830   7.519  11.377  0.00  0.00    +0.000 N 
ATOM     19  C   UNL     1      49.501   7.827  11.488  0.00  0.00    +0.000 A 
ATOM     20  O   UNL     1      48.643   7.033  11.118  0.00  0.00    +0.000 OA
ATOM     21  C   UNL     1      49.232   9.159  11.998  0.00  0.00    +0.000 A 
ATOM     22  H   UNL     1      51.043   6.599  11.018  0.00  0.00    +0.000 HD
ENDBRANCH   9  12
ENDBRANCH   7  10
ENDBRANCH   1   7
BRANCH   4  23
ATOM     23  C   UNL     1      43.455   3.049  11.219  0.00  0.00    +0.000 C 
BRANCH  23  24
ATOM     24  N   UNL     1      44.613   2.645  10.458  0.00  0.00    +0.000 N 
ATOM     25  C   UNL     1      44.891   3.159   9.219  0.00  0.00    +0.000 C 
ATOM     26  O   UNL     1      44.169   3.976   8.645  0.00  0.00    +0.000 OA
ATOM     27  H   UNL     1      45.308   2.014  10.853  0.00  0.00    +0.000 HD
BRANCH  25  28
ATOM     28  C   UNL     1      46.135   2.579   8.549  0.00  0.00    +0.000 C 
ATOM     29  C   UNL     1      46.264   3.058   7.117  0.00  0.00    +0.000 C 
ATOM     30  C   UNL     1      47.255   2.071   6.535  0.00  0.00    +0.000 C 
ATOM     31  C   UNL     1      47.008   0.779   7.307  0.00  0.00    +0.000 C 
ATOM     32  N   UNL     1      46.058   1.104   8.380  0.00  0.00    +0.000 NA
ATOM     33  H   UNL     1      46.342   0.651   9.249  0.00  0.00    +0.000 HD
ENDBRANCH  25  28
ENDBRANCH  23  24
ENDBRANCH   4  23
TORSDOF 6
ENDMDL
MODEL 7
REMARK VINA RESULT:    -7.186      3.434      4.302
REMARK INTER + INTRA:         -10.500
REMARK INTER:                  -9.678
REMARK INTRA:                  -0.822
REMARK UNBOUND:                -0.794
REMARK  Name = 
REMARK  6 active torsions:
REMARK  status: ('A' for Active; 'I' for Inactive)
REMARK    1  A    between atoms: C_2  and  C_20
REMARK    2  A    between atoms: N_3  and  C_4
REMARK    3  A    between atoms: C_4  and  C_5
REMARK    4  A    between atoms: C_8  and  C_9
REMARK    5  A    between atoms: C_9  and  N_10
REMARK    6  A    between atoms: C_11  and  C_13
REMARK                            x       y       z     vdW  Elec       q    Type
REMARK                         _______ _______ _______ _____ _____    ______ ____
ROOT
ATOM      1  C   UNL     1      45.220   5.984  12.105  0.00  0.00    +0.000 C 
ATOM      2  C   UNL     1      45.996   4.692  11.781  0.00  0.00    +0.000 C 
ATOM      3  C   UNL     1      45.438   3.464  12.506  0.00  0.00    +0.000 C 
ATOM      4  C   UNL     1      43.928   3.278  12.287  0.00  0.00    +0.000 C 
ATOM      5  C   UNL     1      43.174   4.574  12.637  0.00  0.00    +0.000 C 
ATOM      6  C   UNL     1      43.719   5.778  11.867  0.00  0.00    +0.000 C 
ENDROOT
BRANCH   1   7
ATOM      7  C   UNL     1      45.486   6.477  13.535  0.00  0.00    +0.000 C 
BRANCH   7  10
ATOM      8  O   UNL     1      47.736   5.275  14.776  0.00  0.00    +0.000 OA
ATOM      9  C   UNL     1      47.856   6.370  14.246  0.00  0.00    +0.000 C 
ATOM     10  N   UNL     1      46.809   7.035  13.660  0.00  0.00    +0.000 N 
ATOM     11  H   UNL     1      46.980   7.897  13.157  0.00  0.00    +0.000 HD
BRANCH   9  12
ATOM     12  C   UNL     1      49.132   7.083  14.212  0.00  0.00    +0.000 A 
ATOM     13  C   UNL     1      49.871   7.263  15.369  0.00  0.00    +0.000 A 
ATOM     14  S   UNL     1      51.341   8.093  15.105  0.00  0.00    +0.000 S 
ATOM     15  C   UNL     1      51.043   8.206  13.432  0.00  0.00    +0.000 A 
ATOM     16  N   UNL     1      51.943   8.784  12.593  0.00  0.00    +0.000 NA
ATOM     17  C   UNL     1      51.594   8.769  11.345  0.00  0.00    +0.000 A 
ATOM     18  N   UNL     1      50.422   8.241  10.864  0.00  0.00    +0.000 N 
ATOM     19  C   UNL     1      49.459   7.713  11.681  0.00  0.00    +0.000 A 
ATOM     20  O   UNL     1      48.367   7.387  11.227  0.00  0.00    +0.000 OA
ATOM     21  C   UNL     1      49.825   7.653  13.083  0.00  0.00    +0.000 A 
ATOM     22  H   UNL     1      50.189   8.299   9.883  0.00  0.00    +0.000 HD
ENDBRANCH   9  12
ENDBRANCH   7  10
ENDBRANCH   1   7
BRANCH   4  23
ATOM     23  C   UNL     1      43.592   2.839  10.845  0.00  0.00    +0.000 C 
BRANCH  23  24
ATOM     24  N   UNL     1      44.765   2.546  10.057  0.00  0.00    +0.000 N 
ATOM     25  C   UNL     1      45.055   3.216   8.899  0.00  0.00    +0.000 C 
ATOM     26  O   UNL     1      44.332   4.092   8.422  0.00  0.00    +0.000 OA
ATOM     27  H   UNL     1      45.461   1.876  10.380  0.00  0.00    +0.000 HD
BRANCH  25  28
ATOM     28  C   UNL     1      46.315   2.737   8.179  0.00  0.00    +0.000 C 
ATOM     29  C   UNL     1      46.302   3.138   6.718  0.00  0.00    +0.000 C 
ATOM     30  C   UNL     1      47.363   2.233   6.126  0.00  0.00    +0.000 C 
ATOM     31  C   UNL     1      47.313   0.972   6.982  0.00  0.00    +0.000 C 
ATOM     32  N   UNL     1      46.398   1.255   8.097  0.00  0.00    +0.000 NA
ATOM     33  H   UNL     1      46.784   0.891   8.968  0.00  0.00    +0.000 HD
ENDBRANCH  25  28
ENDBRANCH  23  24
ENDBRANCH   4  23
TORSDOF 6
ENDMDL
MODEL 8
REMARK VINA RESULT:    -7.085      4.544      5.247
REMARK INTER + INTRA:         -10.364
REMARK INTER:                  -9.720
REMARK INTRA:                  -0.644
REMARK UNBOUND:                -0.794
REMARK  Name = 
REMARK  6 active torsions:
REMARK  status: ('A' for Active; 'I' for Inactive)
REMARK    1  A    between atoms: C_2  and  C_20
REMARK    2  A    between atoms: N_3  and  C_4
REMARK    3  A    between atoms: C_4  and  C_5
REMARK    4  A    between atoms: C_8  and  C_9
REMARK    5  A    between atoms: C_9  and  N_10
REMARK    6  A    between atoms: C_11  and  C_13
REMARK                            x       y       z     vdW  Elec       q    Type
REMARK                         _______ _______ _______ _____ _____    ______ ____
ROOT
ATOM      1  C   UNL     1      44.863   6.556  11.592  0.00  0.00    +0.000 C 
ATOM      2  C   UNL     1      45.783   5.326  11.456  0.00  0.00    +0.000 C 
ATOM      3  C   UNL     1      45.478   4.236  12.486  0.00  0.00    +0.000 C 
ATOM      4  C   UNL     1      43.996   3.826  12.497  0.00  0.00    +0.000 C 
ATOM      5  C   UNL     1      43.099   5.066  12.654  0.00  0.00    +0.000 C 
ATOM      6  C   UNL     1      43.392   6.123  11.587  0.00  0.00    +0.000 C 
ENDROOT
BRANCH   1   7
ATOM      7  C   UNL     1      45.186   7.386  12.843  0.00  0.00    +0.000 C 
BRANCH   7  10
ATOM      8  O   UNL     1      45.939  10.008  12.062  0.00  0.00    +0.000 OA
ATOM      9  C   UNL     1      46.798   9.220  12.429  0.00  0.00    +0.000 C 
ATOM     10  N   UNL     1      46.523   7.924  12.785  0.00  0.00    +0.000 N 
ATOM     11  H   UNL     1      47.257   7.341  13.165  0.00  0.00    +0.000 HD
BRANCH   9  12
ATOM     12  C   UNL     1      48.212   9.587  12.497  0.00  0.00    +0.000 A 
ATOM     13  C   UNL     1      48.910   9.925  11.350  0.00  0.00    +0.000 A 
ATOM     14  S   UNL     1      50.536  10.350  11.653  0.00  0.00    +0.000 S 
ATOM     15  C   UNL     1      50.343  10.123  13.330  0.00  0.00    +0.000 A 
ATOM     16  N   UNL     1      51.364  10.356  14.196  0.00  0.00    +0.000 NA
ATOM     17  C   UNL     1      51.060  10.171  15.442  0.00  0.00    +0.000 A 
ATOM     18  N   UNL     1      49.832   9.761  15.897  0.00  0.00    +0.000 N 
ATOM     19  C   UNL     1      48.798   9.448  15.056  0.00  0.00    +0.000 A 
ATOM     20  O   UNL     1      47.768   8.946  15.494  0.00  0.00    +0.000 OA
ATOM     21  C   UNL     1      49.069   9.694  13.652  0.00  0.00    +0.000 A 
ATOM     22  H   UNL     1      49.670   9.593  16.880  0.00  0.00    +0.000 HD
ENDBRANCH   9  12
ENDBRANCH   7  10
ENDBRANCH   1   7
BRANCH   4  23
ATOM     23  C   UNL     1      43.595   3.036  11.231  0.00  0.00    +0.000 C 
BRANCH  23  24
ATOM     24  N   UNL     1      44.729   2.641  10.431  0.00  0.00    +0.000 N 
ATOM     25  C   UNL     1      44.940   3.128   9.169  0.00  0.00    +0.000 C 
ATOM     26  O   UNL     1      44.173   3.912   8.606  0.00  0.00    +0.000 OA
ATOM     27  H   UNL     1      45.456   2.037  10.810  0.00  0.00    +0.000 HD
BRANCH  25  28
ATOM     28  C   UNL     1      46.168   2.562   8.459  0.00  0.00    +0.000 C 
ATOM     29  C   UNL     1      46.247   3.042   7.024  0.00  0.00    +0.000 C 
ATOM     30  C   UNL     1      47.230   2.065   6.410  0.00  0.00    +0.000 C 
ATOM     31  C   UNL     1      47.020   0.771   7.189  0.00  0.00    +0.000 C 
ATOM     32  N   UNL     1      46.101   1.086   8.291  0.00  0.00    +0.000 NA
ATOM     33  H   UNL     1      46.417   0.636   9.151  0.00  0.00    +0.000 HD
ENDBRANCH  25  28
ENDBRANCH  23  24
ENDBRANCH   4  23
TORSDOF 6
ENDMDL
MODEL 9
REMARK VINA RESULT:    -6.977      3.322      8.928
REMARK INTER + INTRA:         -10.219
REMARK INTER:                  -9.361
REMARK INTRA:                  -0.858
REMARK UNBOUND:                -0.794
REMARK  Name = 
REMARK  6 active torsions:
REMARK  status: ('A' for Active; 'I' for Inactive)
REMARK    1  A    between atoms: C_2  and  C_20
REMARK    2  A    between atoms: N_3  and  C_4
REMARK    3  A    between atoms: C_4  and  C_5
REMARK    4  A    between atoms: C_8  and  C_9
REMARK    5  A    between atoms: C_9  and  N_10
REMARK    6  A    between atoms: C_11  and  C_13
REMARK                            x       y       z     vdW  Elec       q    Type
REMARK                         _______ _______ _______ _____ _____    ______ ____
ROOT
ATOM      1  C   UNL     1      48.623   7.918  12.237  0.00  0.00    +0.000 C 
ATOM      2  C   UNL     1      49.126   9.120  13.061  0.00  0.00    +0.000 C 
ATOM      3  C   UNL     1      48.516   9.179  14.464  0.00  0.00    +0.000 C 
ATOM      4  C   UNL     1      48.681   7.862  15.240  0.00  0.00    +0.000 C 
ATOM      5  C   UNL     1      48.154   6.681  14.407  0.00  0.00    +0.000 C 
ATOM      6  C   UNL     1      48.810   6.616  13.027  0.00  0.00    +0.000 C 
ENDROOT
BRANCH   1   7
ATOM      7  C   UNL     1      47.161   8.088  11.797  0.00  0.00    +0.000 C 
BRANCH   7  10
ATOM      8  O   UNL     1      44.381   7.642  11.449  0.00  0.00    +0.000 OA
ATOM      9  C   UNL     1      45.142   6.686  11.496  0.00  0.00    +0.000 C 
ATOM     10  N   UNL     1      46.492   6.814  11.700  0.00  0.00    +0.000 N 
ATOM     11  H   UNL     1      47.089   5.999  11.642  0.00  0.00    +0.000 HD
BRANCH   9  12
ATOM     12  C   UNL     1      44.670   5.309  11.359  0.00  0.00    +0.000 A 
ATOM     13  C   UNL     1      43.932   4.712  12.367  0.00  0.00    +0.000 A 
ATOM     14  S   UNL     1      43.455   3.115  11.997  0.00  0.00    +0.000 S 
ATOM     15  C   UNL     1      44.196   3.188  10.465  0.00  0.00    +0.000 A 
ATOM     16  N   UNL     1      44.131   2.142   9.599  0.00  0.00    +0.000 NA
ATOM     17  C   UNL     1      44.714   2.355   8.461  0.00  0.00    +0.000 A 
ATOM     18  N   UNL     1      45.365   3.513   8.118  0.00  0.00    +0.000 N 
ATOM     19  C   UNL     1      45.514   4.563   8.984  0.00  0.00    +0.000 A 
ATOM     20  O   UNL     1      46.226   5.517   8.691  0.00  0.00    +0.000 OA
ATOM     21  C   UNL     1      44.829   4.399  10.253  0.00  0.00    +0.000 A 
ATOM     22  H   UNL     1      45.837   3.601   7.230  0.00  0.00    +0.000 HD
ENDBRANCH   9  12
ENDBRANCH   7  10
ENDBRANCH   1   7
BRANCH   4  23
ATOM     23  C   UNL     1      50.145   7.605  15.660  0.00  0.00    +0.000 C 
BRANCH  23  24
ATOM     24  N   UNL     1      50.350   6.290  16.216  0.00  0.00    +0.000 N 
ATOM     25  C   UNL     1      50.164   6.020  17.545  0.00  0.00    +0.000 C 
ATOM     26  O   UNL     1      49.839   6.873  18.373  0.00  0.00    +0.000 OA
ATOM     27  H   UNL     1      50.571   5.494  15.619  0.00  0.00    +0.000 HD
BRANCH  25  28
ATOM     28  C   UNL     1      50.471   4.582  17.957  0.00  0.00    +0.000 C 
ATOM     29  C   UNL     1      51.934   4.246  17.743  0.00  0.00    +0.000 C 
ATOM     30  C   UNL     1      51.928   2.732  17.790  0.00  0.00    +0.000 C 
ATOM     31  C   UNL     1      50.558   2.337  17.250  0.00  0.00    +0.000 C 
ATOM     32  N   UNL     1      49.792   3.581  17.093  0.00  0.00    +0.000 NA
ATOM     33  H   UNL     1      48.835   3.448  17.422  0.00  0.00    +0.000 HD
ENDBRANCH  25  28
ENDBRANCH  23  24
ENDBRANCH   4  23
TORSDOF 6
ENDMDL
