MODEL 1
REMARK VINA RESULT:    -9.284      0.000      0.000
REMARK INTER + INTRA:         -13.134
REMARK INTER:                 -11.998
REMARK INTRA:                  -1.136
REMARK UNBOUND:                -1.136
REMARK  Name = 
REMARK  5 active torsions:
REMARK  status: ('A' for Active; 'I' for Inactive)
REMARK    1  A    between atoms: C_2  and  C_4
REMARK    2  A    between atoms: C_7  and  N_8
REMARK    3  A    between atoms: N_8  and  C_9
REMARK    4  A    between atoms: C_9  and  C_10
REMARK    5  A    between atoms: C_14  and  C_15
REMARK                            x       y       z     vdW  Elec       q    Type
REMARK                         _______ _______ _______ _____ _____    ______ ____
ROOT
ATOM      1  C   UNL     1      43.871   4.956  11.433  0.00  0.00    +0.000 C 
ATOM      2  C   UNL     1      43.094   4.019  12.351  0.00  0.00    +0.000 C 
ATOM      3  C   UNL     1      42.674   5.444  12.244  0.00  0.00    +0.000 C 
ENDROOT
BRANCH   1   4
ATOM      4  C   UNL     1      45.206   5.544  11.893  0.00  0.00    +0.000 A 
ATOM      5  C   UNL     1      45.735   6.698  11.296  0.00  0.00    +0.000 A 
ATOM      6  C   UNL     1      46.860   7.334  11.819  0.00  0.00    +0.000 A 
ATOM      7  C   UNL     1      47.479   6.823  12.961  0.00  0.00    +0.000 A 
ATOM      8  C   UNL     1      47.006   5.657  13.581  0.00  0.00    +0.000 A 
ATOM      9  C   UNL     1      45.896   5.017  12.999  0.00  0.00    +0.000 A 
BRANCH   8  10
ATOM     10  C   UNL     1      47.563   5.169  14.856  0.00  0.00    +0.000 A 
ATOM     11  C   UNL     1      47.213   3.915  15.374  0.00  0.00    +0.000 A 
ATOM     12  C   UNL     1      47.817   3.427  16.531  0.00  0.00    +0.000 A 
ATOM     13  C   UNL     1      48.773   4.212  17.150  0.00  0.00    +0.000 A 
ATOM     14  N   UNL     1      49.143   5.429  16.704  0.00  0.00    +0.000 NA
ATOM     15  C   UNL     1      48.529   5.875  15.579  0.00  0.00    +0.000 A 
ENDBRANCH   8  10
ENDBRANCH   1   4
BRANCH   1  16
ATOM     16  N   UNL     1      43.757   4.776   9.977  0.00  0.00    +0.000 N 
ATOM     17  H   UNL     1      42.858   4.956   9.539  0.00  0.00    +0.000 HD
BRANCH  16  21
ATOM     18  C   UNL     1      46.380   2.292   7.760  0.00  0.00    +0.000 A 
ATOM     19  C   UNL     1      45.511   1.729   8.691  0.00  0.00    +0.000 A 
ATOM     20  C   UNL     1      44.653   2.547   9.428  0.00  0.00    +0.000 A 
ATOM     21  C   UNL     1      44.604   3.933   9.230  0.00  0.00    +0.000 A 
ATOM     22  C   UNL     1      45.518   4.492   8.328  0.00  0.00    +0.000 A 
ATOM     23  C   UNL     1      46.405   3.681   7.601  0.00  0.00    +0.000 A 
BRANCH  18  25
ATOM     24  N   UNL     1      48.440   2.063   6.485  0.00  0.00    +0.000 N 
ATOM     25  C   UNL     1      47.313   1.450   6.976  0.00  0.00    +0.000 C 
ATOM     26  O   UNL     1      47.109   0.260   6.790  0.00  0.00    +0.000 OA
ATOM     27  H   UNL     1      49.104   1.468   6.007  0.00  0.00    +0.000 HD
ATOM     28  H   UNL     1      48.762   2.958   6.812  0.00  0.00    +0.000 HD
ENDBRANCH  18  25
ENDBRANCH  16  21
ENDBRANCH   1  16
TORSDOF 5
ENDMDL
MODEL 2
REMARK VINA RESULT:    -8.945      1.791      3.339
REMARK INTER + INTRA:         -12.695
REMARK INTER:                 -11.641
REMARK INTRA:                  -1.054
REMARK UNBOUND:                -1.136
REMARK  Name = 
REMARK  5 active torsions:
REMARK  status: ('A' for Active; 'I' for Inactive)
REMARK    1  A    between atoms: C_2  and  C_4
REMARK    2  A    between atoms: C_7  and  N_8
REMARK    3  A    between atoms: N_8  and  C_9
REMARK    4  A    between atoms: C_9  and  C_10
REMARK    5  A    between atoms: C_14  and  C_15
REMARK                            x       y       z     vdW  Elec       q    Type
REMARK                         _______ _______ _______ _____ _____    ______ ____
ROOT
ATOM      1  C   UNL     1      43.864   4.997  11.349  0.00  0.00    +0.000 C 
ATOM      2  C   UNL     1      42.859   3.972  11.861  0.00  0.00    +0.000 C 
ATOM      3  C   UNL     1      42.533   5.421  11.961  0.00  0.00    +0.000 C 
ENDROOT
BRANCH   1   4
ATOM      4  C   UNL     1      45.079   5.369  12.200  0.00  0.00    +0.000 A 
ATOM      5  C   UNL     1      45.541   4.518  13.217  0.00  0.00    +0.000 A 
ATOM      6  C   UNL     1      46.741   4.767  13.881  0.00  0.00    +0.000 A 
ATOM      7  C   UNL     1      47.509   5.880  13.535  0.00  0.00    +0.000 A 
ATOM      8  C   UNL     1      47.079   6.777  12.544  0.00  0.00    +0.000 A 
ATOM      9  C   UNL     1      45.842   6.518  11.927  0.00  0.00    +0.000 A 
BRANCH   8  10
ATOM     10  C   UNL     1      47.929   7.887  12.074  0.00  0.00    +0.000 A 
ATOM     11  C   UNL     1      47.452   9.204  12.030  0.00  0.00    +0.000 A 
ATOM     12  C   UNL     1      48.294  10.255  11.673  0.00  0.00    +0.000 A 
ATOM     13  C   UNL     1      49.610   9.964  11.367  0.00  0.00    +0.000 A 
ATOM     14  N   UNL     1      50.122   8.717  11.382  0.00  0.00    +0.000 NA
ATOM     15  C   UNL     1      49.272   7.716  11.728  0.00  0.00    +0.000 A 
ENDBRANCH   8  10
ENDBRANCH   1   4
BRANCH   1  16
ATOM     16  N   UNL     1      44.083   5.110   9.898  0.00  0.00    +0.000 N 
ATOM     17  H   UNL     1      43.395   5.612   9.345  0.00  0.00    +0.000 HD
BRANCH  16  21
ATOM     18  C   UNL     1      46.517   2.423   7.700  0.00  0.00    +0.000 A 
ATOM     19  C   UNL     1      45.613   1.934   8.639  0.00  0.00    +0.000 A 
ATOM     20  C   UNL     1      44.818   2.817   9.369  0.00  0.00    +0.000 A 
ATOM     21  C   UNL     1      44.866   4.201   9.157  0.00  0.00    +0.000 A 
ATOM     22  C   UNL     1      45.816   4.685   8.248  0.00  0.00    +0.000 A 
ATOM     23  C   UNL     1      46.640   3.805   7.527  0.00  0.00    +0.000 A 
BRANCH  18  25
ATOM     24  N   UNL     1      48.447   2.075   6.260  0.00  0.00    +0.000 N 
ATOM     25  C   UNL     1      47.386   1.509   6.923  0.00  0.00    +0.000 C 
ATOM     26  O   UNL     1      47.187   0.304   6.887  0.00  0.00    +0.000 OA
ATOM     27  H   UNL     1      49.073   1.438   5.785  0.00  0.00    +0.000 HD
ATOM     28  H   UNL     1      48.782   3.003   6.456  0.00  0.00    +0.000 HD
ENDBRANCH  18  25
ENDBRANCH  16  21
ENDBRANCH   1  16
TORSDOF 5
ENDMDL
MODEL 3
REMARK VINA RESULT:    -8.630      1.472      2.364
REMARK INTER + INTRA:         -12.289
REMARK INTER:                 -11.334
REMARK INTRA:                  -0.955
REMARK UNBOUND:                -1.136
REMARK  Name = 
REMARK  5 active torsions:
REMARK  status: ('A' for Active; 'I' for Inactive)
REMARK    1  A    between atoms: C_2  and  C_4
REMARK    2  A    between atoms: C_7  and  N_8
REMARK    3  A    between atoms: N_8  and  C_9
REMARK    4  A    between atoms: C_9  and  C_10
REMARK    5  A    between atoms: C_14  and  C_15
REMARK                            x       y       z     vdW  Elec       q    Type
REMARK                         _______ _______ _______ _____ _____    ______ ____
ROOT
ATOM      1  C   UNL     1      44.085   5.060  11.571  0.00  0.00    +0.000 C 
ATOM      2  C   UNL     1      44.160   3.979  12.644  0.00  0.00    +0.000 C 
ATOM      3  C   UNL     1      43.005   4.919  12.640  0.00  0.00    +0.000 C 
ENDROOT
BRANCH   1   4
ATOM      4  C   UNL     1      44.922   6.332  11.706  0.00  0.00    +0.000 A 
ATOM      5  C   UNL     1      44.392   7.589  11.378  0.00  0.00    +0.000 A 
ATOM      6  C   UNL     1      45.087   8.765  11.657  0.00  0.00    +0.000 A 
ATOM      7  C   UNL     1      46.335   8.703  12.279  0.00  0.00    +0.000 A 
ATOM      8  C   UNL     1      46.922   7.470  12.605  0.00  0.00    +0.000 A 
ATOM      9  C   UNL     1      46.212   6.304  12.267  0.00  0.00    +0.000 A 
BRANCH   8  10
ATOM     10  C   UNL     1      48.178   7.382  13.373  0.00  0.00    +0.000 A 
ATOM     11  C   UNL     1      49.293   8.163  13.041  0.00  0.00    +0.000 A 
ATOM     12  C   UNL     1      50.440   8.138  13.832  0.00  0.00    +0.000 A 
ATOM     13  C   UNL     1      50.446   7.327  14.951  0.00  0.00    +0.000 A 
ATOM     14  N   UNL     1      49.408   6.548  15.314  0.00  0.00    +0.000 NA
ATOM     15  C   UNL     1      48.309   6.591  14.518  0.00  0.00    +0.000 A 
ENDBRANCH   8  10
ENDBRANCH   1   4
BRANCH   1  16
ATOM     16  N   UNL     1      43.809   4.660  10.181  0.00  0.00    +0.000 N 
ATOM     17  H   UNL     1      42.841   4.552   9.894  0.00  0.00    +0.000 HD
BRANCH  16  21
ATOM     18  C   UNL     1      46.506   2.491   7.733  0.00  0.00    +0.000 A 
ATOM     19  C   UNL     1      46.425   3.877   7.621  0.00  0.00    +0.000 A 
ATOM     20  C   UNL     1      45.532   4.591   8.420  0.00  0.00    +0.000 A 
ATOM     21  C   UNL     1      44.730   3.957   9.378  0.00  0.00    +0.000 A 
ATOM     22  C   UNL     1      44.783   2.559   9.445  0.00  0.00    +0.000 A 
ATOM     23  C   UNL     1      45.659   1.828   8.626  0.00  0.00    +0.000 A 
BRANCH  18  25
ATOM     24  N   UNL     1      48.562   2.347   6.440  0.00  0.00    +0.000 N 
ATOM     25  C   UNL     1      47.432   1.706   6.885  0.00  0.00    +0.000 C 
ATOM     26  O   UNL     1      47.219   0.535   6.608  0.00  0.00    +0.000 OA
ATOM     27  H   UNL     1      49.222   1.787   5.917  0.00  0.00    +0.000 HD
ATOM     28  H   UNL     1      48.891   3.213   6.835  0.00  0.00    +0.000 HD
ENDBRANCH  18  25
ENDBRANCH  16  21
ENDBRANCH   1  16
TORSDOF 5
ENDMDL
MODEL 4
REMARK VINA RESULT:    -8.091      2.609      4.565
REMARK INTER + INTRA:         -11.591
REMARK INTER:                 -10.519
REMARK INTRA:                  -1.072
REMARK UNBOUND:                -1.136
REMARK  Name = 
REMARK  5 active torsions:
REMARK  status: ('A' for Active; 'I' for Inactive)
REMARK    1  A    between atoms: C_2  and  C_4
REMARK    2  A    between atoms: C_7  and  N_8
REMARK    3  A    between atoms: N_8  and  C_9
REMARK    4  A    between atoms: C_9  and  C_10
REMARK    5  A    between atoms: C_14  and  C_15
REMARK                            x       y       z     vdW  Elec       q    Type
REMARK                         _______ _______ _______ _____ _____    ______ ____
ROOT
ATOM      1  C   UNL     1      44.285   4.081  11.754  0.00  0.00    +0.000 C 
ATOM      2  C   UNL     1      44.512   2.826  12.590  0.00  0.00    +0.000 C 
ATOM      3  C   UNL     1      43.324   3.678  12.869  0.00  0.00    +0.000 C 
ENDROOT
BRANCH   1   4
ATOM      4  C   UNL     1      45.076   5.354  12.054  0.00  0.00    +0.000 A 
ATOM      5  C   UNL     1      46.427   5.297  12.432  0.00  0.00    +0.000 A 
ATOM      6  C   UNL     1      47.198   6.454  12.542  0.00  0.00    +0.000 A 
ATOM      7  C   UNL     1      46.627   7.698  12.271  0.00  0.00    +0.000 A 
ATOM      8  C   UNL     1      45.274   7.812  11.916  0.00  0.00    +0.000 A 
ATOM      9  C   UNL     1      44.516   6.629  11.859  0.00  0.00    +0.000 A 
BRANCH   8  10
ATOM     10  C   UNL     1      44.681   9.098  11.504  0.00  0.00    +0.000 A 
ATOM     11  C   UNL     1      45.352  10.311  11.710  0.00  0.00    +0.000 A 
ATOM     12  C   UNL     1      44.822  11.508  11.231  0.00  0.00    +0.000 A 
ATOM     13  C   UNL     1      43.621  11.465  10.548  0.00  0.00    +0.000 A 
ATOM     14  N   UNL     1      42.927  10.331  10.329  0.00  0.00    +0.000 NA
ATOM     15  C   UNL     1      43.469   9.185  10.814  0.00  0.00    +0.000 A 
ENDBRANCH   8  10
ENDBRANCH   1   4
BRANCH   1  16
ATOM     16  N   UNL     1      43.890   3.930  10.344  0.00  0.00    +0.000 N 
ATOM     17  H   UNL     1      42.907   3.793  10.131  0.00  0.00    +0.000 HD
BRANCH  16  21
ATOM     18  C   UNL     1      46.588   2.632   7.343  0.00  0.00    +0.000 A 
ATOM     19  C   UNL     1      46.087   1.721   8.269  0.00  0.00    +0.000 A 
ATOM     20  C   UNL     1      45.206   2.148   9.263  0.00  0.00    +0.000 A 
ATOM     21  C   UNL     1      44.766   3.476   9.337  0.00  0.00    +0.000 A 
ATOM     22  C   UNL     1      45.317   4.393   8.432  0.00  0.00    +0.000 A 
ATOM     23  C   UNL     1      46.225   3.978   7.445  0.00  0.00    +0.000 A 
BRANCH  18  25
ATOM     24  N   UNL     1      47.768   3.097   5.266  0.00  0.00    +0.000 N 
ATOM     25  C   UNL     1      47.539   2.209   6.288  0.00  0.00    +0.000 C 
ATOM     26  O   UNL     1      48.112   1.131   6.330  0.00  0.00    +0.000 OA
ATOM     27  H   UNL     1      48.466   2.829   4.585  0.00  0.00    +0.000 HD
ATOM     28  H   UNL     1      47.512   4.069   5.319  0.00  0.00    +0.000 HD
ENDBRANCH  18  25
ENDBRANCH  16  21
ENDBRANCH   1  16
TORSDOF 5
ENDMDL
MODEL 5
REMARK VINA RESULT:    -6.957      2.987      7.499
REMARK INTER + INTRA:         -10.127
REMARK INTER:                  -9.843
REMARK INTRA:                  -0.284
REMARK UNBOUND:                -1.136
REMARK  Name = 
REMARK  5 active torsions:
REMARK  status: ('A' for Active; 'I' for Inactive)
REMARK    1  A    between atoms: C_2  and  C_4
REMARK    2  A    between atoms: C_7  and  N_8
REMARK    3  A    between atoms: N_8  and  C_9
REMARK    4  A    between atoms: C_9  and  C_10
REMARK    5  A    between atoms: C_14  and  C_15
REMARK                            x       y       z     vdW  Elec       q    Type
REMARK                         _______ _______ _______ _____ _____    ______ ____
ROOT
ATOM      1  C   UNL     1      46.305   7.320  12.261  0.00  0.00    +0.000 C 
ATOM      2  C   UNL     1      46.303   8.762  11.766  0.00  0.00    +0.000 C 
ATOM      3  C   UNL     1      45.603   8.430  13.037  0.00  0.00    +0.000 C 
ENDROOT
BRANCH   1   4
ATOM      4  C   UNL     1      45.348   6.299  11.645  0.00  0.00    +0.000 A 
ATOM      5  C   UNL     1      43.959   6.409  11.819  0.00  0.00    +0.000 A 
ATOM      6  C   UNL     1      43.075   5.585  11.124  0.00  0.00    +0.000 A 
ATOM      7  C   UNL     1      43.568   4.629  10.235  0.00  0.00    +0.000 A 
ATOM      8  C   UNL     1      44.948   4.460  10.045  0.00  0.00    +0.000 A 
ATOM      9  C   UNL     1      45.811   5.279  10.795  0.00  0.00    +0.000 A 
BRANCH   8  10
ATOM     10  C   UNL     1      45.489   3.547   9.020  0.00  0.00    +0.000 A 
ATOM     11  C   UNL     1      46.109   4.036   7.862  0.00  0.00    +0.000 A 
ATOM     12  C   UNL     1      46.699   3.164   6.949  0.00  0.00    +0.000 A 
ATOM     13  C   UNL     1      46.658   1.808   7.218  0.00  0.00    +0.000 A 
ATOM     14  N   UNL     1      46.069   1.281   8.310  0.00  0.00    +0.000 NA
ATOM     15  C   UNL     1      45.499   2.159   9.175  0.00  0.00    +0.000 A 
ENDBRANCH   8  10
ENDBRANCH   1   4
BRANCH   1  16
ATOM     16  N   UNL     1      47.564   6.746  12.763  0.00  0.00    +0.000 N 
ATOM     17  H   UNL     1      48.274   6.477  12.088  0.00  0.00    +0.000 HD
BRANCH  16  21
ATOM     18  C   UNL     1      47.943   4.714  16.464  0.00  0.00    +0.000 A 
ATOM     19  C   UNL     1      48.602   5.924  16.264  0.00  0.00    +0.000 A 
ATOM     20  C   UNL     1      48.486   6.589  15.043  0.00  0.00    +0.000 A 
ATOM     21  C   UNL     1      47.680   6.096  14.009  0.00  0.00    +0.000 A 
ATOM     22  C   UNL     1      47.063   4.854  14.203  0.00  0.00    +0.000 A 
ATOM     23  C   UNL     1      47.196   4.163  15.419  0.00  0.00    +0.000 A 
BRANCH  18  25
ATOM     24  N   UNL     1      47.218   2.911  17.929  0.00  0.00    +0.000 N 
ATOM     25  C   UNL     1      48.063   3.978  17.744  0.00  0.00    +0.000 C 
ATOM     26  O   UNL     1      48.888   4.285  18.591  0.00  0.00    +0.000 OA
ATOM     27  H   UNL     1      47.349   2.374  18.776  0.00  0.00    +0.000 HD
ATOM     28  H   UNL     1      46.704   2.484  17.176  0.00  0.00    +0.000 HD
ENDBRANCH  18  25
ENDBRANCH  16  21
ENDBRANCH   1  16
TORSDOF 5
ENDMDL
MODEL 6
REMARK VINA RESULT:    -6.796      1.440      2.210
REMARK INTER + INTRA:          -9.918
REMARK INTER:                  -9.797
REMARK INTRA:                  -0.121
REMARK UNBOUND:                -1.136
REMARK  Name = 
REMARK  5 active torsions:
REMARK  status: ('A' for Active; 'I' for Inactive)
REMARK    1  A    between atoms: C_2  and  C_4
REMARK    2  A    between atoms: C_7  and  N_8
REMARK    3  A    between atoms: N_8  and  C_9
REMARK    4  A    between atoms: C_9  and  C_10
REMARK    5  A    between atoms: C_14  and  C_15
REMARK                            x       y       z     vdW  Elec       q    Type
REMARK                         _______ _______ _______ _____ _____    ______ ____
ROOT
ATOM      1  C   UNL     1      44.494   5.806  11.160  0.00  0.00    +0.000 C 
ATOM      2  C   UNL     1      43.668   7.046  11.481  0.00  0.00    +0.000 C 
ATOM      3  C   UNL     1      44.973   7.205  10.782  0.00  0.00    +0.000 C 
ENDROOT
BRANCH   1   4
ATOM      4  C   UNL     1      45.334   5.143  12.252  0.00  0.00    +0.000 A 
ATOM      5  C   UNL     1      45.334   3.749  12.422  0.00  0.00    +0.000 A 
ATOM      6  C   UNL     1      46.221   3.127  13.299  0.00  0.00    +0.000 A 
ATOM      7  C   UNL     1      47.133   3.893  14.026  0.00  0.00    +0.000 A 
ATOM      8  C   UNL     1      47.156   5.292  13.912  0.00  0.00    +0.000 A 
ATOM      9  C   UNL     1      46.217   5.889  13.052  0.00  0.00    +0.000 A 
BRANCH   8  10
ATOM     10  C   UNL     1      48.190   6.112  14.571  0.00  0.00    +0.000 A 
ATOM     11  C   UNL     1      48.560   5.888  15.904  0.00  0.00    +0.000 A 
ATOM     12  C   UNL     1      49.603   6.607  16.485  0.00  0.00    +0.000 A 
ATOM     13  C   UNL     1      50.263   7.543  15.710  0.00  0.00    +0.000 A 
ATOM     14  N   UNL     1      49.946   7.807  14.427  0.00  0.00    +0.000 NA
ATOM     15  C   UNL     1      48.921   7.093  13.895  0.00  0.00    +0.000 A 
ENDBRANCH   8  10
ENDBRANCH   1   4
BRANCH   1  16
ATOM     16  N   UNL     1      44.010   4.882  10.121  0.00  0.00    +0.000 N 
ATOM     17  H   UNL     1      43.107   4.438  10.254  0.00  0.00    +0.000 HD
BRANCH  16  21
ATOM     18  C   UNL     1      46.652   2.862   7.492  0.00  0.00    +0.000 A 
ATOM     19  C   UNL     1      45.748   2.136   8.263  0.00  0.00    +0.000 A 
ATOM     20  C   UNL     1      44.884   2.799   9.135  0.00  0.00    +0.000 A 
ATOM     21  C   UNL     1      44.863   4.196   9.233  0.00  0.00    +0.000 A 
ATOM     22  C   UNL     1      45.812   4.912   8.491  0.00  0.00    +0.000 A 
ATOM     23  C   UNL     1      46.704   4.252   7.630  0.00  0.00    +0.000 A 
BRANCH  18  25
ATOM     24  N   UNL     1      47.910   2.842   5.409  0.00  0.00    +0.000 N 
ATOM     25  C   UNL     1      47.592   2.183   6.571  0.00  0.00    +0.000 C 
ATOM     26  O   UNL     1      48.084   1.095   6.836  0.00  0.00    +0.000 OA
ATOM     27  H   UNL     1      48.602   2.403   4.817  0.00  0.00    +0.000 HD
ATOM     28  H   UNL     1      47.724   3.822   5.269  0.00  0.00    +0.000 HD
ENDBRANCH  18  25
ENDBRANCH  16  21
ENDBRANCH   1  16
TORSDOF 5
ENDMDL
MODEL 7
REMARK VINA RESULT:    -6.750      2.922      7.524
REMARK INTER + INTRA:          -9.858
REMARK INTER:                  -9.486
REMARK INTRA:                  -0.372
REMARK UNBOUND:                -1.136
REMARK  Name = 
REMARK  5 active torsions:
REMARK  status: ('A' for Active; 'I' for Inactive)
REMARK    1  A    between atoms: C_2  and  C_4
REMARK    2  A    between atoms: C_7  and  N_8
REMARK    3  A    between atoms: N_8  and  C_9
REMARK    4  A    between atoms: C_9  and  C_10
REMARK    5  A    between atoms: C_14  and  C_15
REMARK                            x       y       z     vdW  Elec       q    Type
REMARK                         _______ _______ _______ _____ _____    ______ ____
ROOT
ATOM      1  C   UNL     1      48.689   7.816  12.705  0.00  0.00    +0.000 C 
ATOM      2  C   UNL     1      49.779   7.352  11.745  0.00  0.00    +0.000 C 
ATOM      3  C   UNL     1      49.432   8.798  11.805  0.00  0.00    +0.000 C 
ENDROOT
BRANCH   1   4
ATOM      4  C   UNL     1      47.216   7.636  12.335  0.00  0.00    +0.000 A 
ATOM      5  C   UNL     1      46.290   8.674  12.516  0.00  0.00    +0.000 A 
ATOM      6  C   UNL     1      44.988   8.577  12.027  0.00  0.00    +0.000 A 
ATOM      7  C   UNL     1      44.587   7.431  11.339  0.00  0.00    +0.000 A 
ATOM      8  C   UNL     1      45.466   6.353  11.154  0.00  0.00    +0.000 A 
ATOM      9  C   UNL     1      46.758   6.467  11.700  0.00  0.00    +0.000 A 
BRANCH   8  10
ATOM     10  C   UNL     1      45.109   5.187  10.324  0.00  0.00    +0.000 A 
ATOM     11  C   UNL     1      45.669   4.996   9.054  0.00  0.00    +0.000 A 
ATOM     12  C   UNL     1      45.394   3.843   8.320  0.00  0.00    +0.000 A 
ATOM     13  C   UNL     1      44.559   2.895   8.881  0.00  0.00    +0.000 A 
ATOM     14  N   UNL     1      43.985   3.028  10.093  0.00  0.00    +0.000 NA
ATOM     15  C   UNL     1      44.269   4.166  10.777  0.00  0.00    +0.000 A 
ENDBRANCH   8  10
ENDBRANCH   1   4
BRANCH   1  16
ATOM     16  N   UNL     1      48.959   7.784  14.151  0.00  0.00    +0.000 N 
ATOM     17  H   UNL     1      49.720   8.352  14.511  0.00  0.00    +0.000 HD
BRANCH  16  21
ATOM     18  C   UNL     1      47.844   4.603  16.722  0.00  0.00    +0.000 A 
ATOM     19  C   UNL     1      47.417   4.608  15.396  0.00  0.00    +0.000 A 
ATOM     20  C   UNL     1      47.776   5.659  14.552  0.00  0.00    +0.000 A 
ATOM     21  C   UNL     1      48.601   6.705  14.985  0.00  0.00    +0.000 A 
ATOM     22  C   UNL     1      48.981   6.716  16.333  0.00  0.00    +0.000 A 
ATOM     23  C   UNL     1      48.602   5.677  17.199  0.00  0.00    +0.000 A 
BRANCH  18  25
ATOM     24  N   UNL     1      48.284   3.293  18.725  0.00  0.00    +0.000 N 
ATOM     25  C   UNL     1      47.463   3.510  17.646  0.00  0.00    +0.000 C 
ATOM     26  O   UNL     1      46.454   2.841  17.474  0.00  0.00    +0.000 OA
ATOM     27  H   UNL     1      47.984   2.589  19.385  0.00  0.00    +0.000 HD
ATOM     28  H   UNL     1      48.973   3.961  19.030  0.00  0.00    +0.000 HD
ENDBRANCH  18  25
ENDBRANCH  16  21
ENDBRANCH   1  16
TORSDOF 5
ENDMDL
MODEL 8
REMARK VINA RESULT:    -6.608      2.774      4.569
REMARK INTER + INTRA:          -9.675
REMARK INTER:                  -8.956
REMARK INTRA:                  -0.719
REMARK UNBOUND:                -1.136
REMARK  Name = 
REMARK  5 active torsions:
REMARK  status: ('A' for Active; 'I' for Inactive)
REMARK    1  A    between atoms: C_2  and  C_4
REMARK    2  A    between atoms: C_7  and  N_8
REMARK    3  A    between atoms: N_8  and  C_9
REMARK    4  A    between atoms: C_9  and  C_10
REMARK    5  A    between atoms: C_14  and  C_15
REMARK                            x       y       z     vdW  Elec       q    Type
REMARK                         _______ _______ _______ _____ _____    ______ ____
ROOT
ATOM      1  C   UNL     1      47.895   8.118  12.573  0.00  0.00    +0.000 C 
ATOM      2  C   UNL     1      48.612   9.111  11.665  0.00  0.00    +0.000 C 
ATOM      3  C   UNL     1      48.865   7.655  11.491  0.00  0.00    +0.000 C 
ENDROOT
BRANCH   1   4
ATOM      4  C   UNL     1      48.401   7.880  13.996  0.00  0.00    +0.000 A 
ATOM      5  C   UNL     1      48.833   8.945  14.802  0.00  0.00    +0.000 A 
ATOM      6  C   UNL     1      49.134   8.758  16.150  0.00  0.00    +0.000 A 
ATOM      7  C   UNL     1      49.005   7.492  16.722  0.00  0.00    +0.000 A 
ATOM      8  C   UNL     1      48.603   6.388  15.955  0.00  0.00    +0.000 A 
ATOM      9  C   UNL     1      48.350   6.605  14.588  0.00  0.00    +0.000 A 
BRANCH   8  10
ATOM     10  C   UNL     1      48.338   5.070  16.562  0.00  0.00    +0.000 A 
ATOM     11  C   UNL     1      49.271   4.454  17.406  0.00  0.00    +0.000 A 
ATOM     12  C   UNL     1      48.969   3.254  18.046  0.00  0.00    +0.000 A 
ATOM     13  C   UNL     1      47.725   2.691  17.828  0.00  0.00    +0.000 A 
ATOM     14  N   UNL     1      46.792   3.232  17.021  0.00  0.00    +0.000 NA
ATOM     15  C   UNL     1      47.122   4.398  16.408  0.00  0.00    +0.000 A 
ENDBRANCH   8  10
ENDBRANCH   1   4
BRANCH   1  16
ATOM     16  N   UNL     1      46.446   7.923  12.404  0.00  0.00    +0.000 N 
ATOM     17  H   UNL     1      45.815   8.554  12.888  0.00  0.00    +0.000 HD
BRANCH  16  21
ATOM     18  C   UNL     1      44.615   4.240  11.377  0.00  0.00    +0.000 A 
ATOM     19  C   UNL     1      45.191   5.030  10.386  0.00  0.00    +0.000 A 
ATOM     20  C   UNL     1      45.786   6.247  10.722  0.00  0.00    +0.000 A 
ATOM     21  C   UNL     1      45.865   6.689  12.049  0.00  0.00    +0.000 A 
ATOM     22  C   UNL     1      45.237   5.910  13.029  0.00  0.00    +0.000 A 
ATOM     23  C   UNL     1      44.611   4.697  12.698  0.00  0.00    +0.000 A 
BRANCH  18  25
ATOM     24  N   UNL     1      44.503   2.226  10.015  0.00  0.00    +0.000 N 
ATOM     25  C   UNL     1      43.961   2.952  11.047  0.00  0.00    +0.000 C 
ATOM     26  O   UNL     1      42.998   2.538  11.675  0.00  0.00    +0.000 OA
ATOM     27  H   UNL     1      44.093   1.319   9.838  0.00  0.00    +0.000 HD
ATOM     28  H   UNL     1      45.420   2.408   9.642  0.00  0.00    +0.000 HD
ENDBRANCH  18  25
ENDBRANCH  16  21
ENDBRANCH   1  16
TORSDOF 5
ENDMDL
MODEL 9
REMARK VINA RESULT:    -6.494      3.230      7.397
REMARK INTER + INTRA:          -9.528
REMARK INTER:                  -9.164
REMARK INTRA:                  -0.365
REMARK UNBOUND:                -1.136
REMARK  Name = 
REMARK  5 active torsions:
REMARK  status: ('A' for Active; 'I' for Inactive)
REMARK    1  A    between atoms: C_2  and  C_4
REMARK    2  A    between atoms: C_7  and  N_8
REMARK    3  A    between atoms: N_8  and  C_9
REMARK    4  A    between atoms: C_9  and  C_10
REMARK    5  A    between atoms: C_14  and  C_15
REMARK                            x       y       z     vdW  Elec       q    Type
REMARK                         _______ _______ _______ _____ _____    ______ ____
ROOT
ATOM      1  C   UNL     1      43.749   5.489  11.361  0.00  0.00    +0.000 C 
ATOM      2  C   UNL     1      42.309   5.883  11.670  0.00  0.00    +0.000 C 
ATOM      3  C   UNL     1      43.219   5.519  12.791  0.00  0.00    +0.000 C 
ENDROOT
BRANCH   1   4
ATOM      4  C   UNL     1      44.063   4.082  10.850  0.00  0.00    +0.000 A 
ATOM      5  C   UNL     1      43.354   2.964  11.318  0.00  0.00    +0.000 A 
ATOM      6  C   UNL     1      43.517   1.708  10.737  0.00  0.00    +0.000 A 
ATOM      7  C   UNL     1      44.398   1.546   9.667  0.00  0.00    +0.000 A 
ATOM      8  C   UNL     1      45.151   2.624   9.179  0.00  0.00    +0.000 A 
ATOM      9  C   UNL     1      44.994   3.868   9.818  0.00  0.00    +0.000 A 
BRANCH   8  10
ATOM     10  C   UNL     1      45.992   2.508   7.972  0.00  0.00    +0.000 A 
ATOM     11  C   UNL     1      46.091   3.557   7.048  0.00  0.00    +0.000 A 
ATOM     12  C   UNL     1      46.961   3.469   5.963  0.00  0.00    +0.000 A 
ATOM     13  C   UNL     1      47.723   2.323   5.825  0.00  0.00    +0.000 A 
ATOM     14  N   UNL     1      47.662   1.280   6.676  0.00  0.00    +0.000 NA
ATOM     15  C   UNL     1      46.800   1.396   7.718  0.00  0.00    +0.000 A 
ENDBRANCH   8  10
ENDBRANCH   1   4
BRANCH   1  16
ATOM     16  N   UNL     1      44.683   6.526  10.894  0.00  0.00    +0.000 N 
ATOM     17  H   UNL     1      44.849   6.611   9.896  0.00  0.00    +0.000 HD
BRANCH  16  21
ATOM     18  C   UNL     1      47.704   8.162  13.378  0.00  0.00    +0.000 A 
ATOM     19  C   UNL     1      47.865   6.891  12.833  0.00  0.00    +0.000 A 
ATOM     20  C   UNL     1      46.867   6.348  12.023  0.00  0.00    +0.000 A 
ATOM     21  C   UNL     1      45.709   7.066  11.697  0.00  0.00    +0.000 A 
ATOM     22  C   UNL     1      45.536   8.322  12.292  0.00  0.00    +0.000 A 
ATOM     23  C   UNL     1      46.521   8.866  13.131  0.00  0.00    +0.000 A 
BRANCH  18  25
ATOM     24  N   UNL     1      48.326   9.729  15.133  0.00  0.00    +0.000 N 
ATOM     25  C   UNL     1      48.739   8.757  14.256  0.00  0.00    +0.000 C 
ATOM     26  O   UNL     1      49.903   8.388  14.222  0.00  0.00    +0.000 OA
ATOM     27  H   UNL     1      49.024  10.084  15.774  0.00  0.00    +0.000 HD
ATOM     28  H   UNL     1      47.358   9.885  15.360  0.00  0.00    +0.000 HD
ENDBRANCH  18  25
ENDBRANCH  16  21
ENDBRANCH   1  16
TORSDOF 5
ENDMDL
