MODEL 1
REMARK VINA RESULT:    -9.311      0.000      0.000
REMARK INTER + INTRA:         -13.183
REMARK INTER:                 -12.577
REMARK INTRA:                  -0.606
REMARK UNBOUND:                -0.606
REMARK  Name = 
REMARK  6 active torsions:
REMARK  status: ('A' for Active; 'I' for Inactive)
REMARK    1  A    between atoms: C_2  and  C_3
REMARK    2  A    between atoms: C_6  and  C_7
REMARK    3  A    between atoms: C_7  and  N_8
REMARK    4  A    between atoms: C_11  and  C_12
REMARK    5  A    between atoms: C_12  and  N_13
REMARK    6  A    between atoms: C_14  and  C_16
REMARK                            x       y       z     vdW  Elec       q    Type
REMARK                         _______ _______ _______ _____ _____    ______ ____
ROOT
ATOM      1  C   UNL     1      46.349   7.300  12.066  0.00  0.00    +0.000 C 
ENDROOT
BRANCH   1   5
ATOM      2  N   UNL     1      44.101   4.785  10.919  0.00  0.00    +0.000 N 
ATOM      3  C   UNL     1      43.143   5.700  11.250  0.00  0.00    +0.000 A 
ATOM      4  C   UNL     1      43.817   6.806  11.704  0.00  0.00    +0.000 A 
ATOM      5  C   UNL     1      45.189   6.455  11.650  0.00  0.00    +0.000 A 
ATOM      6  N   UNL     1      45.358   5.210  11.177  0.00  0.00    +0.000 NA
BRANCH   2   7
ATOM      7  C   UNL     1      43.872   3.447  10.389  0.00  0.00    +0.000 C 
BRANCH   7  11
ATOM      8  C   UNL     1      46.682   2.436   7.249  0.00  0.00    +0.000 A 
ATOM      9  C   UNL     1      46.273   3.759   7.423  0.00  0.00    +0.000 A 
ATOM     10  C   UNL     1      45.364   4.088   8.438  0.00  0.00    +0.000 A 
ATOM     11  C   UNL     1      44.848   3.094   9.288  0.00  0.00    +0.000 A 
ATOM     12  C   UNL     1      45.272   1.770   9.111  0.00  0.00    +0.000 A 
ATOM     13  C   UNL     1      46.180   1.452   8.101  0.00  0.00    +0.000 A 
ATOM     14  F   UNL     1      46.564   0.174   7.966  0.00  0.00    +0.000 F 
BRANCH   8  16
ATOM     15  N   UNL     1      48.377   1.801   5.397  0.00  0.00    +0.000 NA
ATOM     16  C   UNL     1      47.605   2.091   6.216  0.00  0.00    +0.000 C 
ENDBRANCH   8  16
ENDBRANCH   7  11
ENDBRANCH   2   7
ENDBRANCH   1   5
BRANCH   1  17
ATOM     17  N   UNL     1      46.750   6.965  13.413  0.00  0.00    +0.000 N 
ATOM     18  C   UNL     1      48.002   6.500  13.704  0.00  0.00    +0.000 C 
ATOM     19  O   UNL     1      48.851   6.312  12.835  0.00  0.00    +0.000 OA
ATOM     20  H   UNL     1      46.073   7.131  14.149  0.00  0.00    +0.000 HD
BRANCH  18  21
ATOM     21  C   UNL     1      48.291   6.225  15.115  0.00  0.00    +0.000 A 
ATOM     22  C   UNL     1      48.831   7.222  15.915  0.00  0.00    +0.000 A 
ATOM     23  S   UNL     1      48.993   6.769  17.551  0.00  0.00    +0.000 S 
ATOM     24  C   UNL     1      48.295   5.246  17.252  0.00  0.00    +0.000 A 
ATOM     25  N   UNL     1      48.030   4.386  18.273  0.00  0.00    +0.000 NA
ATOM     26  C   UNL     1      47.508   3.265  17.902  0.00  0.00    +0.000 A 
ATOM     27  N   UNL     1      47.261   2.912  16.600  0.00  0.00    +0.000 N 
ATOM     28  C   UNL     1      47.529   3.740  15.535  0.00  0.00    +0.000 A 
ATOM     29  O   UNL     1      47.363   3.367  14.378  0.00  0.00    +0.000 OA
ATOM     30  C   UNL     1      48.048   5.043  15.906  0.00  0.00    +0.000 A 
ATOM     31  H   UNL     1      46.902   1.996  16.373  0.00  0.00    +0.000 HD
ENDBRANCH  18  21
ENDBRANCH   1  17
TORSDOF 6
ENDMDL
MODEL 2
REMARK VINA RESULT:    -8.953      1.913      2.921
REMARK INTER + INTRA:         -12.699
REMARK INTER:                 -11.792
REMARK INTRA:                  -0.907
REMARK UNBOUND:                -0.606
REMARK  Name = 
REMARK  6 active torsions:
REMARK  status: ('A' for Active; 'I' for Inactive)
REMARK    1  A    between atoms: C_2  and  C_3
REMARK    2  A    between atoms: C_6  and  C_7
REMARK    3  A    between atoms: C_7  and  N_8
REMARK    4  A    between atoms: C_11  and  C_12
REMARK    5  A    between atoms: C_12  and  N_13
REMARK    6  A    between atoms: C_14  and  C_16
REMARK                            x       y       z     vdW  Elec       q    Type
REMARK                         _______ _______ _______ _____ _____    ______ ____
ROOT
ATOM      1  C   UNL     1      46.897   3.764  14.206  0.00  0.00    +0.000 C 
ENDROOT
BRANCH   1   5
ATOM      2  N   UNL     1      44.613   4.398  11.545  0.00  0.00    +0.000 N 
ATOM      3  C   UNL     1      44.440   5.596  12.176  0.00  0.00    +0.000 A 
ATOM      4  C   UNL     1      45.285   5.579  13.259  0.00  0.00    +0.000 A 
ATOM      5  C   UNL     1      45.906   4.306  13.226  0.00  0.00    +0.000 A 
ATOM      6  N   UNL     1      45.483   3.580  12.178  0.00  0.00    +0.000 NA
BRANCH   2   7
ATOM      7  C   UNL     1      43.927   3.950  10.339  0.00  0.00    +0.000 C 
BRANCH   7  11
ATOM      8  C   UNL     1      46.706   2.558   7.320  0.00  0.00    +0.000 A 
ATOM      9  C   UNL     1      46.464   3.925   7.471  0.00  0.00    +0.000 A 
ATOM     10  C   UNL     1      45.565   4.376   8.448  0.00  0.00    +0.000 A 
ATOM     11  C   UNL     1      44.893   3.465   9.281  0.00  0.00    +0.000 A 
ATOM     12  C   UNL     1      45.150   2.096   9.126  0.00  0.00    +0.000 A 
ATOM     13  C   UNL     1      46.049   1.655   8.155  0.00  0.00    +0.000 A 
ATOM     14  F   UNL     1      46.270   0.337   8.041  0.00  0.00    +0.000 F 
BRANCH   8  16
ATOM     15  N   UNL     1      48.338   1.713   5.495  0.00  0.00    +0.000 NA
ATOM     16  C   UNL     1      47.618   2.089   6.326  0.00  0.00    +0.000 C 
ENDBRANCH   8  16
ENDBRANCH   7  11
ENDBRANCH   2   7
ENDBRANCH   1   5
BRANCH   1  17
ATOM     17  N   UNL     1      47.127   4.724  15.261  0.00  0.00    +0.000 N 
ATOM     18  C   UNL     1      47.557   4.349  16.503  0.00  0.00    +0.000 C 
ATOM     19  O   UNL     1      47.745   3.173  16.805  0.00  0.00    +0.000 OA
ATOM     20  H   UNL     1      46.998   5.702  15.028  0.00  0.00    +0.000 HD
BRANCH  18  21
ATOM     21  C   UNL     1      47.781   5.424  17.475  0.00  0.00    +0.000 A 
ATOM     22  C   UNL     1      47.087   5.422  18.677  0.00  0.00    +0.000 A 
ATOM     23  S   UNL     1      47.553   6.676  19.734  0.00  0.00    +0.000 S 
ATOM     24  C   UNL     1      48.737   7.227  18.642  0.00  0.00    +0.000 A 
ATOM     25  N   UNL     1      49.593   8.227  18.984  0.00  0.00    +0.000 NA
ATOM     26  C   UNL     1      50.433   8.550  18.058  0.00  0.00    +0.000 A 
ATOM     27  N   UNL     1      50.470   7.987  16.808  0.00  0.00    +0.000 N 
ATOM     28  C   UNL     1      49.613   6.987  16.410  0.00  0.00    +0.000 A 
ATOM     29  O   UNL     1      49.626   6.555  15.262  0.00  0.00    +0.000 OA
ATOM     30  C   UNL     1      48.698   6.538  17.443  0.00  0.00    +0.000 A 
ATOM     31  H   UNL     1      51.116   8.324  16.110  0.00  0.00    +0.000 HD
ENDBRANCH  18  21
ENDBRANCH   1  17
TORSDOF 6
ENDMDL
MODEL 3
REMARK VINA RESULT:    -8.817      1.957      3.177
REMARK INTER + INTRA:         -12.515
REMARK INTER:                 -11.491
REMARK INTRA:                  -1.024
REMARK UNBOUND:                -0.606
REMARK  Name = 
REMARK  6 active torsions:
REMARK  status: ('A' for Active; 'I' for Inactive)
REMARK    1  A    between atoms: C_2  and  C_3
REMARK    2  A    between atoms: C_6  and  C_7
REMARK    3  A    between atoms: C_7  and  N_8
REMARK    4  A    between atoms: C_11  and  C_12
REMARK    5  A    between atoms: C_12  and  N_13
REMARK    6  A    between atoms: C_14  and  C_16
REMARK                            x       y       z     vdW  Elec       q    Type
REMARK                         _______ _______ _______ _____ _____    ______ ____
ROOT
ATOM      1  C   UNL     1      46.493   4.391  14.429  0.00  0.00    +0.000 C 
ENDROOT
BRANCH   1   5
ATOM      2  N   UNL     1      44.505   4.592  11.478  0.00  0.00    +0.000 N 
ATOM      3  C   UNL     1      44.466   5.925  11.774  0.00  0.00    +0.000 A 
ATOM      4  C   UNL     1      45.227   6.083  12.906  0.00  0.00    +0.000 A 
ATOM      5  C   UNL     1      45.658   4.779  13.251  0.00  0.00    +0.000 A 
ATOM      6  N   UNL     1      45.205   3.865  12.378  0.00  0.00    +0.000 NA
BRANCH   2   7
ATOM      7  C   UNL     1      43.842   3.936  10.358  0.00  0.00    +0.000 C 
BRANCH   7  11
ATOM      8  C   UNL     1      46.680   2.503   7.413  0.00  0.00    +0.000 A 
ATOM      9  C   UNL     1      46.442   3.872   7.547  0.00  0.00    +0.000 A 
ATOM     10  C   UNL     1      45.524   4.337   8.500  0.00  0.00    +0.000 A 
ATOM     11  C   UNL     1      44.828   3.437   9.325  0.00  0.00    +0.000 A 
ATOM     12  C   UNL     1      45.082   2.065   9.188  0.00  0.00    +0.000 A 
ATOM     13  C   UNL     1      45.999   1.611   8.241  0.00  0.00    +0.000 A 
ATOM     14  F   UNL     1      46.216   0.291   8.144  0.00  0.00    +0.000 F 
BRANCH   8  16
ATOM     15  N   UNL     1      48.387   1.651   5.662  0.00  0.00    +0.000 NA
ATOM     16  C   UNL     1      47.610   2.020   6.444  0.00  0.00    +0.000 C 
ENDBRANCH   8  16
ENDBRANCH   7  11
ENDBRANCH   2   7
ENDBRANCH   1   5
BRANCH   1  17
ATOM     17  N   UNL     1      47.308   5.507  14.849  0.00  0.00    +0.000 N 
ATOM     18  C   UNL     1      48.243   5.392  15.839  0.00  0.00    +0.000 C 
ATOM     19  O   UNL     1      48.426   4.342  16.450  0.00  0.00    +0.000 OA
ATOM     20  H   UNL     1      47.189   6.379  14.345  0.00  0.00    +0.000 HD
BRANCH  18  21
ATOM     21  C   UNL     1      49.024   6.593  16.150  0.00  0.00    +0.000 A 
ATOM     22  C   UNL     1      49.129   7.027  17.464  0.00  0.00    +0.000 A 
ATOM     23  S   UNL     1      50.166   8.365  17.659  0.00  0.00    +0.000 S 
ATOM     24  C   UNL     1      50.553   8.374  16.002  0.00  0.00    +0.000 A 
ATOM     25  N   UNL     1      51.498   9.218  15.508  0.00  0.00    +0.000 NA
ATOM     26  C   UNL     1      51.684   9.123  14.234  0.00  0.00    +0.000 A 
ATOM     27  N   UNL     1      50.984   8.285  13.404  0.00  0.00    +0.000 N 
ATOM     28  C   UNL     1      50.008   7.427  13.855  0.00  0.00    +0.000 A 
ATOM     29  O   UNL     1      49.352   6.741  13.077  0.00  0.00    +0.000 OA
ATOM     30  C   UNL     1      49.814   7.444  15.292  0.00  0.00    +0.000 A 
ATOM     31  H   UNL     1      51.140   8.299  12.407  0.00  0.00    +0.000 HD
ENDBRANCH  18  21
ENDBRANCH   1  17
TORSDOF 6
ENDMDL
MODEL 4
REMARK VINA RESULT:    -8.769      1.676      2.250
REMARK INTER + INTRA:         -12.450
REMARK INTER:                 -11.784
REMARK INTRA:                  -0.666
REMARK UNBOUND:                -0.606
REMARK  Name = 
REMARK  6 active torsions:
REMARK  status: ('A' for Active; 'I' for Inactive)
REMARK    1  A    between atoms: C_2  and  C_3
REMARK    2  A    between atoms: C_6  and  C_7
REMARK    3  A    between atoms: C_7  and  N_8
REMARK    4  A    between atoms: C_11  and  C_12
REMARK    5  A    between atoms: C_12  and  N_13
REMARK    6  A    between atoms: C_14  and  C_16
REMARK                            x       y       z     vdW  Elec       q    Type
REMARK                         _______ _______ _______ _____ _____    ______ ____
ROOT
ATOM      1  C   UNL     1      47.060   6.604  13.028  0.00  0.00    +0.000 C 
ENDROOT
BRANCH   1   5
ATOM      2  N   UNL     1      44.465   5.104  11.099  0.00  0.00    +0.000 N 
ATOM      3  C   UNL     1      43.821   6.289  11.318  0.00  0.00    +0.000 A 
ATOM      4  C   UNL     1      44.690   7.063  12.047  0.00  0.00    +0.000 A 
ATOM      5  C   UNL     1      45.828   6.246  12.258  0.00  0.00    +0.000 A 
ATOM      6  N   UNL     1      45.682   5.041  11.684  0.00  0.00    +0.000 NA
BRANCH   2   7
ATOM      7  C   UNL     1      43.941   3.958  10.368  0.00  0.00    +0.000 C 
BRANCH   7  11
ATOM      8  C   UNL     1      46.714   2.547   7.352  0.00  0.00    +0.000 A 
ATOM      9  C   UNL     1      46.448   3.913   7.474  0.00  0.00    +0.000 A 
ATOM     10  C   UNL     1      45.551   4.370   8.450  0.00  0.00    +0.000 A 
ATOM     11  C   UNL     1      44.904   3.467   9.311  0.00  0.00    +0.000 A 
ATOM     12  C   UNL     1      45.186   2.099   9.185  0.00  0.00    +0.000 A 
ATOM     13  C   UNL     1      46.082   1.652   8.215  0.00  0.00    +0.000 A 
ATOM     14  F   UNL     1      46.327   0.337   8.129  0.00  0.00    +0.000 F 
BRANCH   8  16
ATOM     15  N   UNL     1      48.371   1.660   5.571  0.00  0.00    +0.000 NA
ATOM     16  C   UNL     1      47.624   2.072   6.360  0.00  0.00    +0.000 C 
ENDBRANCH   8  16
ENDBRANCH   7  11
ENDBRANCH   2   7
ENDBRANCH   1   5
BRANCH   1  17
ATOM     17  N   UNL     1      47.093   5.879  14.276  0.00  0.00    +0.000 N 
ATOM     18  C   UNL     1      48.192   5.883  15.090  0.00  0.00    +0.000 C 
ATOM     19  O   UNL     1      49.225   6.477  14.794  0.00  0.00    +0.000 OA
ATOM     20  H   UNL     1      46.244   5.398  14.551  0.00  0.00    +0.000 HD
BRANCH  18  21
ATOM     21  C   UNL     1      48.085   5.131  16.344  0.00  0.00    +0.000 A 
ATOM     22  C   UNL     1      47.804   3.772  16.312  0.00  0.00    +0.000 A 
ATOM     23  S   UNL     1      47.831   3.034  17.848  0.00  0.00    +0.000 S 
ATOM     24  C   UNL     1      48.275   4.495  18.599  0.00  0.00    +0.000 A 
ATOM     25  N   UNL     1      48.579   4.536  19.925  0.00  0.00    +0.000 NA
ATOM     26  C   UNL     1      48.890   5.709  20.364  0.00  0.00    +0.000 A 
ATOM     27  N   UNL     1      48.892   6.852  19.605  0.00  0.00    +0.000 N 
ATOM     28  C   UNL     1      48.576   6.862  18.266  0.00  0.00    +0.000 A 
ATOM     29  O   UNL     1      48.518   7.911  17.632  0.00  0.00    +0.000 OA
ATOM     30  C   UNL     1      48.290   5.553  17.709  0.00  0.00    +0.000 A 
ATOM     31  H   UNL     1      49.092   7.748  20.023  0.00  0.00    +0.000 HD
ENDBRANCH  18  21
ENDBRANCH   1  17
TORSDOF 6
ENDMDL
MODEL 5
REMARK VINA RESULT:    -8.748      2.189      2.963
REMARK INTER + INTRA:         -12.423
REMARK INTER:                 -11.379
REMARK INTRA:                  -1.044
REMARK UNBOUND:                -0.606
REMARK  Name = 
REMARK  6 active torsions:
REMARK  status: ('A' for Active; 'I' for Inactive)
REMARK    1  A    between atoms: C_2  and  C_3
REMARK    2  A    between atoms: C_6  and  C_7
REMARK    3  A    between atoms: C_7  and  N_8
REMARK    4  A    between atoms: C_11  and  C_12
REMARK    5  A    between atoms: C_12  and  N_13
REMARK    6  A    between atoms: C_14  and  C_16
REMARK                            x       y       z     vdW  Elec       q    Type
REMARK                         _______ _______ _______ _____ _____    ______ ____
ROOT
ATOM      1  C   UNL     1      46.774   4.691  14.083  0.00  0.00    +0.000 C 
ENDROOT
BRANCH   1   5
ATOM      2  N   UNL     1      44.388   4.422  11.450  0.00  0.00    +0.000 N 
ATOM      3  C   UNL     1      44.010   5.667  11.866  0.00  0.00    +0.000 A 
ATOM      4  C   UNL     1      44.855   5.994  12.898  0.00  0.00    +0.000 A 
ATOM      5  C   UNL     1      45.693   4.865  13.065  0.00  0.00    +0.000 A 
ATOM      6  N   UNL     1      45.397   3.898  12.181  0.00  0.00    +0.000 NA
BRANCH   2   7
ATOM      7  C   UNL     1      43.782   3.650  10.373  0.00  0.00    +0.000 C 
BRANCH   7  11
ATOM      8  C   UNL     1      46.691   2.478   7.384  0.00  0.00    +0.000 A 
ATOM      9  C   UNL     1      46.381   3.826   7.567  0.00  0.00    +0.000 A 
ATOM     10  C   UNL     1      45.440   4.207   8.534  0.00  0.00    +0.000 A 
ATOM     11  C   UNL     1      44.793   3.242   9.325  0.00  0.00    +0.000 A 
ATOM     12  C   UNL     1      45.119   1.891   9.139  0.00  0.00    +0.000 A 
ATOM     13  C   UNL     1      46.059   1.521   8.178  0.00  0.00    +0.000 A 
ATOM     14  F   UNL     1      46.346   0.219   8.033  0.00  0.00    +0.000 F 
BRANCH   8  16
ATOM     15  N   UNL     1      48.419   1.727   5.606  0.00  0.00    +0.000 NA
ATOM     16  C   UNL     1      47.646   2.080   6.400  0.00  0.00    +0.000 C 
ENDBRANCH   8  16
ENDBRANCH   7  11
ENDBRANCH   2   7
ENDBRANCH   1   5
BRANCH   1  17
ATOM     17  N   UNL     1      47.242   5.981  14.536  0.00  0.00    +0.000 N 
ATOM     18  C   UNL     1      48.286   6.627  13.935  0.00  0.00    +0.000 C 
ATOM     19  O   UNL     1      48.908   6.136  12.996  0.00  0.00    +0.000 OA
ATOM     20  H   UNL     1      46.731   6.414  15.296  0.00  0.00    +0.000 HD
BRANCH  18  21
ATOM     21  C   UNL     1      48.642   7.944  14.472  0.00  0.00    +0.000 A 
ATOM     22  C   UNL     1      48.825   9.014  13.608  0.00  0.00    +0.000 A 
ATOM     23  S   UNL     1      49.119  10.492  14.406  0.00  0.00    +0.000 S 
ATOM     24  C   UNL     1      48.955   9.759  15.933  0.00  0.00    +0.000 A 
ATOM     25  N   UNL     1      48.979  10.502  17.073  0.00  0.00    +0.000 NA
ATOM     26  C   UNL     1      48.852   9.816  18.159  0.00  0.00    +0.000 A 
ATOM     27  N   UNL     1      48.740   8.450  18.211  0.00  0.00    +0.000 N 
ATOM     28  C   UNL     1      48.728   7.656  17.088  0.00  0.00    +0.000 A 
ATOM     29  O   UNL     1      48.698   6.432  17.171  0.00  0.00    +0.000 OA
ATOM     30  C   UNL     1      48.794   8.388  15.837  0.00  0.00    +0.000 A 
ATOM     31  H   UNL     1      48.699   7.970  19.097  0.00  0.00    +0.000 HD
ENDBRANCH  18  21
ENDBRANCH   1  17
TORSDOF 6
ENDMDL
MODEL 6
REMARK VINA RESULT:    -8.429      3.253      4.416
REMARK INTER + INTRA:         -11.992
REMARK INTER:                 -11.007
REMARK INTRA:                  -0.985
REMARK UNBOUND:                -0.606
REMARK  Name = 
REMARK  6 active torsions:
REMARK  status: ('A' for Active; 'I' for Inactive)
REMARK    1  A    between atoms: C_2  and  C_3
REMARK    2  A    between atoms: C_6  and  C_7
REMARK    3  A    between atoms: C_7  and  N_8
REMARK    4  A    between atoms: C_11  and  C_12
REMARK    5  A    between atoms: C_12  and  N_13
REMARK    6  A    between atoms: C_14  and  C_16
REMARK                            x       y       z     vdW  Elec       q    Type
REMARK                         _______ _______ _______ _____ _____    ______ ____
ROOT
ATOM      1  C   UNL     1      45.001   7.536  12.876  0.00  0.00    +0.000 C 
ENDROOT
BRANCH   1   5
ATOM      2  N   UNL     1      44.449   4.346  11.385  0.00  0.00    +0.000 N 
ATOM      3  C   UNL     1      45.265   3.902  12.387  0.00  0.00    +0.000 A 
ATOM      4  C   UNL     1      45.585   5.010  13.133  0.00  0.00    +0.000 A 
ATOM      5  C   UNL     1      44.946   6.094  12.483  0.00  0.00    +0.000 A 
ATOM      6  N   UNL     1      44.258   5.684  11.405  0.00  0.00    +0.000 NA
BRANCH   2   7
ATOM      7  C   UNL     1      43.851   3.533  10.334  0.00  0.00    +0.000 C 
BRANCH   7  11
ATOM      8  C   UNL     1      46.734   2.447   7.287  0.00  0.00    +0.000 A 
ATOM      9  C   UNL     1      46.376   3.784   7.467  0.00  0.00    +0.000 A 
ATOM     10  C   UNL     1      45.443   4.137   8.453  0.00  0.00    +0.000 A 
ATOM     11  C   UNL     1      44.853   3.154   9.266  0.00  0.00    +0.000 A 
ATOM     12  C   UNL     1      45.227   1.816   9.083  0.00  0.00    +0.000 A 
ATOM     13  C   UNL     1      46.158   1.474   8.103  0.00  0.00    +0.000 A 
ATOM     14  F   UNL     1      46.492   0.182   7.962  0.00  0.00    +0.000 F 
BRANCH   8  16
ATOM     15  N   UNL     1      48.464   1.757   5.488  0.00  0.00    +0.000 NA
ATOM     16  C   UNL     1      47.681   2.078   6.285  0.00  0.00    +0.000 C 
ENDBRANCH   8  16
ENDBRANCH   7  11
ENDBRANCH   2   7
ENDBRANCH   1   5
BRANCH   1  17
ATOM     17  N   UNL     1      46.103   8.190  12.211  0.00  0.00    +0.000 N 
ATOM     18  C   UNL     1      47.099   8.821  12.903  0.00  0.00    +0.000 C 
ATOM     19  O   UNL     1      47.099   8.897  14.129  0.00  0.00    +0.000 OA
ATOM     20  H   UNL     1      46.135   8.123  11.199  0.00  0.00    +0.000 HD
BRANCH  18  21
ATOM     21  C   UNL     1      48.176   9.420  12.109  0.00  0.00    +0.000 A 
ATOM     22  C   UNL     1      48.036  10.711  11.619  0.00  0.00    +0.000 A 
ATOM     23  S   UNL     1      49.426  11.290  10.819  0.00  0.00    +0.000 S 
ATOM     24  C   UNL     1      50.278   9.856  11.151  0.00  0.00    +0.000 A 
ATOM     25  N   UNL     1      51.596   9.736  10.834  0.00  0.00    +0.000 NA
ATOM     26  C   UNL     1      52.114   8.592  11.135  0.00  0.00    +0.000 A 
ATOM     27  N   UNL     1      51.425   7.545  11.691  0.00  0.00    +0.000 N 
ATOM     28  C   UNL     1      50.089   7.614  12.012  0.00  0.00    +0.000 A 
ATOM     29  O   UNL     1      49.485   6.636  12.443  0.00  0.00    +0.000 OA
ATOM     30  C   UNL     1      49.479   8.906  11.761  0.00  0.00    +0.000 A 
ATOM     31  H   UNL     1      51.877   6.657  11.851  0.00  0.00    +0.000 HD
ENDBRANCH  18  21
ENDBRANCH   1  17
TORSDOF 6
ENDMDL
MODEL 7
REMARK VINA RESULT:    -8.208      2.169      3.729
REMARK INTER + INTRA:         -11.692
REMARK INTER:                 -10.895
REMARK INTRA:                  -0.797
REMARK UNBOUND:                -0.606
REMARK  Name = 
REMARK  6 active torsions:
REMARK  status: ('A' for Active; 'I' for Inactive)
REMARK    1  A    between atoms: C_2  and  C_3
REMARK    2  A    between atoms: C_6  and  C_7
REMARK    3  A    between atoms: C_7  and  N_8
REMARK    4  A    between atoms: C_11  and  C_12
REMARK    5  A    between atoms: C_12  and  N_13
REMARK    6  A    between atoms: C_14  and  C_16
REMARK                            x       y       z     vdW  Elec       q    Type
REMARK                         _______ _______ _______ _____ _____    ______ ____
ROOT
ATOM      1  C   UNL     1      47.007   4.446  13.631  0.00  0.00    +0.000 C 
ENDROOT
BRANCH   1   5
ATOM      2  N   UNL     1      44.235   4.065  11.424  0.00  0.00    +0.000 N 
ATOM      3  C   UNL     1      43.574   4.802  12.365  0.00  0.00    +0.000 A 
ATOM      4  C   UNL     1      44.502   5.098  13.333  0.00  0.00    +0.000 A 
ATOM      5  C   UNL     1      45.696   4.462  12.912  0.00  0.00    +0.000 A 
ATOM      6  N   UNL     1      45.525   3.821  11.745  0.00  0.00    +0.000 NA
BRANCH   2   7
ATOM      7  C   UNL     1      43.665   3.517  10.200  0.00  0.00    +0.000 C 
BRANCH   7  11
ATOM      8  C   UNL     1      46.728   2.429   7.334  0.00  0.00    +0.000 A 
ATOM      9  C   UNL     1      46.348   3.764   7.479  0.00  0.00    +0.000 A 
ATOM     10  C   UNL     1      45.357   4.118   8.407  0.00  0.00    +0.000 A 
ATOM     11  C   UNL     1      44.730   3.138   9.195  0.00  0.00    +0.000 A 
ATOM     12  C   UNL     1      45.125   1.801   9.047  0.00  0.00    +0.000 A 
ATOM     13  C   UNL     1      46.114   1.458   8.125  0.00  0.00    +0.000 A 
ATOM     14  F   UNL     1      46.466   0.169   8.016  0.00  0.00    +0.000 F 
BRANCH   8  16
ATOM     15  N   UNL     1      48.543   1.729   5.624  0.00  0.00    +0.000 NA
ATOM     16  C   UNL     1      47.734   2.059   6.391  0.00  0.00    +0.000 C 
ENDBRANCH   8  16
ENDBRANCH   7  11
ENDBRANCH   2   7
ENDBRANCH   1   5
BRANCH   1  17
ATOM     17  N   UNL     1      47.580   5.772  13.647  0.00  0.00    +0.000 N 
ATOM     18  C   UNL     1      48.274   6.250  14.723  0.00  0.00    +0.000 C 
ATOM     19  O   UNL     1      48.426   5.593  15.751  0.00  0.00    +0.000 OA
ATOM     20  H   UNL     1      47.485   6.324  12.802  0.00  0.00    +0.000 HD
BRANCH  18  21
ATOM     21  C   UNL     1      48.831   7.601  14.600  0.00  0.00    +0.000 A 
ATOM     22  C   UNL     1      50.091   7.877  15.113  0.00  0.00    +0.000 A 
ATOM     23  S   UNL     1      50.629   9.460  14.781  0.00  0.00    +0.000 S 
ATOM     24  C   UNL     1      49.220   9.809  13.893  0.00  0.00    +0.000 A 
ATOM     25  N   UNL     1      49.088  10.986  13.224  0.00  0.00    +0.000 NA
ATOM     26  C   UNL     1      47.966  11.121  12.600  0.00  0.00    +0.000 A 
ATOM     27  N   UNL     1      46.950  10.200  12.613  0.00  0.00    +0.000 N 
ATOM     28  C   UNL     1      47.031   9.005  13.289  0.00  0.00    +0.000 A 
ATOM     29  O   UNL     1      46.077   8.235  13.340  0.00  0.00    +0.000 OA
ATOM     30  C   UNL     1      48.304   8.774  13.946  0.00  0.00    +0.000 A 
ATOM     31  H   UNL     1      46.074  10.392  12.149  0.00  0.00    +0.000 HD
ENDBRANCH  18  21
ENDBRANCH   1  17
TORSDOF 6
ENDMDL
MODEL 8
REMARK VINA RESULT:    -7.928      1.883      2.422
REMARK INTER + INTRA:         -11.315
REMARK INTER:                 -10.654
REMARK INTRA:                  -0.661
REMARK UNBOUND:                -0.606
REMARK  Name = 
REMARK  6 active torsions:
REMARK  status: ('A' for Active; 'I' for Inactive)
REMARK    1  A    between atoms: C_2  and  C_3
REMARK    2  A    between atoms: C_6  and  C_7
REMARK    3  A    between atoms: C_7  and  N_8
REMARK    4  A    between atoms: C_11  and  C_12
REMARK    5  A    between atoms: C_12  and  N_13
REMARK    6  A    between atoms: C_14  and  C_16
REMARK                            x       y       z     vdW  Elec       q    Type
REMARK                         _______ _______ _______ _____ _____    ______ ____
ROOT
ATOM      1  C   UNL     1      48.056   6.172  13.335  0.00  0.00    +0.000 C 
ENDROOT
BRANCH   1   5
ATOM      2  N   UNL     1      44.921   5.910  11.661  0.00  0.00    +0.000 N 
ATOM      3  C   UNL     1      44.702   7.149  12.192  0.00  0.00    +0.000 A 
ATOM      4  C   UNL     1      45.845   7.473  12.881  0.00  0.00    +0.000 A 
ATOM      5  C   UNL     1      46.694   6.347  12.744  0.00  0.00    +0.000 A 
ATOM      6  N   UNL     1      46.119   5.386  12.003  0.00  0.00    +0.000 NA
BRANCH   2   7
ATOM      7  C   UNL     1      43.988   5.143  10.845  0.00  0.00    +0.000 C 
BRANCH   7  11
ATOM      8  C   UNL     1      46.015   2.463   8.108  0.00  0.00    +0.000 A 
ATOM      9  C   UNL     1      45.185   1.948   9.106  0.00  0.00    +0.000 A 
ATOM     10  C   UNL     1      44.529   2.814   9.992  0.00  0.00    +0.000 A 
ATOM     11  C   UNL     1      44.700   4.206   9.894  0.00  0.00    +0.000 A 
ATOM     12  C   UNL     1      45.528   4.712   8.883  0.00  0.00    +0.000 A 
ATOM     13  C   UNL     1      46.174   3.844   8.003  0.00  0.00    +0.000 A 
ATOM     14  F   UNL     1      46.955   4.369   7.047  0.00  0.00    +0.000 F 
BRANCH   8  16
ATOM     15  N   UNL     1      47.260   0.872   6.488  0.00  0.00    +0.000 NA
ATOM     16  C   UNL     1      46.689   1.589   7.203  0.00  0.00    +0.000 C 
ENDBRANCH   8  16
ENDBRANCH   7  11
ENDBRANCH   2   7
ENDBRANCH   1   5
BRANCH   1  17
ATOM     17  N   UNL     1      47.996   6.318  14.771  0.00  0.00    +0.000 N 
ATOM     18  C   UNL     1      49.038   6.829  15.493  0.00  0.00    +0.000 C 
ATOM     19  O   UNL     1      50.097   7.166  14.969  0.00  0.00    +0.000 OA
ATOM     20  H   UNL     1      47.125   6.065  15.223  0.00  0.00    +0.000 HD
BRANCH  18  21
ATOM     21  C   UNL     1      48.838   6.953  16.940  0.00  0.00    +0.000 A 
ATOM     22  C   UNL     1      48.391   8.153  17.475  0.00  0.00    +0.000 A 
ATOM     23  S   UNL     1      48.102   8.085  19.154  0.00  0.00    +0.000 S 
ATOM     24  C   UNL     1      48.512   6.434  19.210  0.00  0.00    +0.000 A 
ATOM     25  N   UNL     1      48.365   5.716  20.356  0.00  0.00    +0.000 NA
ATOM     26  C   UNL     1      48.722   4.479  20.258  0.00  0.00    +0.000 A 
ATOM     27  N   UNL     1      49.244   3.904  19.128  0.00  0.00    +0.000 N 
ATOM     28  C   UNL     1      49.427   4.594  17.952  0.00  0.00    +0.000 A 
ATOM     29  O   UNL     1      49.963   4.070  16.981  0.00  0.00    +0.000 OA
ATOM     30  C   UNL     1      48.972   5.972  17.990  0.00  0.00    +0.000 A 
ATOM     31  H   UNL     1      49.554   2.944  19.135  0.00  0.00    +0.000 HD
ENDBRANCH  18  21
ENDBRANCH   1  17
TORSDOF 6
ENDMDL
MODEL 9
REMARK VINA RESULT:    -7.661      2.419      3.325
REMARK INTER + INTRA:         -10.955
REMARK INTER:                 -10.108
REMARK INTRA:                  -0.846
REMARK UNBOUND:                -0.606
REMARK  Name = 
REMARK  6 active torsions:
REMARK  status: ('A' for Active; 'I' for Inactive)
REMARK    1  A    between atoms: C_2  and  C_3
REMARK    2  A    between atoms: C_6  and  C_7
REMARK    3  A    between atoms: C_7  and  N_8
REMARK    4  A    between atoms: C_11  and  C_12
REMARK    5  A    between atoms: C_12  and  N_13
REMARK    6  A    between atoms: C_14  and  C_16
REMARK                            x       y       z     vdW  Elec       q    Type
REMARK                         _______ _______ _______ _____ _____    ______ ____
ROOT
ATOM      1  C   UNL     1      46.989   4.097  15.403  0.00  0.00    +0.000 C 
ENDROOT
BRANCH   1   5
ATOM      2  N   UNL     1      45.320   4.792  12.332  0.00  0.00    +0.000 N 
ATOM      3  C   UNL     1      46.081   5.926  12.347  0.00  0.00    +0.000 A 
ATOM      4  C   UNL     1      46.856   5.846  13.478  0.00  0.00    +0.000 A 
ATOM      5  C   UNL     1      46.468   4.641  14.111  0.00  0.00    +0.000 A 
ATOM      6  N   UNL     1      45.517   4.001  13.411  0.00  0.00    +0.000 NA
BRANCH   2   7
ATOM      7  C   UNL     1      44.335   4.426  11.322  0.00  0.00    +0.000 C 
BRANCH   7  11
ATOM      8  C   UNL     1      46.206   3.041   7.667  0.00  0.00    +0.000 A 
ATOM      9  C   UNL     1      46.124   4.409   7.937  0.00  0.00    +0.000 A 
ATOM     10  C   UNL     1      45.519   4.858   9.119  0.00  0.00    +0.000 A 
ATOM     11  C   UNL     1      44.983   3.944  10.043  0.00  0.00    +0.000 A 
ATOM     12  C   UNL     1      45.079   2.573   9.766  0.00  0.00    +0.000 A 
ATOM     13  C   UNL     1      45.686   2.135   8.590  0.00  0.00    +0.000 A 
ATOM     14  F   UNL     1      45.761   0.815   8.364  0.00  0.00    +0.000 F 
BRANCH   8  16
ATOM     15  N   UNL     1      47.291   2.206   5.469  0.00  0.00    +0.000 NA
ATOM     16  C   UNL     1      46.818   2.575   6.464  0.00  0.00    +0.000 C 
ENDBRANCH   8  16
ENDBRANCH   7  11
ENDBRANCH   2   7
ENDBRANCH   1   5
BRANCH   1  17
ATOM     17  N   UNL     1      47.684   5.131  16.133  0.00  0.00    +0.000 N 
ATOM     18  C   UNL     1      48.874   4.900  16.765  0.00  0.00    +0.000 C 
ATOM     19  O   UNL     1      49.408   3.793  16.775  0.00  0.00    +0.000 OA
ATOM     20  H   UNL     1      47.272   6.057  16.121  0.00  0.00    +0.000 HD
BRANCH  18  21
ATOM     21  C   UNL     1      49.491   6.043  17.445  0.00  0.00    +0.000 A 
ATOM     22  C   UNL     1      50.754   6.473  17.065  0.00  0.00    +0.000 A 
ATOM     23  S   UNL     1      51.269   7.880  17.877  0.00  0.00    +0.000 S 
ATOM     24  C   UNL     1      49.796   7.993  18.723  0.00  0.00    +0.000 A 
ATOM     25  N   UNL     1      49.528   9.061  19.522  0.00  0.00    +0.000 NA
ATOM     26  C   UNL     1      48.379   9.012  20.108  0.00  0.00    +0.000 A 
ATOM     27  N   UNL     1      47.488   7.976  19.995  0.00  0.00    +0.000 N 
ATOM     28  C   UNL     1      47.723   6.868  19.213  0.00  0.00    +0.000 A 
ATOM     29  O   UNL     1      46.937   5.926  19.190  0.00  0.00    +0.000 OA
ATOM     30  C   UNL     1      48.971   6.910  18.475  0.00  0.00    +0.000 A 
ATOM     31  H   UNL     1      46.629   7.974  20.524  0.00  0.00    +0.000 HD
ENDBRANCH  18  21
ENDBRANCH   1  17
TORSDOF 6
ENDMDL
