MODEL 1
REMARK VINA RESULT:    -9.206      0.000      0.000
REMARK INTER + INTRA:         -11.904
REMARK INTER:                 -11.358
REMARK INTRA:                  -0.546
REMARK UNBOUND:                -0.546
REMARK  Name = 
REMARK  4 active torsions:
REMARK  status: ('A' for Active; 'I' for Inactive)
REMARK    1  A    between atoms: C_2  and  C_4
REMARK    2  A    between atoms: N_8  and  C_9
REMARK    3  A    between atoms: C_9  and  C_10
REMARK    4  A    between atoms: C_14  and  C_15
REMARK                            x       y       z     vdW  Elec       q    Type
REMARK                         _______ _______ _______ _____ _____    ______ ____
ROOT
ATOM      1  C   UNL     1      43.949   4.933  11.414  0.00  0.00    +0.000 C 
ATOM      2  C   UNL     1      42.698   4.891  12.275  0.00  0.00    +0.000 C 
ATOM      3  C   UNL     1      42.939   6.068  11.399  0.00  0.00    +0.000 C 
ENDROOT
BRANCH   1   8
ATOM      4  C   UNL     1      46.514   2.696   7.444  0.00  0.00    +0.000 A 
ATOM      5  C   UNL     1      46.204   4.048   7.596  0.00  0.00    +0.000 A 
ATOM      6  C   UNL     1      45.415   4.453   8.673  0.00  0.00    +0.000 A 
ATOM      7  C   UNL     1      44.934   3.492   9.549  0.00  0.00    +0.000 A 
ATOM      8  N   UNL     1      43.983   3.755  10.530  0.00  0.00    +0.000 N 
ATOM      9  N   UNL     1      45.235   2.181   9.419  0.00  0.00    +0.000 NA
ATOM     10  C   UNL     1      46.012   1.808   8.372  0.00  0.00    +0.000 A 
ATOM     11  H   UNL     1      43.892   2.863  11.020  0.00  0.00    +0.000 HD
BRANCH   4  13
ATOM     12  N   UNL     1      47.370   2.968   5.194  0.00  0.00    +0.000 N 
ATOM     13  C   UNL     1      47.304   2.183   6.323  0.00  0.00    +0.000 C 
ATOM     14  O   UNL     1      47.923   1.125   6.392  0.00  0.00    +0.000 OA
ATOM     15  H   UNL     1      48.002   2.639   4.468  0.00  0.00    +0.000 HD
ATOM     16  H   UNL     1      47.087   3.924   5.192  0.00  0.00    +0.000 HD
ENDBRANCH   4  13
ENDBRANCH   1   8
BRANCH   1  17
ATOM     17  C   UNL     1      45.345   5.288  11.912  0.00  0.00    +0.000 A 
ATOM     18  C   UNL     1      46.075   6.348  11.356  0.00  0.00    +0.000 A 
ATOM     19  C   UNL     1      47.140   6.930  12.048  0.00  0.00    +0.000 A 
ATOM     20  C   UNL     1      47.518   6.440  13.300  0.00  0.00    +0.000 A 
ATOM     21  C   UNL     1      46.876   5.326  13.845  0.00  0.00    +0.000 A 
ATOM     22  C   UNL     1      45.822   4.745  13.120  0.00  0.00    +0.000 A 
BRANCH  21  23
ATOM     23  C   UNL     1      47.222   4.828  15.239  0.00  0.00    +0.000 C 
ATOM     24  C   UNL     1      48.329   5.668  15.894  0.00  0.00    +0.000 C 
ATOM     25  C   UNL     1      48.786   5.046  17.207  0.00  0.00    +0.000 C 
ATOM     26  O   UNL     1      49.184   3.688  17.016  0.00  0.00    +0.000 OA
ATOM     27  C   UNL     1      48.101   2.873  16.573  0.00  0.00    +0.000 C 
ATOM     28  C   UNL     1      47.609   3.337  15.213  0.00  0.00    +0.000 C 
ENDBRANCH  21  23
ENDBRANCH   1  17
TORSDOF 4
ENDMDL
MODEL 2
REMARK VINA RESULT:    -8.877      2.095      3.233
REMARK INTER + INTRA:         -11.498
REMARK INTER:                 -10.671
REMARK INTRA:                  -0.827
REMARK UNBOUND:                -0.546
REMARK  Name = 
REMARK  4 active torsions:
REMARK  status: ('A' for Active; 'I' for Inactive)
REMARK    1  A    between atoms: C_2  and  C_4
REMARK    2  A    between atoms: N_8  and  C_9
REMARK    3  A    between atoms: C_9  and  C_10
REMARK    4  A    between atoms: C_14  and  C_15
REMARK                            x       y       z     vdW  Elec       q    Type
REMARK                         _______ _______ _______ _____ _____    ______ ____
ROOT
ATOM      1  C   UNL     1      43.684   5.255  11.339  0.00  0.00    +0.000 C 
ATOM      2  C   UNL     1      42.264   5.543  11.793  0.00  0.00    +0.000 C 
ATOM      3  C   UNL     1      43.003   6.575  11.019  0.00  0.00    +0.000 C 
ENDROOT
BRANCH   1   8
ATOM      4  C   UNL     1      46.471   2.583   7.813  0.00  0.00    +0.000 A 
ATOM      5  C   UNL     1      46.285   3.964   7.873  0.00  0.00    +0.000 A 
ATOM      6  C   UNL     1      45.416   4.498   8.825  0.00  0.00    +0.000 A 
ATOM      7  C   UNL     1      44.736   3.633   9.670  0.00  0.00    +0.000 A 
ATOM      8  N   UNL     1      43.705   4.037  10.512  0.00  0.00    +0.000 N 
ATOM      9  N   UNL     1      44.916   2.294   9.629  0.00  0.00    +0.000 NA
ATOM     10  C   UNL     1      45.771   1.795   8.704  0.00  0.00    +0.000 A 
ATOM     11  H   UNL     1      43.465   3.184  11.020  0.00  0.00    +0.000 HD
BRANCH   4  13
ATOM     12  N   UNL     1      48.385   2.682   6.332  0.00  0.00    +0.000 N 
ATOM     13  C   UNL     1      47.335   1.939   6.821  0.00  0.00    +0.000 C 
ATOM     14  O   UNL     1      47.170   0.775   6.470  0.00  0.00    +0.000 OA
ATOM     15  H   UNL     1      49.027   2.184   5.720  0.00  0.00    +0.000 HD
ATOM     16  H   UNL     1      48.689   3.528   6.765  0.00  0.00    +0.000 HD
ENDBRANCH   4  13
ENDBRANCH   1   8
BRANCH   1  17
ATOM     17  C   UNL     1      44.923   5.342  12.224  0.00  0.00    +0.000 A 
ATOM     18  C   UNL     1      45.288   4.293  13.080  0.00  0.00    +0.000 A 
ATOM     19  C   UNL     1      46.592   4.185  13.568  0.00  0.00    +0.000 A 
ATOM     20  C   UNL     1      47.551   5.145  13.238  0.00  0.00    +0.000 A 
ATOM     21  C   UNL     1      47.200   6.255  12.465  0.00  0.00    +0.000 A 
ATOM     22  C   UNL     1      45.878   6.353  12.002  0.00  0.00    +0.000 A 
BRANCH  21  23
ATOM     23  C   UNL     1      48.248   7.268  12.032  0.00  0.00    +0.000 C 
ATOM     24  C   UNL     1      49.512   7.199  12.901  0.00  0.00    +0.000 C 
ATOM     25  C   UNL     1      50.469   8.337  12.568  0.00  0.00    +0.000 C 
ATOM     26  O   UNL     1      49.813   9.601  12.672  0.00  0.00    +0.000 OA
ATOM     27  C   UNL     1      48.745   9.725  11.736  0.00  0.00    +0.000 C 
ATOM     28  C   UNL     1      47.666   8.694  12.021  0.00  0.00    +0.000 C 
ENDBRANCH  21  23
ENDBRANCH   1  17
TORSDOF 4
ENDMDL
MODEL 3
REMARK VINA RESULT:    -7.974      2.457      7.463
REMARK INTER + INTRA:         -10.385
REMARK INTER:                 -10.037
REMARK INTRA:                  -0.347
REMARK UNBOUND:                -0.546
REMARK  Name = 
REMARK  4 active torsions:
REMARK  status: ('A' for Active; 'I' for Inactive)
REMARK    1  A    between atoms: C_2  and  C_4
REMARK    2  A    between atoms: N_8  and  C_9
REMARK    3  A    between atoms: C_9  and  C_10
REMARK    4  A    between atoms: C_14  and  C_15
REMARK                            x       y       z     vdW  Elec       q    Type
REMARK                         _______ _______ _______ _____ _____    ______ ____
ROOT
ATOM      1  C   UNL     1      44.540   3.525  12.204  0.00  0.00    +0.000 C 
ATOM      2  C   UNL     1      43.455   3.974  13.166  0.00  0.00    +0.000 C 
ATOM      3  C   UNL     1      43.223   2.776  12.316  0.00  0.00    +0.000 C 
ENDROOT
BRANCH   1   8
ATOM      4  C   UNL     1      48.142   5.674  15.326  0.00  0.00    +0.000 A 
ATOM      5  C   UNL     1      47.533   6.255  14.213  0.00  0.00    +0.000 A 
ATOM      6  C   UNL     1      46.668   5.490  13.429  0.00  0.00    +0.000 A 
ATOM      7  C   UNL     1      46.460   4.161  13.763  0.00  0.00    +0.000 A 
ATOM      8  N   UNL     1      45.785   3.261  12.946  0.00  0.00    +0.000 N 
ATOM      9  N   UNL     1      47.036   3.590  14.845  0.00  0.00    +0.000 NA
ATOM     10  C   UNL     1      47.865   4.351  15.600  0.00  0.00    +0.000 A 
ATOM     11  H   UNL     1      45.766   2.403  13.499  0.00  0.00    +0.000 HD
BRANCH   4  13
ATOM     12  N   UNL     1      48.562   7.274  17.096  0.00  0.00    +0.000 N 
ATOM     13  C   UNL     1      49.090   6.394  16.179  0.00  0.00    +0.000 C 
ATOM     14  O   UNL     1      50.300   6.196  16.121  0.00  0.00    +0.000 OA
ATOM     15  H   UNL     1      49.230   7.688  17.742  0.00  0.00    +0.000 HD
ATOM     16  H   UNL     1      47.593   7.280  17.334  0.00  0.00    +0.000 HD
ENDBRANCH   4  13
ENDBRANCH   1   8
BRANCH   1  17
ATOM     17  C   UNL     1      44.831   4.164  10.850  0.00  0.00    +0.000 A 
ATOM     18  C   UNL     1      45.197   5.513  10.738  0.00  0.00    +0.000 A 
ATOM     19  C   UNL     1      45.845   5.989   9.596  0.00  0.00    +0.000 A 
ATOM     20  C   UNL     1      46.112   5.132   8.527  0.00  0.00    +0.000 A 
ATOM     21  C   UNL     1      45.678   3.804   8.562  0.00  0.00    +0.000 A 
ATOM     22  C   UNL     1      45.010   3.353   9.713  0.00  0.00    +0.000 A 
BRANCH  21  23
ATOM     23  C   UNL     1      46.027   2.838   7.442  0.00  0.00    +0.000 C 
ATOM     24  C   UNL     1      46.572   1.505   7.977  0.00  0.00    +0.000 C 
ATOM     25  C   UNL     1      47.084   0.627   6.843  0.00  0.00    +0.000 C 
ATOM     26  O   UNL     1      48.048   1.324   6.055  0.00  0.00    +0.000 OA
ATOM     27  C   UNL     1      47.487   2.468   5.416  0.00  0.00    +0.000 C 
ATOM     28  C   UNL     1      47.018   3.477   6.450  0.00  0.00    +0.000 C 
ENDBRANCH  21  23
ENDBRANCH   1  17
TORSDOF 4
ENDMDL
MODEL 4
REMARK VINA RESULT:    -7.386      2.831      7.615
REMARK INTER + INTRA:          -9.658
REMARK INTER:                  -8.937
REMARK INTRA:                  -0.721
REMARK UNBOUND:                -0.546
REMARK  Name = 
REMARK  4 active torsions:
REMARK  status: ('A' for Active; 'I' for Inactive)
REMARK    1  A    between atoms: C_2  and  C_4
REMARK    2  A    between atoms: N_8  and  C_9
REMARK    3  A    between atoms: C_9  and  C_10
REMARK    4  A    between atoms: C_14  and  C_15
REMARK                            x       y       z     vdW  Elec       q    Type
REMARK                         _______ _______ _______ _____ _____    ______ ____
ROOT
ATOM      1  C   UNL     1      46.767   6.899  12.671  0.00  0.00    +0.000 C 
ATOM      2  C   UNL     1      48.079   6.987  11.912  0.00  0.00    +0.000 C 
ATOM      3  C   UNL     1      47.047   8.037  11.704  0.00  0.00    +0.000 C 
ENDROOT
BRANCH   1   8
ATOM      4  C   UNL     1      48.424   3.888  16.611  0.00  0.00    +0.000 A 
ATOM      5  C   UNL     1      47.588   3.517  15.557  0.00  0.00    +0.000 A 
ATOM      6  C   UNL     1      47.160   4.486  14.650  0.00  0.00    +0.000 A 
ATOM      7  C   UNL     1      47.556   5.801  14.838  0.00  0.00    +0.000 A 
ATOM      8  N   UNL     1      47.031   6.870  14.120  0.00  0.00    +0.000 N 
ATOM      9  N   UNL     1      48.374   6.171  15.849  0.00  0.00    +0.000 NA
ATOM     10  C   UNL     1      48.787   5.214  16.715  0.00  0.00    +0.000 A 
ATOM     11  H   UNL     1      47.563   7.672  14.462  0.00  0.00    +0.000 HD
BRANCH   4  13
ATOM     12  N   UNL     1      48.306   3.025  18.872  0.00  0.00    +0.000 N 
ATOM     13  C   UNL     1      48.889   2.941  17.628  0.00  0.00    +0.000 C 
ATOM     14  O   UNL     1      49.725   2.077  17.381  0.00  0.00    +0.000 OA
ATOM     15  H   UNL     1      48.573   2.298  19.531  0.00  0.00    +0.000 HD
ATOM     16  H   UNL     1      47.469   3.543  19.036  0.00  0.00    +0.000 HD
ENDBRANCH   4  13
ENDBRANCH   1   8
BRANCH   1  17
ATOM     17  C   UNL     1      45.602   5.985  12.306  0.00  0.00    +0.000 A 
ATOM     18  C   UNL     1      44.314   6.198  12.817  0.00  0.00    +0.000 A 
ATOM     19  C   UNL     1      43.192   5.645  12.194  0.00  0.00    +0.000 A 
ATOM     20  C   UNL     1      43.340   4.840  11.063  0.00  0.00    +0.000 A 
ATOM     21  C   UNL     1      44.613   4.528  10.580  0.00  0.00    +0.000 A 
ATOM     22  C   UNL     1      45.726   5.078  11.236  0.00  0.00    +0.000 A 
BRANCH  21  23
ATOM     23  C   UNL     1      44.789   3.717   9.306  0.00  0.00    +0.000 C 
ATOM     24  C   UNL     1      45.194   2.265   9.596  0.00  0.00    +0.000 C 
ATOM     25  C   UNL     1      45.541   1.525   8.311  0.00  0.00    +0.000 C 
ATOM     26  O   UNL     1      46.543   2.225   7.574  0.00  0.00    +0.000 OA
ATOM     27  C   UNL     1      46.093   3.511   7.154  0.00  0.00    +0.000 C 
ATOM     28  C   UNL     1      45.800   4.390   8.358  0.00  0.00    +0.000 C 
ENDBRANCH  21  23
ENDBRANCH   1  17
TORSDOF 4
ENDMDL
MODEL 5
REMARK VINA RESULT:    -7.335      2.387      3.176
REMARK INTER + INTRA:          -9.596
REMARK INTER:                  -9.211
REMARK INTRA:                  -0.385
REMARK UNBOUND:                -0.546
REMARK  Name = 
REMARK  4 active torsions:
REMARK  status: ('A' for Active; 'I' for Inactive)
REMARK    1  A    between atoms: C_2  and  C_4
REMARK    2  A    between atoms: N_8  and  C_9
REMARK    3  A    between atoms: C_9  and  C_10
REMARK    4  A    between atoms: C_14  and  C_15
REMARK                            x       y       z     vdW  Elec       q    Type
REMARK                         _______ _______ _______ _____ _____    ______ ____
ROOT
ATOM      1  C   UNL     1      44.061   4.200  11.777  0.00  0.00    +0.000 C 
ATOM      2  C   UNL     1      44.782   3.487  12.908  0.00  0.00    +0.000 C 
ATOM      3  C   UNL     1      43.404   3.997  13.131  0.00  0.00    +0.000 C 
ENDROOT
BRANCH   1   8
ATOM      4  C   UNL     1      46.544   2.709   7.423  0.00  0.00    +0.000 A 
ATOM      5  C   UNL     1      46.436   4.003   7.935  0.00  0.00    +0.000 A 
ATOM      6  C   UNL     1      45.639   4.232   9.056  0.00  0.00    +0.000 A 
ATOM      7  C   UNL     1      44.950   3.167   9.617  0.00  0.00    +0.000 A 
ATOM      8  N   UNL     1      43.980   3.314  10.602  0.00  0.00    +0.000 N 
ATOM      9  N   UNL     1      45.055   1.907   9.137  0.00  0.00    +0.000 NA
ATOM     10  C   UNL     1      45.841   1.703   8.052  0.00  0.00    +0.000 A 
ATOM     11  H   UNL     1      43.715   2.353  10.822  0.00  0.00    +0.000 HD
BRANCH   4  13
ATOM     12  N   UNL     1      47.143   3.192   5.126  0.00  0.00    +0.000 N 
ATOM     13  C   UNL     1      47.328   2.390   6.228  0.00  0.00    +0.000 C 
ATOM     14  O   UNL     1      48.151   1.479   6.213  0.00  0.00    +0.000 OA
ATOM     15  H   UNL     1      47.767   3.013   4.343  0.00  0.00    +0.000 HD
ATOM     16  H   UNL     1      46.673   4.071   5.178  0.00  0.00    +0.000 HD
ENDBRANCH   4  13
ENDBRANCH   1   8
BRANCH   1  17
ATOM     17  C   UNL     1      44.298   5.647  11.360  0.00  0.00    +0.000 A 
ATOM     18  C   UNL     1      43.238   6.488  10.992  0.00  0.00    +0.000 A 
ATOM     19  C   UNL     1      43.384   7.877  11.008  0.00  0.00    +0.000 A 
ATOM     20  C   UNL     1      44.604   8.454  11.362  0.00  0.00    +0.000 A 
ATOM     21  C   UNL     1      45.710   7.648  11.644  0.00  0.00    +0.000 A 
ATOM     22  C   UNL     1      45.546   6.254  11.601  0.00  0.00    +0.000 A 
BRANCH  21  23
ATOM     23  C   UNL     1      47.024   8.258  12.106  0.00  0.00    +0.000 C 
ATOM     24  C   UNL     1      48.229   7.379  11.740  0.00  0.00    +0.000 C 
ATOM     25  C   UNL     1      49.509   7.914  12.369  0.00  0.00    +0.000 C 
ATOM     26  O   UNL     1      49.360   8.061  13.781  0.00  0.00    +0.000 OA
ATOM     27  C   UNL     1      48.354   9.015  14.114  0.00  0.00    +0.000 C 
ATOM     28  C   UNL     1      46.996   8.548  13.619  0.00  0.00    +0.000 C 
ENDBRANCH  21  23
ENDBRANCH   1  17
TORSDOF 4
ENDMDL
MODEL 6
REMARK VINA RESULT:    -7.191      3.385      7.024
REMARK INTER + INTRA:          -9.419
REMARK INTER:                  -8.770
REMARK INTRA:                  -0.649
REMARK UNBOUND:                -0.546
REMARK  Name = 
REMARK  4 active torsions:
REMARK  status: ('A' for Active; 'I' for Inactive)
REMARK    1  A    between atoms: C_2  and  C_4
REMARK    2  A    between atoms: N_8  and  C_9
REMARK    3  A    between atoms: C_9  and  C_10
REMARK    4  A    between atoms: C_14  and  C_15
REMARK                            x       y       z     vdW  Elec       q    Type
REMARK                         _______ _______ _______ _____ _____    ______ ____
ROOT
ATOM      1  C   UNL     1      46.336   4.978  13.708  0.00  0.00    +0.000 C 
ATOM      2  C   UNL     1      46.579   4.203  14.991  0.00  0.00    +0.000 C 
ATOM      3  C   UNL     1      47.359   3.856  13.774  0.00  0.00    +0.000 C 
ENDROOT
BRANCH   1   8
ATOM      4  C   UNL     1      48.463   9.305  11.686  0.00  0.00    +0.000 A 
ATOM      5  C   UNL     1      48.991   8.013  11.664  0.00  0.00    +0.000 A 
ATOM      6  C   UNL     1      48.334   6.993  12.352  0.00  0.00    +0.000 A 
ATOM      7  C   UNL     1      47.184   7.299  13.065  0.00  0.00    +0.000 A 
ATOM      8  N   UNL     1      46.567   6.413  13.942  0.00  0.00    +0.000 N 
ATOM      9  N   UNL     1      46.658   8.544  13.085  0.00  0.00    +0.000 NA
ATOM     10  C   UNL     1      47.305   9.520  12.403  0.00  0.00    +0.000 A 
ATOM     11  H   UNL     1      45.739   6.924  14.253  0.00  0.00    +0.000 HD
BRANCH   4  13
ATOM     12  N   UNL     1      48.287  11.410  10.500  0.00  0.00    +0.000 N 
ATOM     13  C   UNL     1      49.110  10.439  11.022  0.00  0.00    +0.000 C 
ATOM     14  O   UNL     1      50.331  10.553  10.969  0.00  0.00    +0.000 OA
ATOM     15  H   UNL     1      48.758  12.233  10.131  0.00  0.00    +0.000 HD
ATOM     16  H   UNL     1      47.319  11.471  10.733  0.00  0.00    +0.000 HD
ENDBRANCH   4  13
ENDBRANCH   1   8
BRANCH   1  17
ATOM     17  C   UNL     1      45.164   4.756  12.758  0.00  0.00    +0.000 A 
ATOM     18  C   UNL     1      43.974   5.488  12.877  0.00  0.00    +0.000 A 
ATOM     19  C   UNL     1      43.083   5.591  11.807  0.00  0.00    +0.000 A 
ATOM     20  C   UNL     1      43.348   4.936  10.603  0.00  0.00    +0.000 A 
ATOM     21  C   UNL     1      44.476   4.121  10.477  0.00  0.00    +0.000 A 
ATOM     22  C   UNL     1      45.346   4.016  11.574  0.00  0.00    +0.000 A 
BRANCH  21  23
ATOM     23  C   UNL     1      44.821   3.463   9.151  0.00  0.00    +0.000 C 
ATOM     24  C   UNL     1      45.378   2.044   9.337  0.00  0.00    +0.000 C 
ATOM     25  C   UNL     1      45.885   1.477   8.017  0.00  0.00    +0.000 C 
ATOM     26  O   UNL     1      46.839   2.354   7.418  0.00  0.00    +0.000 OA
ATOM     27  C   UNL     1      46.265   3.616   7.085  0.00  0.00    +0.000 C 
ATOM     28  C   UNL     1      45.799   4.335   8.340  0.00  0.00    +0.000 C 
ENDBRANCH  21  23
ENDBRANCH   1  17
TORSDOF 4
ENDMDL
MODEL 7
REMARK VINA RESULT:    -7.039      2.745      4.588
REMARK INTER + INTRA:          -9.231
REMARK INTER:                  -8.643
REMARK INTRA:                  -0.588
REMARK UNBOUND:                -0.546
REMARK  Name = 
REMARK  4 active torsions:
REMARK  status: ('A' for Active; 'I' for Inactive)
REMARK    1  A    between atoms: C_2  and  C_4
REMARK    2  A    between atoms: N_8  and  C_9
REMARK    3  A    between atoms: C_9  and  C_10
REMARK    4  A    between atoms: C_14  and  C_15
REMARK                            x       y       z     vdW  Elec       q    Type
REMARK                         _______ _______ _______ _____ _____    ______ ____
ROOT
ATOM      1  C   UNL     1      47.633   8.293  13.251  0.00  0.00    +0.000 C 
ATOM      2  C   UNL     1      47.654   9.542  12.387  0.00  0.00    +0.000 C 
ATOM      3  C   UNL     1      48.570   8.417  12.061  0.00  0.00    +0.000 C 
ENDROOT
BRANCH   1   8
ATOM      4  C   UNL     1      44.627   4.494  11.286  0.00  0.00    +0.000 A 
ATOM      5  C   UNL     1      45.578   5.256  10.607  0.00  0.00    +0.000 A 
ATOM      6  C   UNL     1      46.214   6.306  11.269  0.00  0.00    +0.000 A 
ATOM      7  C   UNL     1      45.859   6.583  12.581  0.00  0.00    +0.000 A 
ATOM      8  N   UNL     1      46.277   7.720  13.265  0.00  0.00    +0.000 N 
ATOM      9  N   UNL     1      44.946   5.846  13.253  0.00  0.00    +0.000 NA
ATOM     10  C   UNL     1      44.347   4.823  12.596  0.00  0.00    +0.000 A 
ATOM     11  H   UNL     1      45.888   7.592  14.201  0.00  0.00    +0.000 HD
BRANCH   4  13
ATOM     12  N   UNL     1      44.172   3.132   9.335  0.00  0.00    +0.000 N 
ATOM     13  C   UNL     1      43.887   3.399  10.655  0.00  0.00    +0.000 C 
ATOM     14  O   UNL     1      43.081   2.712  11.276  0.00  0.00    +0.000 OA
ATOM     15  H   UNL     1      43.719   2.308   8.946  0.00  0.00    +0.000 HD
ATOM     16  H   UNL     1      44.978   3.502   8.877  0.00  0.00    +0.000 HD
ENDBRANCH   4  13
ENDBRANCH   1   8
BRANCH   1  17
ATOM     17  C   UNL     1      48.302   8.160  14.615  0.00  0.00    +0.000 A 
ATOM     18  C   UNL     1      48.437   9.257  15.477  0.00  0.00    +0.000 A 
ATOM     19  C   UNL     1      48.662   9.074  16.844  0.00  0.00    +0.000 A 
ATOM     20  C   UNL     1      48.790   7.788  17.371  0.00  0.00    +0.000 A 
ATOM     21  C   UNL     1      48.755   6.674  16.530  0.00  0.00    +0.000 A 
ATOM     22  C   UNL     1      48.549   6.883  15.156  0.00  0.00    +0.000 A 
BRANCH  21  23
ATOM     23  C   UNL     1      48.815   5.264  17.096  0.00  0.00    +0.000 C 
ATOM     24  C   UNL     1      50.258   4.757  17.234  0.00  0.00    +0.000 C 
ATOM     25  C   UNL     1      50.287   3.286  17.629  0.00  0.00    +0.000 C 
ATOM     26  O   UNL     1      49.526   2.498  16.714  0.00  0.00    +0.000 OA
ATOM     27  C   UNL     1      48.146   2.859  16.720  0.00  0.00    +0.000 C 
ATOM     28  C   UNL     1      47.970   4.292  16.250  0.00  0.00    +0.000 C 
ENDBRANCH  21  23
ENDBRANCH   1  17
TORSDOF 4
ENDMDL
MODEL 8
REMARK VINA RESULT:    -6.897      3.450      7.545
REMARK INTER + INTRA:          -9.056
REMARK INTER:                  -8.501
REMARK INTRA:                  -0.555
REMARK UNBOUND:                -0.546
REMARK  Name = 
REMARK  4 active torsions:
REMARK  status: ('A' for Active; 'I' for Inactive)
REMARK    1  A    between atoms: C_2  and  C_4
REMARK    2  A    between atoms: N_8  and  C_9
REMARK    3  A    between atoms: C_9  and  C_10
REMARK    4  A    between atoms: C_14  and  C_15
REMARK                            x       y       z     vdW  Elec       q    Type
REMARK                         _______ _______ _______ _____ _____    ______ ____
ROOT
ATOM      1  C   UNL     1      48.361   7.763  12.919  0.00  0.00    +0.000 C 
ATOM      2  C   UNL     1      49.477   7.083  12.145  0.00  0.00    +0.000 C 
ATOM      3  C   UNL     1      49.267   8.546  11.983  0.00  0.00    +0.000 C 
ENDROOT
BRANCH   1   8
ATOM      4  C   UNL     1      48.033   4.188  16.720  0.00  0.00    +0.000 A 
ATOM      5  C   UNL     1      47.144   4.381  15.661  0.00  0.00    +0.000 A 
ATOM      6  C   UNL     1      47.333   5.460  14.797  0.00  0.00    +0.000 A 
ATOM      7  C   UNL     1      48.387   6.330  15.033  0.00  0.00    +0.000 A 
ATOM      8  N   UNL     1      48.548   7.538  14.362  0.00  0.00    +0.000 N 
ATOM      9  N   UNL     1      49.260   6.148  16.048  0.00  0.00    +0.000 NA
ATOM     10  C   UNL     1      49.066   5.089  16.872  0.00  0.00    +0.000 A 
ATOM     11  H   UNL     1      49.430   7.899  14.730  0.00  0.00    +0.000 HD
BRANCH   4  13
ATOM     12  N   UNL     1      48.944   2.879  18.543  0.00  0.00    +0.000 N 
ATOM     13  C   UNL     1      47.885   3.105  17.694  0.00  0.00    +0.000 C 
ATOM     14  O   UNL     1      46.850   2.451  17.790  0.00  0.00    +0.000 OA
ATOM     15  H   UNL     1      48.782   2.189  19.273  0.00  0.00    +0.000 HD
ATOM     16  H   UNL     1      49.689   3.534  18.654  0.00  0.00    +0.000 HD
ENDBRANCH   4  13
ENDBRANCH   1   8
BRANCH   1  17
ATOM     17  C   UNL     1      46.884   7.727  12.542  0.00  0.00    +0.000 A 
ATOM     18  C   UNL     1      46.105   8.893  12.513  0.00  0.00    +0.000 A 
ATOM     19  C   UNL     1      44.907   8.939  11.797  0.00  0.00    +0.000 A 
ATOM     20  C   UNL     1      44.445   7.808  11.122  0.00  0.00    +0.000 A 
ATOM     21  C   UNL     1      45.145   6.601  11.205  0.00  0.00    +0.000 A 
ATOM     22  C   UNL     1      46.337   6.574  11.948  0.00  0.00    +0.000 A 
BRANCH  21  23
ATOM     23  C   UNL     1      44.699   5.382  10.414  0.00  0.00    +0.000 C 
ATOM     24  C   UNL     1      44.548   4.139  11.303  0.00  0.00    +0.000 C 
ATOM     25  C   UNL     1      44.280   2.895  10.466  0.00  0.00    +0.000 C 
ATOM     26  O   UNL     1      45.288   2.725   9.470  0.00  0.00    +0.000 OA
ATOM     27  C   UNL     1      45.305   3.804   8.539  0.00  0.00    +0.000 C 
ATOM     28  C   UNL     1      45.658   5.104   9.241  0.00  0.00    +0.000 C 
ENDBRANCH  21  23
ENDBRANCH   1  17
TORSDOF 4
ENDMDL
MODEL 9
REMARK VINA RESULT:    -6.691      3.591      8.331
REMARK INTER + INTRA:          -8.801
REMARK INTER:                  -7.997
REMARK INTRA:                  -0.804
REMARK UNBOUND:                -0.546
REMARK  Name = 
REMARK  4 active torsions:
REMARK  status: ('A' for Active; 'I' for Inactive)
REMARK    1  A    between atoms: C_2  and  C_4
REMARK    2  A    between atoms: N_8  and  C_9
REMARK    3  A    between atoms: C_9  and  C_10
REMARK    4  A    between atoms: C_14  and  C_15
REMARK                            x       y       z     vdW  Elec       q    Type
REMARK                         _______ _______ _______ _____ _____    ______ ____
ROOT
ATOM      1  C   UNL     1      48.873   7.780  12.495  0.00  0.00    +0.000 C 
ATOM      2  C   UNL     1      49.821   7.705  11.311  0.00  0.00    +0.000 C 
ATOM      3  C   UNL     1      49.493   9.031  11.896  0.00  0.00    +0.000 C 
ENDROOT
BRANCH   1   8
ATOM      4  C   UNL     1      48.633   7.014  17.662  0.00  0.00    +0.000 A 
ATOM      5  C   UNL     1      48.644   8.236  16.988  0.00  0.00    +0.000 A 
ATOM      6  C   UNL     1      48.822   8.253  15.604  0.00  0.00    +0.000 A 
ATOM      7  C   UNL     1      49.014   7.051  14.939  0.00  0.00    +0.000 A 
ATOM      8  N   UNL     1      49.397   6.966  13.605  0.00  0.00    +0.000 N 
ATOM      9  N   UNL     1      48.995   5.861  15.580  0.00  0.00    +0.000 NA
ATOM     10  C   UNL     1      48.811   5.864  16.922  0.00  0.00    +0.000 A 
ATOM     11  H   UNL     1      49.398   5.961  13.421  0.00  0.00    +0.000 HD
BRANCH   4  13
ATOM     12  N   UNL     1      47.686   5.900  19.593  0.00  0.00    +0.000 N 
ATOM     13  C   UNL     1      48.490   6.910  19.116  0.00  0.00    +0.000 C 
ATOM     14  O   UNL     1      49.091   7.654  19.885  0.00  0.00    +0.000 OA
ATOM     15  H   UNL     1      47.679   5.787  20.604  0.00  0.00    +0.000 HD
ATOM     16  H   UNL     1      47.383   5.143  19.019  0.00  0.00    +0.000 HD
ENDBRANCH   4  13
ENDBRANCH   1   8
BRANCH   1  17
ATOM     17  C   UNL     1      47.353   7.683  12.411  0.00  0.00    +0.000 A 
ATOM     18  C   UNL     1      46.532   8.792  12.657  0.00  0.00    +0.000 A 
ATOM     19  C   UNL     1      45.213   8.826  12.196  0.00  0.00    +0.000 A 
ATOM     20  C   UNL     1      44.679   7.735  11.508  0.00  0.00    +0.000 A 
ATOM     21  C   UNL     1      45.436   6.575  11.326  0.00  0.00    +0.000 A 
ATOM     22  C   UNL     1      46.752   6.557  11.817  0.00  0.00    +0.000 A 
BRANCH  21  23
ATOM     23  C   UNL     1      44.897   5.409  10.513  0.00  0.00    +0.000 C 
ATOM     24  C   UNL     1      44.799   4.121  11.343  0.00  0.00    +0.000 C 
ATOM     25  C   UNL     1      44.433   2.930  10.467  0.00  0.00    +0.000 C 
ATOM     26  O   UNL     1      45.347   2.799   9.379  0.00  0.00    +0.000 OA
ATOM     27  C   UNL     1      45.305   3.928   8.509  0.00  0.00    +0.000 C 
ATOM     28  C   UNL     1      45.745   5.182   9.246  0.00  0.00    +0.000 C 
ENDBRANCH  21  23
ENDBRANCH   1  17
TORSDOF 4
ENDMDL
