MODEL 1
REMARK VINA RESULT:    -9.412      0.000      0.000
REMARK INTER + INTRA:         -14.045
REMARK INTER:                 -12.989
REMARK INTRA:                  -1.056
REMARK UNBOUND:                -1.056
REMARK  Name = 
REMARK  7 active torsions:
REMARK  status: ('A' for Active; 'I' for Inactive)
REMARK    1  A    between atoms: C_2  and  C_22
REMARK    2  A    between atoms: N_3  and  C_4
REMARK    3  A    between atoms: C_4  and  C_5
REMARK    4  A    between atoms: C_8  and  C_9
REMARK    5  A    between atoms: C_9  and  N_10
REMARK    6  A    between atoms: C_11  and  C_13
REMARK    7  A    between atoms: C_16  and  O_17
REMARK                            x       y       z     vdW  Elec       q    Type
REMARK                         _______ _______ _______ _____ _____    ______ ____
ROOT
ATOM      1  C   UNL     1      46.592   7.594  12.902  0.00  0.00    +0.000 A 
ATOM      2  C   UNL     1      45.381   8.147  12.495  0.00  0.00    +0.000 A 
ATOM      3  C   UNL     1      44.497   7.400  11.715  0.00  0.00    +0.000 A 
ATOM      4  C   UNL     1      44.832   6.096  11.350  0.00  0.00    +0.000 A 
ATOM      5  N   UNL     1      46.003   5.531  11.747  0.00  0.00    +0.000 NA
ATOM      6  C   UNL     1      46.847   6.287  12.502  0.00  0.00    +0.000 A 
ENDROOT
BRANCH   1   7
ATOM      7  C   UNL     1      47.547   8.364  13.764  0.00  0.00    +0.000 C 
BRANCH   7  10
ATOM      8  O   UNL     1      49.929   7.028  14.204  0.00  0.00    +0.000 OA
ATOM      9  C   UNL     1      49.123   7.106  15.136  0.00  0.00    +0.000 C 
ATOM     10  N   UNL     1      47.896   7.714  14.999  0.00  0.00    +0.000 N 
ATOM     11  H   UNL     1      47.389   7.987  15.834  0.00  0.00    +0.000 HD
BRANCH   9  12
ATOM     12  C   UNL     1      49.402   6.526  16.446  0.00  0.00    +0.000 A 
ATOM     13  C   UNL     1      50.212   7.136  17.395  0.00  0.00    +0.000 A 
ATOM     14  S   UNL     1      50.345   6.222  18.842  0.00  0.00    +0.000 S 
ATOM     15  C   UNL     1      49.310   5.012  18.241  0.00  0.00    +0.000 A 
ATOM     16  N   UNL     1      48.996   3.911  18.973  0.00  0.00    +0.000 NA
ATOM     17  C   UNL     1      48.170   3.102  18.395  0.00  0.00    +0.000 A 
ATOM     18  N   UNL     1      47.624   3.296  17.154  0.00  0.00    +0.000 N 
ATOM     19  C   UNL     1      47.940   4.353  16.352  0.00  0.00    +0.000 A 
ATOM     20  O   UNL     1      47.528   4.419  15.202  0.00  0.00    +0.000 OA
ATOM     21  C   UNL     1      48.866   5.298  16.966  0.00  0.00    +0.000 A 
ATOM     22  H   UNL     1      46.998   2.617  16.746  0.00  0.00    +0.000 HD
ENDBRANCH   9  12
ENDBRANCH   7  10
ENDBRANCH   1   7
BRANCH   4  23
ATOM     23  C   UNL     1      43.917   5.253  10.478  0.00  0.00    +0.000 C 
BRANCH  23  24
ATOM     24  N   UNL     1      44.583   4.560   9.382  0.00  0.00    +0.000 N 
ATOM     25  C   UNL     1      44.511   3.204   9.235  0.00  0.00    +0.000 C 
ATOM     26  O   UNL     1      43.909   2.486  10.048  0.00  0.00    +0.000 OA
ATOM     27  H   UNL     1      45.248   5.066   8.811  0.00  0.00    +0.000 HD
BRANCH  25  28
ATOM     28  C   UNL     1      45.218   2.647   7.998  0.00  0.00    +0.000 C 
ATOM     29  C   UNL     1      46.003   3.766   7.294  0.00  0.00    +0.000 C 
ATOM     30  C   UNL     1      46.853   3.254   6.139  0.00  0.00    +0.000 C 
ATOM     31  C   UNL     1      47.797   2.151   6.609  0.00  0.00    +0.000 C 
ATOM     32  C   UNL     1      47.014   1.004   7.242  0.00  0.00    +0.000 C 
ATOM     33  C   UNL     1      46.140   1.483   8.397  0.00  0.00    +0.000 C 
BRANCH  31  34
ATOM     34  O   UNL     1      48.564   1.670   5.513  0.00  0.00    +0.000 OA
ATOM     35  H   UNL     1      48.754   2.416   4.919  0.00  0.00    +0.000 HD
ENDBRANCH  31  34
ENDBRANCH  25  28
ENDBRANCH  23  24
ENDBRANCH   4  23
TORSDOF 7
ENDMDL
MODEL 2
REMARK VINA RESULT:    -9.186      2.143      2.379
REMARK INTER + INTRA:         -13.733
REMARK INTER:                 -12.903
REMARK INTRA:                  -0.829
REMARK UNBOUND:                -1.056
REMARK  Name = 
REMARK  7 active torsions:
REMARK  status: ('A' for Active; 'I' for Inactive)
REMARK    1  A    between atoms: C_2  and  C_22
REMARK    2  A    between atoms: N_3  and  C_4
REMARK    3  A    between atoms: C_4  and  C_5
REMARK    4  A    between atoms: C_8  and  C_9
REMARK    5  A    between atoms: C_9  and  N_10
REMARK    6  A    between atoms: C_11  and  C_13
REMARK    7  A    between atoms: C_16  and  O_17
REMARK                            x       y       z     vdW  Elec       q    Type
REMARK                         _______ _______ _______ _____ _____    ______ ____
ROOT
ATOM      1  C   UNL     1      47.433   5.967  14.137  0.00  0.00    +0.000 A 
ATOM      2  C   UNL     1      46.922   6.340  12.898  0.00  0.00    +0.000 A 
ATOM      3  C   UNL     1      46.060   5.485  12.209  0.00  0.00    +0.000 A 
ATOM      4  C   UNL     1      45.712   4.257  12.773  0.00  0.00    +0.000 A 
ATOM      5  N   UNL     1      46.189   3.878  13.988  0.00  0.00    +0.000 NA
ATOM      6  C   UNL     1      47.032   4.731  14.631  0.00  0.00    +0.000 A 
ENDROOT
BRANCH   1   7
ATOM      7  C   UNL     1      48.338   6.879  14.910  0.00  0.00    +0.000 C 
BRANCH   7  10
ATOM      8  O   UNL     1      48.530   6.124  17.565  0.00  0.00    +0.000 OA
ATOM      9  C   UNL     1      49.474   5.860  16.814  0.00  0.00    +0.000 C 
ATOM     10  N   UNL     1      49.486   6.233  15.489  0.00  0.00    +0.000 N 
ATOM     11  H   UNL     1      50.138   5.778  14.859  0.00  0.00    +0.000 HD
BRANCH   9  12
ATOM     12  C   UNL     1      50.664   5.161  17.289  0.00  0.00    +0.000 A 
ATOM     13  C   UNL     1      51.778   5.812  17.804  0.00  0.00    +0.000 A 
ATOM     14  S   UNL     1      53.015   4.727  18.291  0.00  0.00    +0.000 S 
ATOM     15  C   UNL     1      52.084   3.374  17.847  0.00  0.00    +0.000 A 
ATOM     16  N   UNL     1      52.551   2.106  17.989  0.00  0.00    +0.000 NA
ATOM     17  C   UNL     1      51.712   1.185  17.642  0.00  0.00    +0.000 A 
ATOM     18  N   UNL     1      50.447   1.415  17.172  0.00  0.00    +0.000 N 
ATOM     19  C   UNL     1      49.941   2.664  16.959  0.00  0.00    +0.000 A 
ATOM     20  O   UNL     1      48.856   2.822  16.418  0.00  0.00    +0.000 OA
ATOM     21  C   UNL     1      50.851   3.738  17.342  0.00  0.00    +0.000 A 
ATOM     22  H   UNL     1      49.844   0.653  16.898  0.00  0.00    +0.000 HD
ENDBRANCH   9  12
ENDBRANCH   7  10
ENDBRANCH   1   7
BRANCH   4  23
ATOM     23  C   UNL     1      44.802   3.279  12.051  0.00  0.00    +0.000 C 
BRANCH  23  24
ATOM     24  N   UNL     1      45.256   2.884  10.723  0.00  0.00    +0.000 N 
ATOM     25  C   UNL     1      44.682   3.379   9.586  0.00  0.00    +0.000 C 
ATOM     26  O   UNL     1      43.718   4.159   9.622  0.00  0.00    +0.000 OA
ATOM     27  H   UNL     1      45.896   2.106  10.633  0.00  0.00    +0.000 HD
BRANCH  25  28
ATOM     28  C   UNL     1      45.319   2.905   8.279  0.00  0.00    +0.000 C 
ATOM     29  C   UNL     1      46.290   3.975   7.751  0.00  0.00    +0.000 C 
ATOM     30  C   UNL     1      47.073   3.510   6.531  0.00  0.00    +0.000 C 
ATOM     31  C   UNL     1      47.817   2.212   6.829  0.00  0.00    +0.000 C 
ATOM     32  C   UNL     1      46.845   1.125   7.281  0.00  0.00    +0.000 C 
ATOM     33  C   UNL     1      46.033   1.562   8.497  0.00  0.00    +0.000 C 
BRANCH  31  34
ATOM     34  O   UNL     1      48.522   1.781   5.671  0.00  0.00    +0.000 OA
ATOM     35  H   UNL     1      48.664   0.821   5.736  0.00  0.00    +0.000 HD
ENDBRANCH  31  34
ENDBRANCH  25  28
ENDBRANCH  23  24
ENDBRANCH   4  23
TORSDOF 7
ENDMDL
MODEL 3
REMARK VINA RESULT:    -9.033      1.595      1.840
REMARK INTER + INTRA:         -13.522
REMARK INTER:                 -12.502
REMARK INTRA:                  -1.020
REMARK UNBOUND:                -1.056
REMARK  Name = 
REMARK  7 active torsions:
REMARK  status: ('A' for Active; 'I' for Inactive)
REMARK    1  A    between atoms: C_2  and  C_22
REMARK    2  A    between atoms: N_3  and  C_4
REMARK    3  A    between atoms: C_4  and  C_5
REMARK    4  A    between atoms: C_8  and  C_9
REMARK    5  A    between atoms: C_9  and  N_10
REMARK    6  A    between atoms: C_11  and  C_13
REMARK    7  A    between atoms: C_16  and  O_17
REMARK                            x       y       z     vdW  Elec       q    Type
REMARK                         _______ _______ _______ _____ _____    ______ ____
ROOT
ATOM      1  C   UNL     1      47.360   6.190  13.722  0.00  0.00    +0.000 A 
ATOM      2  C   UNL     1      46.681   6.515  12.552  0.00  0.00    +0.000 A 
ATOM      3  C   UNL     1      45.831   5.583  11.953  0.00  0.00    +0.000 A 
ATOM      4  C   UNL     1      45.666   4.328  12.538  0.00  0.00    +0.000 A 
ATOM      5  N   UNL     1      46.309   3.994  13.689  0.00  0.00    +0.000 NA
ATOM      6  C   UNL     1      47.135   4.922  14.244  0.00  0.00    +0.000 A 
ENDROOT
BRANCH   1   7
ATOM      7  C   UNL     1      48.257   7.184  14.401  0.00  0.00    +0.000 C 
BRANCH   7  10
ATOM      8  O   UNL     1      50.556   7.134  15.939  0.00  0.00    +0.000 OA
ATOM      9  C   UNL     1      49.465   7.114  16.519  0.00  0.00    +0.000 C 
ATOM     10  N   UNL     1      48.270   7.094  15.837  0.00  0.00    +0.000 N 
ATOM     11  H   UNL     1      47.420   7.343  16.332  0.00  0.00    +0.000 HD
BRANCH   9  12
ATOM     12  C   UNL     1      49.367   7.076  17.974  0.00  0.00    +0.000 A 
ATOM     13  C   UNL     1      49.513   8.199  18.780  0.00  0.00    +0.000 A 
ATOM     14  S   UNL     1      49.335   7.846  20.450  0.00  0.00    +0.000 S 
ATOM     15  C   UNL     1      49.040   6.201  20.131  0.00  0.00    +0.000 A 
ATOM     16  N   UNL     1      48.812   5.308  21.129  0.00  0.00    +0.000 NA
ATOM     17  C   UNL     1      48.568   4.105  20.725  0.00  0.00    +0.000 A 
ATOM     18  N   UNL     1      48.524   3.713  19.413  0.00  0.00    +0.000 N 
ATOM     19  C   UNL     1      48.793   4.551  18.371  0.00  0.00    +0.000 A 
ATOM     20  O   UNL     1      48.869   4.129  17.225  0.00  0.00    +0.000 OA
ATOM     21  C   UNL     1      49.069   5.924  18.778  0.00  0.00    +0.000 A 
ATOM     22  H   UNL     1      48.346   2.751  19.160  0.00  0.00    +0.000 HD
ENDBRANCH   9  12
ENDBRANCH   7  10
ENDBRANCH   1   7
BRANCH   4  23
ATOM     23  C   UNL     1      44.776   3.269  11.910  0.00  0.00    +0.000 C 
BRANCH  23  24
ATOM     24  N   UNL     1      45.207   2.806  10.597  0.00  0.00    +0.000 N 
ATOM     25  C   UNL     1      44.720   3.351   9.443  0.00  0.00    +0.000 C 
ATOM     26  O   UNL     1      43.857   4.242   9.450  0.00  0.00    +0.000 OA
ATOM     27  H   UNL     1      45.751   1.955  10.529  0.00  0.00    +0.000 HD
BRANCH  25  28
ATOM     28  C   UNL     1      45.323   2.789   8.155  0.00  0.00    +0.000 C 
ATOM     29  C   UNL     1      46.203   3.853   7.479  0.00  0.00    +0.000 C 
ATOM     30  C   UNL     1      46.955   3.316   6.269  0.00  0.00    +0.000 C 
ATOM     31  C   UNL     1      47.788   2.094   6.649  0.00  0.00    +0.000 C 
ATOM     32  C   UNL     1      46.904   1.005   7.251  0.00  0.00    +0.000 C 
ATOM     33  C   UNL     1      46.124   1.513   8.461  0.00  0.00    +0.000 C 
BRANCH  31  34
ATOM     34  O   UNL     1      48.462   1.592   5.502  0.00  0.00    +0.000 OA
ATOM     35  H   UNL     1      49.068   0.886   5.785  0.00  0.00    +0.000 HD
ENDBRANCH  31  34
ENDBRANCH  25  28
ENDBRANCH  23  24
ENDBRANCH   4  23
TORSDOF 7
ENDMDL
MODEL 4
REMARK VINA RESULT:    -8.673      1.816      2.212
REMARK INTER + INTRA:         -13.025
REMARK INTER:                 -12.067
REMARK INTRA:                  -0.959
REMARK UNBOUND:                -1.056
REMARK  Name = 
REMARK  7 active torsions:
REMARK  status: ('A' for Active; 'I' for Inactive)
REMARK    1  A    between atoms: C_2  and  C_22
REMARK    2  A    between atoms: N_3  and  C_4
REMARK    3  A    between atoms: C_4  and  C_5
REMARK    4  A    between atoms: C_8  and  C_9
REMARK    5  A    between atoms: C_9  and  N_10
REMARK    6  A    between atoms: C_11  and  C_13
REMARK    7  A    between atoms: C_16  and  O_17
REMARK                            x       y       z     vdW  Elec       q    Type
REMARK                         _______ _______ _______ _____ _____    ______ ____
ROOT
ATOM      1  C   UNL     1      46.935   7.112  13.230  0.00  0.00    +0.000 A 
ATOM      2  C   UNL     1      45.911   7.903  12.717  0.00  0.00    +0.000 A 
ATOM      3  C   UNL     1      44.977   7.355  11.836  0.00  0.00    +0.000 A 
ATOM      4  C   UNL     1      45.075   6.010  11.477  0.00  0.00    +0.000 A 
ATOM      5  N   UNL     1      46.059   5.216  11.976  0.00  0.00    +0.000 NA
ATOM      6  C   UNL     1      46.957   5.781  12.828  0.00  0.00    +0.000 A 
ENDROOT
BRANCH   1   7
ATOM      7  C   UNL     1      47.934   7.668  14.200  0.00  0.00    +0.000 C 
BRANCH   7  10
ATOM      8  O   UNL     1      50.128   6.606  15.509  0.00  0.00    +0.000 OA
ATOM      9  C   UNL     1      49.042   6.608  16.098  0.00  0.00    +0.000 C 
ATOM     10  N   UNL     1      47.889   7.076  15.511  0.00  0.00    +0.000 N 
ATOM     11  H   UNL     1      47.096   7.303  16.103  0.00  0.00    +0.000 HD
BRANCH   9  12
ATOM     12  C   UNL     1      48.898   6.079  17.450  0.00  0.00    +0.000 A 
ATOM     13  C   UNL     1      49.259   4.786  17.807  0.00  0.00    +0.000 A 
ATOM     14  S   UNL     1      48.985   4.454  19.468  0.00  0.00    +0.000 S 
ATOM     15  C   UNL     1      48.403   6.029  19.747  0.00  0.00    +0.000 A 
ATOM     16  N   UNL     1      47.979   6.428  20.974  0.00  0.00    +0.000 NA
ATOM     17  C   UNL     1      47.601   7.663  21.033  0.00  0.00    +0.000 A 
ATOM     18  N   UNL     1      47.615   8.538  19.980  0.00  0.00    +0.000 N 
ATOM     19  C   UNL     1      47.982   8.182  18.715  0.00  0.00    +0.000 A 
ATOM     20  O   UNL     1      47.857   8.960  17.780  0.00  0.00    +0.000 OA
ATOM     21  C   UNL     1      48.422   6.797  18.599  0.00  0.00    +0.000 A 
ATOM     22  H   UNL     1      47.289   9.488  20.085  0.00  0.00    +0.000 HD
ENDBRANCH   9  12
ENDBRANCH   7  10
ENDBRANCH   1   7
BRANCH   4  23
ATOM     23  C   UNL     1      44.101   5.375  10.499  0.00  0.00    +0.000 C 
BRANCH  23  24
ATOM     24  N   UNL     1      44.724   4.647   9.400  0.00  0.00    +0.000 N 
ATOM     25  C   UNL     1      44.568   3.298   9.246  0.00  0.00    +0.000 C 
ATOM     26  O   UNL     1      43.921   2.615  10.055  0.00  0.00    +0.000 OA
ATOM     27  H   UNL     1      45.420   5.114   8.832  0.00  0.00    +0.000 HD
BRANCH  25  28
ATOM     28  C   UNL     1      45.240   2.704   8.007  0.00  0.00    +0.000 C 
ATOM     29  C   UNL     1      46.075   3.783   7.296  0.00  0.00    +0.000 C 
ATOM     30  C   UNL     1      46.893   3.227   6.138  0.00  0.00    +0.000 C 
ATOM     31  C   UNL     1      47.785   2.081   6.606  0.00  0.00    +0.000 C 
ATOM     32  C   UNL     1      46.949   0.974   7.246  0.00  0.00    +0.000 C 
ATOM     33  C   UNL     1      46.106   1.499   8.404  0.00  0.00    +0.000 C 
BRANCH  31  34
ATOM     34  O   UNL     1      48.521   1.560   5.507  0.00  0.00    +0.000 OA
ATOM     35  H   UNL     1      48.273   0.627   5.385  0.00  0.00    +0.000 HD
ENDBRANCH  31  34
ENDBRANCH  25  28
ENDBRANCH  23  24
ENDBRANCH   4  23
TORSDOF 7
ENDMDL
MODEL 5
REMARK VINA RESULT:    -8.641      2.510      4.288
REMARK INTER + INTRA:         -12.981
REMARK INTER:                 -11.825
REMARK INTRA:                  -1.156
REMARK UNBOUND:                -1.056
REMARK  Name = 
REMARK  7 active torsions:
REMARK  status: ('A' for Active; 'I' for Inactive)
REMARK    1  A    between atoms: C_2  and  C_22
REMARK    2  A    between atoms: N_3  and  C_4
REMARK    3  A    between atoms: C_4  and  C_5
REMARK    4  A    between atoms: C_8  and  C_9
REMARK    5  A    between atoms: C_9  and  N_10
REMARK    6  A    between atoms: C_11  and  C_13
REMARK    7  A    between atoms: C_16  and  O_17
REMARK                            x       y       z     vdW  Elec       q    Type
REMARK                         _______ _______ _______ _____ _____    ______ ____
ROOT
ATOM      1  C   UNL     1      46.915   4.871  14.230  0.00  0.00    +0.000 A 
ATOM      2  C   UNL     1      45.921   5.656  13.653  0.00  0.00    +0.000 A 
ATOM      3  C   UNL     1      44.985   5.081  12.792  0.00  0.00    +0.000 A 
ATOM      4  C   UNL     1      45.050   3.714  12.518  0.00  0.00    +0.000 A 
ATOM      5  N   UNL     1      46.004   2.926  13.081  0.00  0.00    +0.000 NA
ATOM      6  C   UNL     1      46.905   3.518  13.911  0.00  0.00    +0.000 A 
ENDROOT
BRANCH   1   7
ATOM      7  C   UNL     1      47.915   5.459  15.181  0.00  0.00    +0.000 C 
BRANCH   7  10
ATOM      8  O   UNL     1      50.404   6.599  15.579  0.00  0.00    +0.000 OA
ATOM      9  C   UNL     1      49.499   7.314  15.137  0.00  0.00    +0.000 C 
ATOM     10  N   UNL     1      48.219   6.846  14.947  0.00  0.00    +0.000 N 
ATOM     11  H   UNL     1      47.590   7.371  14.348  0.00  0.00    +0.000 HD
BRANCH   9  12
ATOM     12  C   UNL     1      49.715   8.721  14.817  0.00  0.00    +0.000 A 
ATOM     13  C   UNL     1      50.095   9.669  15.759  0.00  0.00    +0.000 A 
ATOM     14  S   UNL     1      50.284  11.236  15.085  0.00  0.00    +0.000 S 
ATOM     15  C   UNL     1      49.887  10.678  13.527  0.00  0.00    +0.000 A 
ATOM     16  N   UNL     1      49.847  11.514  12.457  0.00  0.00    +0.000 NA
ATOM     17  C   UNL     1      49.566  10.934  11.336  0.00  0.00    +0.000 A 
ATOM     18  N   UNL     1      49.327   9.594  11.187  0.00  0.00    +0.000 N 
ATOM     19  C   UNL     1      49.303   8.715  12.230  0.00  0.00    +0.000 A 
ATOM     20  O   UNL     1      48.959   7.552  12.068  0.00  0.00    +0.000 OA
ATOM     21  C   UNL     1      49.621   9.323  13.516  0.00  0.00    +0.000 A 
ATOM     22  H   UNL     1      49.093   9.201  10.286  0.00  0.00    +0.000 HD
ENDBRANCH   9  12
ENDBRANCH   7  10
ENDBRANCH   1   7
BRANCH   4  23
ATOM     23  C   UNL     1      44.074   3.046  11.565  0.00  0.00    +0.000 C 
BRANCH  23  24
ATOM     24  N   UNL     1      44.649   2.621  10.296  0.00  0.00    +0.000 N 
ATOM     25  C   UNL     1      44.564   3.390   9.169  0.00  0.00    +0.000 C 
ATOM     26  O   UNL     1      43.958   4.472   9.157  0.00  0.00    +0.000 OA
ATOM     27  H   UNL     1      44.976   1.668  10.198  0.00  0.00    +0.000 HD
BRANCH  25  28
ATOM     28  C   UNL     1      45.273   2.821   7.940  0.00  0.00    +0.000 C 
ATOM     29  C   UNL     1      46.194   3.888   7.325  0.00  0.00    +0.000 C 
ATOM     30  C   UNL     1      47.046   3.347   6.185  0.00  0.00    +0.000 C 
ATOM     31  C   UNL     1      47.857   2.138   6.643  0.00  0.00    +0.000 C 
ATOM     32  C   UNL     1      46.938   1.046   7.184  0.00  0.00    +0.000 C 
ATOM     33  C   UNL     1      46.059   1.557   8.322  0.00  0.00    +0.000 C 
BRANCH  31  34
ATOM     34  O   UNL     1      48.626   1.632   5.559  0.00  0.00    +0.000 OA
ATOM     35  H   UNL     1      48.718   2.334   4.893  0.00  0.00    +0.000 HD
ENDBRANCH  31  34
ENDBRANCH  25  28
ENDBRANCH  23  24
ENDBRANCH   4  23
TORSDOF 7
ENDMDL
MODEL 6
REMARK VINA RESULT:    -8.595      2.299      3.371
REMARK INTER + INTRA:         -12.917
REMARK INTER:                 -11.871
REMARK INTRA:                  -1.046
REMARK UNBOUND:                -1.056
REMARK  Name = 
REMARK  7 active torsions:
REMARK  status: ('A' for Active; 'I' for Inactive)
REMARK    1  A    between atoms: C_2  and  C_22
REMARK    2  A    between atoms: N_3  and  C_4
REMARK    3  A    between atoms: C_4  and  C_5
REMARK    4  A    between atoms: C_8  and  C_9
REMARK    5  A    between atoms: C_9  and  N_10
REMARK    6  A    between atoms: C_11  and  C_13
REMARK    7  A    between atoms: C_16  and  O_17
REMARK                            x       y       z     vdW  Elec       q    Type
REMARK                         _______ _______ _______ _____ _____    ______ ____
ROOT
ATOM      1  C   UNL     1      47.032   4.790  14.419  0.00  0.00    +0.000 A 
ATOM      2  C   UNL     1      47.014   6.035  13.797  0.00  0.00    +0.000 A 
ATOM      3  C   UNL     1      46.260   6.229  12.639  0.00  0.00    +0.000 A 
ATOM      4  C   UNL     1      45.522   5.169  12.112  0.00  0.00    +0.000 A 
ATOM      5  N   UNL     1      45.514   3.948  12.710  0.00  0.00    +0.000 NA
ATOM      6  C   UNL     1      46.264   3.789  13.835  0.00  0.00    +0.000 A 
ENDROOT
BRANCH   1   7
ATOM      7  C   UNL     1      47.811   4.563  15.681  0.00  0.00    +0.000 C 
BRANCH   7  10
ATOM      8  O   UNL     1      49.806   5.660  17.252  0.00  0.00    +0.000 OA
ATOM      9  C   UNL     1      48.650   6.062  17.413  0.00  0.00    +0.000 C 
ATOM     10  N   UNL     1      47.587   5.546  16.707  0.00  0.00    +0.000 N 
ATOM     11  H   UNL     1      46.720   6.072  16.673  0.00  0.00    +0.000 HD
BRANCH   9  12
ATOM     12  C   UNL     1      48.322   7.094  18.391  0.00  0.00    +0.000 A 
ATOM     13  C   UNL     1      48.230   6.852  19.756  0.00  0.00    +0.000 A 
ATOM     14  S   UNL     1      47.841   8.260  20.656  0.00  0.00    +0.000 S 
ATOM     15  C   UNL     1      47.811   9.221  19.252  0.00  0.00    +0.000 A 
ATOM     16  N   UNL     1      47.527  10.548  19.299  0.00  0.00    +0.000 NA
ATOM     17  C   UNL     1      47.579  11.147  18.155  0.00  0.00    +0.000 A 
ATOM     18  N   UNL     1      47.895  10.542  16.968  0.00  0.00    +0.000 N 
ATOM     19  C   UNL     1      48.139   9.205  16.849  0.00  0.00    +0.000 A 
ATOM     20  O   UNL     1      48.290   8.686  15.752  0.00  0.00    +0.000 OA
ATOM     21  C   UNL     1      48.097   8.486  18.118  0.00  0.00    +0.000 A 
ATOM     22  H   UNL     1      47.901  11.061  16.101  0.00  0.00    +0.000 HD
ENDBRANCH   9  12
ENDBRANCH   7  10
ENDBRANCH   1   7
BRANCH   4  23
ATOM     23  C   UNL     1      44.709   5.321  10.838  0.00  0.00    +0.000 C 
BRANCH  23  24
ATOM     24  N   UNL     1      45.236   4.601   9.685  0.00  0.00    +0.000 N 
ATOM     25  C   UNL     1      44.733   3.392   9.296  0.00  0.00    +0.000 C 
ATOM     26  O   UNL     1      43.828   2.823   9.926  0.00  0.00    +0.000 OA
ATOM     27  H   UNL     1      46.098   4.917   9.260  0.00  0.00    +0.000 HD
BRANCH  25  28
ATOM     28  C   UNL     1      45.361   2.804   8.032  0.00  0.00    +0.000 C 
ATOM     29  C   UNL     1      46.225   3.867   7.332  0.00  0.00    +0.000 C 
ATOM     30  C   UNL     1      47.002   3.310   6.147  0.00  0.00    +0.000 C 
ATOM     31  C   UNL     1      47.857   2.120   6.573  0.00  0.00    +0.000 C 
ATOM     32  C   UNL     1      46.991   1.030   7.200  0.00  0.00    +0.000 C 
ATOM     33  C   UNL     1      46.187   1.557   8.385  0.00  0.00    +0.000 C 
BRANCH  31  34
ATOM     34  O   UNL     1      48.555   1.599   5.448  0.00  0.00    +0.000 OA
ATOM     35  H   UNL     1      49.333   2.157   5.283  0.00  0.00    +0.000 HD
ENDBRANCH  31  34
ENDBRANCH  25  28
ENDBRANCH  23  24
ENDBRANCH   4  23
TORSDOF 7
ENDMDL
MODEL 7
REMARK VINA RESULT:    -8.430      2.423      3.094
REMARK INTER + INTRA:         -12.689
REMARK INTER:                 -11.686
REMARK INTRA:                  -1.004
REMARK UNBOUND:                -1.056
REMARK  Name = 
REMARK  7 active torsions:
REMARK  status: ('A' for Active; 'I' for Inactive)
REMARK    1  A    between atoms: C_2  and  C_22
REMARK    2  A    between atoms: N_3  and  C_4
REMARK    3  A    between atoms: C_4  and  C_5
REMARK    4  A    between atoms: C_8  and  C_9
REMARK    5  A    between atoms: C_9  and  N_10
REMARK    6  A    between atoms: C_11  and  C_13
REMARK    7  A    between atoms: C_16  and  O_17
REMARK                            x       y       z     vdW  Elec       q    Type
REMARK                         _______ _______ _______ _____ _____    ______ ____
ROOT
ATOM      1  C   UNL     1      47.245   6.022  13.861  0.00  0.00    +0.000 A 
ATOM      2  C   UNL     1      46.497   6.466  12.775  0.00  0.00    +0.000 A 
ATOM      3  C   UNL     1      45.627   5.593  12.120  0.00  0.00    +0.000 A 
ATOM      4  C   UNL     1      45.510   4.276  12.563  0.00  0.00    +0.000 A 
ATOM      5  N   UNL     1      46.222   3.824  13.631  0.00  0.00    +0.000 NA
ATOM      6  C   UNL     1      47.065   4.698  14.244  0.00  0.00    +0.000 A 
ENDROOT
BRANCH   1   7
ATOM      7  C   UNL     1      48.166   6.948  14.600  0.00  0.00    +0.000 C 
BRANCH   7  10
ATOM      8  O   UNL     1      48.888   7.486  17.216  0.00  0.00    +0.000 OA
ATOM      9  C   UNL     1      49.502   6.601  16.611  0.00  0.00    +0.000 C 
ATOM     10  N   UNL     1      49.241   6.293  15.296  0.00  0.00    +0.000 N 
ATOM     11  H   UNL     1      49.570   5.406  14.926  0.00  0.00    +0.000 HD
BRANCH   9  12
ATOM     12  C   UNL     1      50.575   5.839  17.242  0.00  0.00    +0.000 A 
ATOM     13  C   UNL     1      50.355   4.857  18.199  0.00  0.00    +0.000 A 
ATOM     14  S   UNL     1      51.808   4.128  18.749  0.00  0.00    +0.000 S 
ATOM     15  C   UNL     1      52.752   5.088  17.710  0.00  0.00    +0.000 A 
ATOM     16  N   UNL     1      54.107   4.986  17.674  0.00  0.00    +0.000 NA
ATOM     17  C   UNL     1      54.678   5.756  16.808  0.00  0.00    +0.000 A 
ATOM     18  N   UNL     1      54.020   6.614  15.968  0.00  0.00    +0.000 N 
ATOM     19  C   UNL     1      52.669   6.798  15.992  0.00  0.00    +0.000 A 
ATOM     20  O   UNL     1      52.138   7.667  15.315  0.00  0.00    +0.000 OA
ATOM     21  C   UNL     1      51.978   5.945  16.952  0.00  0.00    +0.000 A 
ATOM     22  H   UNL     1      54.525   7.206  15.324  0.00  0.00    +0.000 HD
ENDBRANCH   9  12
ENDBRANCH   7  10
ENDBRANCH   1   7
BRANCH   4  23
ATOM     23  C   UNL     1      44.600   3.279  11.867  0.00  0.00    +0.000 C 
BRANCH  23  24
ATOM     24  N   UNL     1      45.073   2.821  10.566  0.00  0.00    +0.000 N 
ATOM     25  C   UNL     1      44.660   3.403   9.401  0.00  0.00    +0.000 C 
ATOM     26  O   UNL     1      43.831   4.325   9.385  0.00  0.00    +0.000 OA
ATOM     27  H   UNL     1      45.588   1.952  10.508  0.00  0.00    +0.000 HD
BRANCH  25  28
ATOM     28  C   UNL     1      45.300   2.839   8.131  0.00  0.00    +0.000 C 
ATOM     29  C   UNL     1      46.186   3.909   7.471  0.00  0.00    +0.000 C 
ATOM     30  C   UNL     1      46.973   3.372   6.283  0.00  0.00    +0.000 C 
ATOM     31  C   UNL     1      47.808   2.161   6.691  0.00  0.00    +0.000 C 
ATOM     32  C   UNL     1      46.921   1.067   7.278  0.00  0.00    +0.000 C 
ATOM     33  C   UNL     1      46.106   1.574   8.465  0.00  0.00    +0.000 C 
BRANCH  31  34
ATOM     34  O   UNL     1      48.516   1.660   5.564  0.00  0.00    +0.000 OA
ATOM     35  H   UNL     1      48.650   2.389   4.935  0.00  0.00    +0.000 HD
ENDBRANCH  31  34
ENDBRANCH  25  28
ENDBRANCH  23  24
ENDBRANCH   4  23
TORSDOF 7
ENDMDL
MODEL 8
REMARK VINA RESULT:    -8.367      3.367      4.636
REMARK INTER + INTRA:         -12.602
REMARK INTER:                 -11.444
REMARK INTRA:                  -1.158
REMARK UNBOUND:                -1.056
REMARK  Name = 
REMARK  7 active torsions:
REMARK  status: ('A' for Active; 'I' for Inactive)
REMARK    1  A    between atoms: C_2  and  C_22
REMARK    2  A    between atoms: N_3  and  C_4
REMARK    3  A    between atoms: C_4  and  C_5
REMARK    4  A    between atoms: C_8  and  C_9
REMARK    5  A    between atoms: C_9  and  N_10
REMARK    6  A    between atoms: C_11  and  C_13
REMARK    7  A    between atoms: C_16  and  O_17
REMARK                            x       y       z     vdW  Elec       q    Type
REMARK                         _______ _______ _______ _____ _____    ______ ____
ROOT
ATOM      1  C   UNL     1      47.443   6.076  13.934  0.00  0.00    +0.000 A 
ATOM      2  C   UNL     1      46.872   6.442  12.719  0.00  0.00    +0.000 A 
ATOM      3  C   UNL     1      46.001   5.570  12.063  0.00  0.00    +0.000 A 
ATOM      4  C   UNL     1      45.706   4.333  12.635  0.00  0.00    +0.000 A 
ATOM      5  N   UNL     1      46.241   3.960  13.827  0.00  0.00    +0.000 NA
ATOM      6  C   UNL     1      47.091   4.830  14.439  0.00  0.00    +0.000 A 
ENDROOT
BRANCH   1   7
ATOM      7  C   UNL     1      48.358   7.006  14.674  0.00  0.00    +0.000 C 
BRANCH   7  10
ATOM      8  O   UNL     1      49.684   9.423  14.436  0.00  0.00    +0.000 OA
ATOM      9  C   UNL     1      50.256   8.402  14.040  0.00  0.00    +0.000 C 
ATOM     10  N   UNL     1      49.659   7.163  14.079  0.00  0.00    +0.000 N 
ATOM     11  H   UNL     1      50.242   6.336  13.998  0.00  0.00    +0.000 HD
BRANCH   9  12
ATOM     12  C   UNL     1      51.598   8.444  13.469  0.00  0.00    +0.000 A 
ATOM     13  C   UNL     1      52.733   8.757  14.206  0.00  0.00    +0.000 A 
ATOM     14  S   UNL     1      54.168   8.715  13.266  0.00  0.00    +0.000 S 
ATOM     15  C   UNL     1      53.310   8.259  11.869  0.00  0.00    +0.000 A 
ATOM     16  N   UNL     1      53.934   8.060  10.679  0.00  0.00    +0.000 NA
ATOM     17  C   UNL     1      53.151   7.681   9.722  0.00  0.00    +0.000 A 
ATOM     18  N   UNL     1      51.803   7.478   9.847  0.00  0.00    +0.000 N 
ATOM     19  C   UNL     1      51.113   7.711  11.001  0.00  0.00    +0.000 A 
ATOM     20  O   UNL     1      49.892   7.640  11.031  0.00  0.00    +0.000 OA
ATOM     21  C   UNL     1      51.956   8.135  12.113  0.00  0.00    +0.000 A 
ATOM     22  H   UNL     1      51.240   7.200   9.056  0.00  0.00    +0.000 HD
ENDBRANCH   9  12
ENDBRANCH   7  10
ENDBRANCH   1   7
BRANCH   4  23
ATOM     23  C   UNL     1      44.788   3.337  11.946  0.00  0.00    +0.000 C 
BRANCH  23  24
ATOM     24  N   UNL     1      45.238   2.895  10.632  0.00  0.00    +0.000 N 
ATOM     25  C   UNL     1      44.719   3.412   9.479  0.00  0.00    +0.000 C 
ATOM     26  O   UNL     1      43.809   4.256   9.488  0.00  0.00    +0.000 OA
ATOM     27  H   UNL     1      45.827   2.075  10.563  0.00  0.00    +0.000 HD
BRANCH  25  28
ATOM     28  C   UNL     1      45.346   2.881   8.189  0.00  0.00    +0.000 C 
ATOM     29  C   UNL     1      46.309   3.927   7.604  0.00  0.00    +0.000 C 
ATOM     30  C   UNL     1      47.083   3.408   6.400  0.00  0.00    +0.000 C 
ATOM     31  C   UNL     1      47.834   2.127   6.750  0.00  0.00    +0.000 C 
ATOM     32  C   UNL     1      46.869   1.060   7.261  0.00  0.00    +0.000 C 
ATOM     33  C   UNL     1      46.066   1.550   8.463  0.00  0.00    +0.000 C 
BRANCH  31  34
ATOM     34  O   UNL     1      48.530   1.645   5.608  0.00  0.00    +0.000 OA
ATOM     35  H   UNL     1      48.213   0.747   5.411  0.00  0.00    +0.000 HD
ENDBRANCH  31  34
ENDBRANCH  25  28
ENDBRANCH  23  24
ENDBRANCH   4  23
TORSDOF 7
ENDMDL
MODEL 9
REMARK VINA RESULT:    -8.098      2.119      3.003
REMARK INTER + INTRA:         -12.232
REMARK INTER:                 -11.246
REMARK INTRA:                  -0.986
REMARK UNBOUND:                -1.056
REMARK  Name = 
REMARK  7 active torsions:
REMARK  status: ('A' for Active; 'I' for Inactive)
REMARK    1  A    between atoms: C_2  and  C_22
REMARK    2  A    between atoms: N_3  and  C_4
REMARK    3  A    between atoms: C_4  and  C_5
REMARK    4  A    between atoms: C_8  and  C_9
REMARK    5  A    between atoms: C_9  and  N_10
REMARK    6  A    between atoms: C_11  and  C_13
REMARK    7  A    between atoms: C_16  and  O_17
REMARK                            x       y       z     vdW  Elec       q    Type
REMARK                         _______ _______ _______ _____ _____    ______ ____
ROOT
ATOM      1  C   UNL     1      46.761   4.747  14.410  0.00  0.00    +0.000 A 
ATOM      2  C   UNL     1      47.112   5.863  13.656  0.00  0.00    +0.000 A 
ATOM      3  C   UNL     1      46.449   6.135  12.458  0.00  0.00    +0.000 A 
ATOM      4  C   UNL     1      45.431   5.284  12.025  0.00  0.00    +0.000 A 
ATOM      5  N   UNL     1      45.063   4.197  12.753  0.00  0.00    +0.000 NA
ATOM      6  C   UNL     1      45.732   3.956  13.913  0.00  0.00    +0.000 A 
ENDROOT
BRANCH   1   7
ATOM      7  C   UNL     1      47.438   4.448  15.715  0.00  0.00    +0.000 C 
BRANCH   7  10
ATOM      8  O   UNL     1      47.431   5.228  18.369  0.00  0.00    +0.000 OA
ATOM      9  C   UNL     1      48.182   5.822  17.588  0.00  0.00    +0.000 C 
ATOM     10  N   UNL     1      48.223   5.532  16.244  0.00  0.00    +0.000 N 
ATOM     11  H   UNL     1      49.020   5.845  15.700  0.00  0.00    +0.000 HD
BRANCH   9  12
ATOM     12  C   UNL     1      49.057   6.902  18.033  0.00  0.00    +0.000 A 
ATOM     13  C   UNL     1      48.590   8.080  18.600  0.00  0.00    +0.000 A 
ATOM     14  S   UNL     1      49.854   9.157  19.033  0.00  0.00    +0.000 S 
ATOM     15  C   UNL     1      51.045   8.066  18.496  0.00  0.00    +0.000 A 
ATOM     16  N   UNL     1      52.369   8.362  18.565  0.00  0.00    +0.000 NA
ATOM     17  C   UNL     1      53.150   7.418  18.153  0.00  0.00    +0.000 A 
ATOM     18  N   UNL     1      52.729   6.203  17.683  0.00  0.00    +0.000 N 
ATOM     19  C   UNL     1      51.414   5.868  17.542  0.00  0.00    +0.000 A 
ATOM     20  O   UNL     1      51.084   4.823  16.999  0.00  0.00    +0.000 OA
ATOM     21  C   UNL     1      50.493   6.901  18.001  0.00  0.00    +0.000 A 
ATOM     22  H   UNL     1      53.389   5.511  17.356  0.00  0.00    +0.000 HD
ENDBRANCH   9  12
ENDBRANCH   7  10
ENDBRANCH   1   7
BRANCH   4  23
ATOM     23  C   UNL     1      44.700   5.521  10.715  0.00  0.00    +0.000 C 
BRANCH  23  24
ATOM     24  N   UNL     1      45.229   4.781   9.576  0.00  0.00    +0.000 N 
ATOM     25  C   UNL     1      44.754   3.548   9.230  0.00  0.00    +0.000 C 
ATOM     26  O   UNL     1      43.874   2.974   9.891  0.00  0.00    +0.000 OA
ATOM     27  H   UNL     1      46.075   5.108   9.127  0.00  0.00    +0.000 HD
BRANCH  25  28
ATOM     28  C   UNL     1      45.379   2.939   7.974  0.00  0.00    +0.000 C 
ATOM     29  C   UNL     1      46.301   3.968   7.297  0.00  0.00    +0.000 C 
ATOM     30  C   UNL     1      47.074   3.383   6.123  0.00  0.00    +0.000 C 
ATOM     31  C   UNL     1      47.869   2.154   6.556  0.00  0.00    +0.000 C 
ATOM     32  C   UNL     1      46.945   1.100   7.161  0.00  0.00    +0.000 C 
ATOM     33  C   UNL     1      46.143   1.656   8.335  0.00  0.00    +0.000 C 
BRANCH  31  34
ATOM     34  O   UNL     1      48.564   1.609   5.442  0.00  0.00    +0.000 OA
ATOM     35  H   UNL     1      48.986   0.778   5.719  0.00  0.00    +0.000 HD
ENDBRANCH  31  34
ENDBRANCH  25  28
ENDBRANCH  23  24
ENDBRANCH   4  23
TORSDOF 7
ENDMDL
