MODEL 1
REMARK VINA RESULT:    -9.295      0.000      0.000
REMARK INTER + INTRA:         -11.583
REMARK INTER:                 -10.925
REMARK INTRA:                  -0.658
REMARK UNBOUND:                -0.658
REMARK  Name = 
REMARK  5 active torsions:
REMARK  status: ('A' for Active; 'I' for Inactive)
REMARK    1  A    between atoms: C_1  and  C_2
REMARK    2  A    between atoms: C_9  and  C_10
REMARK    3  A    between atoms: C_10  and  N_11
REMARK    4  A    between atoms: C_15  and  C_16
REMARK    5  A    between atoms: C_25  and  C_26
REMARK                            x       y       z     vdW  Elec       q    Type
REMARK                         _______ _______ _______ _____ _____    ______ ____
ROOT
ATOM      1  C   UNL     1      43.995   4.848  11.470  0.00  0.00    +0.000 C 
ATOM      2  C   UNL     1      43.232   6.152  11.351  0.00  0.00    +0.000 C 
ATOM      3  C   UNL     1      42.574   5.011  12.044  0.00  0.00    +0.000 C 
ENDROOT
BRANCH   1  12
ATOM      4  C   UNL     1      49.451   7.381  11.706  0.00  0.00    +0.000 C 
ATOM      5  C   UNL     1      49.190   8.401  12.818  0.00  0.00    +0.000 C 
ATOM      6  C   UNL     1      48.503   7.776  14.066  0.00  0.00    +0.000 C 
ATOM      7  N   UNL     1      47.077   7.537  13.851  0.00  0.00    +0.000 N 
ATOM      8  C   UNL     1      46.676   6.246  13.561  0.00  0.00    +0.000 A 
ATOM      9  N   UNL     1      47.413   5.196  13.949  0.00  0.00    +0.000 NA
ATOM     10  C   UNL     1      46.969   3.968  13.610  0.00  0.00    +0.000 A 
ATOM     11  C   UNL     1      45.840   3.746  12.863  0.00  0.00    +0.000 A 
ATOM     12  C   UNL     1      45.147   4.874  12.477  0.00  0.00    +0.000 A 
ATOM     13  N   UNL     1      45.540   6.098  12.884  0.00  0.00    +0.000 NA
ATOM     14  C   UNL     1      46.324   8.647  13.242  0.00  0.00    +0.000 C 
ATOM     15  C   UNL     1      47.053   9.248  12.010  0.00  0.00    +0.000 C 
ATOM     16  C   UNL     1      46.342  10.522  11.543  0.00  0.00    +0.000 C 
ATOM     17  N   UNL     1      48.470   9.588  12.291  0.00  0.00    +0.000 NA
ATOM     18  H   UNL     1      48.475  10.298  13.023  0.00  0.00    +0.000 HD
ENDBRANCH   1  12
BRANCH   1  19
ATOM     19  N   UNL     1      44.028   3.742  10.513  0.00  0.00    +0.000 N 
ATOM     20  C   UNL     1      44.974   3.509   9.529  0.00  0.00    +0.000 A 
ATOM     21  C   UNL     1      45.574   4.506   8.770  0.00  0.00    +0.000 A 
ATOM     22  C   UNL     1      46.391   4.143   7.690  0.00  0.00    +0.000 A 
ATOM     23  C   UNL     1      46.596   2.793   7.411  0.00  0.00    +0.000 A 
ATOM     24  C   UNL     1      46.003   1.865   8.251  0.00  0.00    +0.000 A 
ATOM     25  N   UNL     1      45.194   2.197   9.284  0.00  0.00    +0.000 NA
ATOM     26  H   UNL     1      43.796   2.826  10.901  0.00  0.00    +0.000 HD
BRANCH  23  27
ATOM     27  C   UNL     1      47.382   2.298   6.264  0.00  0.00    +0.000 C 
ATOM     28  N   UNL     1      47.197   2.915   5.059  0.00  0.00    +0.000 N 
ATOM     29  O   UNL     1      48.140   1.341   6.374  0.00  0.00    +0.000 OA
ATOM     30  H   UNL     1      46.413   3.522   4.873  0.00  0.00    +0.000 HD
ATOM     31  H   UNL     1      47.646   2.477   4.264  0.00  0.00    +0.000 HD
ENDBRANCH  23  27
ENDBRANCH   1  19
TORSDOF 3
ENDMDL
MODEL 2
REMARK VINA RESULT:    -6.635      3.542      6.117
REMARK INTER + INTRA:          -8.457
REMARK INTER:                  -8.637
REMARK INTRA:                   0.180
REMARK UNBOUND:                -0.658
REMARK  Name = 
REMARK  5 active torsions:
REMARK  status: ('A' for Active; 'I' for Inactive)
REMARK    1  A    between atoms: C_1  and  C_2
REMARK    2  A    between atoms: C_9  and  C_10
REMARK    3  A    between atoms: C_10  and  N_11
REMARK    4  A    between atoms: C_15  and  C_16
REMARK    5  A    between atoms: C_25  and  C_26
REMARK                            x       y       z     vdW  Elec       q    Type
REMARK                         _______ _______ _______ _____ _____    ______ ____
ROOT
ATOM      1  C   UNL     1      48.096   7.438  13.758  0.00  0.00    +0.000 C 
ATOM      2  C   UNL     1      48.422   8.123  12.446  0.00  0.00    +0.000 C 
ATOM      3  C   UNL     1      47.495   8.808  13.387  0.00  0.00    +0.000 C 
ENDROOT
BRANCH   1  12
ATOM      4  C   UNL     1      48.566   6.561  19.696  0.00  0.00    +0.000 C 
ATOM      5  C   UNL     1      49.334   5.235  19.679  0.00  0.00    +0.000 C 
ATOM      6  C   UNL     1      50.571   5.264  18.737  0.00  0.00    +0.000 C 
ATOM      7  N   UNL     1      50.197   5.148  17.329  0.00  0.00    +0.000 N 
ATOM      8  C   UNL     1      50.176   6.304  16.570  0.00  0.00    +0.000 A 
ATOM      9  N   UNL     1      50.925   7.362  16.912  0.00  0.00    +0.000 NA
ATOM     10  C   UNL     1      50.835   8.462  16.136  0.00  0.00    +0.000 A 
ATOM     11  C   UNL     1      49.995   8.565  15.056  0.00  0.00    +0.000 A 
ATOM     12  C   UNL     1      49.236   7.447  14.779  0.00  0.00    +0.000 A 
ATOM     13  N   UNL     1      49.385   6.318  15.501  0.00  0.00    +0.000 NA
ATOM     14  C   UNL     1      49.220   4.094  17.007  0.00  0.00    +0.000 C 
ATOM     15  C   UNL     1      48.010   4.096  17.981  0.00  0.00    +0.000 C 
ATOM     16  C   UNL     1      47.134   2.862  17.739  0.00  0.00    +0.000 C 
ATOM     17  N   UNL     1      48.421   4.097  19.406  0.00  0.00    +0.000 NA
ATOM     18  H   UNL     1      48.945   3.238  19.575  0.00  0.00    +0.000 HD
ENDBRANCH   1  12
BRANCH   1  19
ATOM     19  N   UNL     1      47.029   6.473  14.022  0.00  0.00    +0.000 N 
ATOM     20  C   UNL     1      46.429   5.614  13.117  0.00  0.00    +0.000 A 
ATOM     21  C   UNL     1      46.136   5.946  11.801  0.00  0.00    +0.000 A 
ATOM     22  C   UNL     1      45.378   5.058  11.025  0.00  0.00    +0.000 A 
ATOM     23  C   UNL     1      44.947   3.857  11.586  0.00  0.00    +0.000 A 
ATOM     24  C   UNL     1      45.329   3.582  12.889  0.00  0.00    +0.000 A 
ATOM     25  N   UNL     1      46.041   4.437  13.658  0.00  0.00    +0.000 NA
ATOM     26  H   UNL     1      47.130   5.941  14.889  0.00  0.00    +0.000 HD
BRANCH  23  27
ATOM     27  C   UNL     1      44.091   2.879  10.885  0.00  0.00    +0.000 C 
ATOM     28  N   UNL     1      44.528   2.412   9.677  0.00  0.00    +0.000 N 
ATOM     29  O   UNL     1      43.010   2.531  11.345  0.00  0.00    +0.000 OA
ATOM     30  H   UNL     1      45.269   2.856   9.156  0.00  0.00    +0.000 HD
ATOM     31  H   UNL     1      43.867   1.845   9.158  0.00  0.00    +0.000 HD
ENDBRANCH  23  27
ENDBRANCH   1  19
TORSDOF 3
ENDMDL
