MODEL 1
REMARK VINA RESULT:    -9.368      0.000      0.000
REMARK INTER + INTRA:         -13.083
REMARK INTER:                 -12.107
REMARK INTRA:                  -0.976
REMARK UNBOUND:                -0.976
REMARK  Name = 
REMARK  5 active torsions:
REMARK  status: ('A' for Active; 'I' for Inactive)
REMARK    1  A    between atoms: C_2  and  C_4
REMARK    2  A    between atoms: C_7  and  O_8
REMARK    3  A    between atoms: O_8  and  C_9
REMARK    4  A    between atoms: C_9  and  C_10
REMARK    5  A    between atoms: C_14  and  C_15
REMARK                            x       y       z     vdW  Elec       q    Type
REMARK                         _______ _______ _______ _____ _____    ______ ____
ROOT
ATOM      1  C   UNL     1      43.974   4.856  11.459  0.00  0.00    +0.000 C 
ATOM      2  C   UNL     1      42.723   4.995  12.318  0.00  0.00    +0.000 C 
ATOM      3  C   UNL     1      42.962   5.955  11.198  0.00  0.00    +0.000 C 
ENDROOT
BRANCH   1   4
ATOM      4  C   UNL     1      45.325   5.182  12.073  0.00  0.00    +0.000 A 
ATOM      5  C   UNL     1      46.070   6.278  11.615  0.00  0.00    +0.000 A 
ATOM      6  C   UNL     1      47.265   6.649  12.229  0.00  0.00    +0.000 A 
ATOM      7  C   UNL     1      47.723   5.949  13.344  0.00  0.00    +0.000 A 
ATOM      8  C   UNL     1      47.002   4.861  13.864  0.00  0.00    +0.000 A 
ATOM      9  C   UNL     1      45.838   4.468  13.175  0.00  0.00    +0.000 A 
BRANCH   8  10
ATOM     10  C   UNL     1      47.377   4.216  15.139  0.00  0.00    +0.000 A 
ATOM     11  C   UNL     1      47.121   4.825  16.370  0.00  0.00    +0.000 A 
ATOM     12  C   UNL     1      47.410   4.143  17.549  0.00  0.00    +0.000 A 
ATOM     13  C   UNL     1      47.951   2.867  17.478  0.00  0.00    +0.000 A 
ATOM     14  C   UNL     1      48.180   2.327  16.221  0.00  0.00    +0.000 A 
ATOM     15  N   UNL     1      47.898   2.964  15.062  0.00  0.00    +0.000 NA
ENDBRANCH   8  10
ENDBRANCH   1   4
BRANCH   1  16
ATOM     16  O   UNL     1      43.910   3.642  10.672  0.00  0.00    +0.000 OA
BRANCH  16  20
ATOM     17  C   UNL     1      46.472   2.735   7.510  0.00  0.00    +0.000 A 
ATOM     18  C   UNL     1      46.132   4.077   7.731  0.00  0.00    +0.000 A 
ATOM     19  C   UNL     1      45.294   4.425   8.795  0.00  0.00    +0.000 A 
ATOM     20  C   UNL     1      44.786   3.442   9.639  0.00  0.00    +0.000 A 
ATOM     21  C   UNL     1      45.142   2.105   9.431  0.00  0.00    +0.000 A 
ATOM     22  C   UNL     1      45.972   1.749   8.366  0.00  0.00    +0.000 A 
BRANCH  17  24
ATOM     23  N   UNL     1      47.212   3.064   5.214  0.00  0.00    +0.000 N 
ATOM     24  C   UNL     1      47.309   2.320   6.357  0.00  0.00    +0.000 C 
ATOM     25  O   UNL     1      48.074   1.369   6.427  0.00  0.00    +0.000 OA
ATOM     26  H   UNL     1      47.842   2.822   4.463  0.00  0.00    +0.000 HD
ATOM     27  H   UNL     1      46.785   3.979   5.197  0.00  0.00    +0.000 HD
ENDBRANCH  17  24
ENDBRANCH  16  20
ENDBRANCH   1  16
TORSDOF 5
ENDMDL
MODEL 2
REMARK VINA RESULT:    -9.222      1.852      3.190
REMARK INTER + INTRA:         -12.894
REMARK INTER:                 -11.598
REMARK INTRA:                  -1.296
REMARK UNBOUND:                -0.976
REMARK  Name = 
REMARK  5 active torsions:
REMARK  status: ('A' for Active; 'I' for Inactive)
REMARK    1  A    between atoms: C_2  and  C_4
REMARK    2  A    between atoms: C_7  and  O_8
REMARK    3  A    between atoms: O_8  and  C_9
REMARK    4  A    between atoms: C_9  and  C_10
REMARK    5  A    between atoms: C_14  and  C_15
REMARK                            x       y       z     vdW  Elec       q    Type
REMARK                         _______ _______ _______ _____ _____    ______ ____
ROOT
ATOM      1  C   UNL     1      43.714   5.053  11.256  0.00  0.00    +0.000 C 
ATOM      2  C   UNL     1      42.398   5.452  11.914  0.00  0.00    +0.000 C 
ATOM      3  C   UNL     1      43.105   6.421  11.023  0.00  0.00    +0.000 C 
ENDROOT
BRANCH   1   4
ATOM      4  C   UNL     1      44.950   4.896  12.126  0.00  0.00    +0.000 A 
ATOM      5  C   UNL     1      45.205   3.687  12.789  0.00  0.00    +0.000 A 
ATOM      6  C   UNL     1      46.380   3.491  13.512  0.00  0.00    +0.000 A 
ATOM      7  C   UNL     1      47.347   4.495  13.557  0.00  0.00    +0.000 A 
ATOM      8  C   UNL     1      47.157   5.715  12.887  0.00  0.00    +0.000 A 
ATOM      9  C   UNL     1      45.928   5.907  12.227  0.00  0.00    +0.000 A 
BRANCH   8  10
ATOM     10  C   UNL     1      48.234   6.721  12.779  0.00  0.00    +0.000 A 
ATOM     11  C   UNL     1      48.290   7.620  11.711  0.00  0.00    +0.000 A 
ATOM     12  C   UNL     1      49.270   8.609  11.695  0.00  0.00    +0.000 A 
ATOM     13  C   UNL     1      50.178   8.679  12.741  0.00  0.00    +0.000 A 
ATOM     14  C   UNL     1      50.064   7.751  13.766  0.00  0.00    +0.000 A 
ATOM     15  N   UNL     1      49.115   6.790  13.811  0.00  0.00    +0.000 NA
ENDBRANCH   8  10
ENDBRANCH   1   4
BRANCH   1  16
ATOM     16  O   UNL     1      43.489   4.008  10.278  0.00  0.00    +0.000 OA
BRANCH  16  20
ATOM     17  C   UNL     1      46.450   2.482   7.771  0.00  0.00    +0.000 A 
ATOM     18  C   UNL     1      46.250   3.868   7.801  0.00  0.00    +0.000 A 
ATOM     19  C   UNL     1      45.282   4.422   8.646  0.00  0.00    +0.000 A 
ATOM     20  C   UNL     1      44.506   3.600   9.458  0.00  0.00    +0.000 A 
ATOM     21  C   UNL     1      44.721   2.218   9.443  0.00  0.00    +0.000 A 
ATOM     22  C   UNL     1      45.680   1.657   8.597  0.00  0.00    +0.000 A 
BRANCH  17  24
ATOM     23  N   UNL     1      48.487   2.614   6.443  0.00  0.00    +0.000 N 
ATOM     24  C   UNL     1      47.425   1.852   6.845  0.00  0.00    +0.000 C 
ATOM     25  O   UNL     1      47.303   0.695   6.473  0.00  0.00    +0.000 OA
ATOM     26  H   UNL     1      49.185   2.153   5.878  0.00  0.00    +0.000 HD
ATOM     27  H   UNL     1      48.747   3.471   6.910  0.00  0.00    +0.000 HD
ENDBRANCH  17  24
ENDBRANCH  16  20
ENDBRANCH   1  16
TORSDOF 5
ENDMDL
MODEL 3
REMARK VINA RESULT:    -7.900      2.410      3.142
REMARK INTER + INTRA:         -11.186
REMARK INTER:                 -10.827
REMARK INTRA:                  -0.359
REMARK UNBOUND:                -0.976
REMARK  Name = 
REMARK  5 active torsions:
REMARK  status: ('A' for Active; 'I' for Inactive)
REMARK    1  A    between atoms: C_2  and  C_4
REMARK    2  A    between atoms: C_7  and  O_8
REMARK    3  A    between atoms: O_8  and  C_9
REMARK    4  A    between atoms: C_9  and  C_10
REMARK    5  A    between atoms: C_14  and  C_15
REMARK                            x       y       z     vdW  Elec       q    Type
REMARK                         _______ _______ _______ _____ _____    ______ ____
ROOT
ATOM      1  C   UNL     1      44.104   4.275  11.640  0.00  0.00    +0.000 C 
ATOM      2  C   UNL     1      44.718   3.208  12.538  0.00  0.00    +0.000 C 
ATOM      3  C   UNL     1      43.375   3.771  12.871  0.00  0.00    +0.000 C 
ENDROOT
BRANCH   1   4
ATOM      4  C   UNL     1      44.721   5.663  11.624  0.00  0.00    +0.000 A 
ATOM      5  C   UNL     1      43.928   6.792  11.376  0.00  0.00    +0.000 A 
ATOM      6  C   UNL     1      44.456   8.080  11.451  0.00  0.00    +0.000 A 
ATOM      7  C   UNL     1      45.789   8.266  11.816  0.00  0.00    +0.000 A 
ATOM      8  C   UNL     1      46.622   7.173  12.104  0.00  0.00    +0.000 A 
ATOM      9  C   UNL     1      46.076   5.884  11.947  0.00  0.00    +0.000 A 
BRANCH   8  10
ATOM     10  C   UNL     1      47.981   7.352  12.655  0.00  0.00    +0.000 A 
ATOM     11  C   UNL     1      49.027   7.849  11.874  0.00  0.00    +0.000 A 
ATOM     12  C   UNL     1      50.270   8.086  12.456  0.00  0.00    +0.000 A 
ATOM     13  C   UNL     1      50.446   7.819  13.806  0.00  0.00    +0.000 A 
ATOM     14  C   UNL     1      49.364   7.325  14.519  0.00  0.00    +0.000 A 
ATOM     15  N   UNL     1      48.145   7.097  13.979  0.00  0.00    +0.000 NA
ENDBRANCH   8  10
ENDBRANCH   1   4
BRANCH   1  16
ATOM     16  O   UNL     1      43.771   3.712  10.348  0.00  0.00    +0.000 OA
BRANCH  16  20
ATOM     17  C   UNL     1      46.646   2.725   7.495  0.00  0.00    +0.000 A 
ATOM     18  C   UNL     1      46.331   4.077   7.685  0.00  0.00    +0.000 A 
ATOM     19  C   UNL     1      45.389   4.452   8.648  0.00  0.00    +0.000 A 
ATOM     20  C   UNL     1      44.752   3.485   9.421  0.00  0.00    +0.000 A 
ATOM     21  C   UNL     1      45.083   2.137   9.245  0.00  0.00    +0.000 A 
ATOM     22  C   UNL     1      46.017   1.754   8.281  0.00  0.00    +0.000 A 
BRANCH  17  24
ATOM     23  N   UNL     1      47.547   2.937   5.242  0.00  0.00    +0.000 N 
ATOM     24  C   UNL     1      47.596   2.284   6.442  0.00  0.00    +0.000 C 
ATOM     25  O   UNL     1      48.408   1.392   6.642  0.00  0.00    +0.000 OA
ATOM     26  H   UNL     1      48.248   2.684   4.561  0.00  0.00    +0.000 HD
ATOM     27  H   UNL     1      47.069   3.819   5.124  0.00  0.00    +0.000 HD
ENDBRANCH  17  24
ENDBRANCH  16  20
ENDBRANCH   1  16
TORSDOF 5
ENDMDL
MODEL 4
REMARK VINA RESULT:    -7.587      2.667      7.528
REMARK INTER + INTRA:         -10.780
REMARK INTER:                  -9.810
REMARK INTRA:                  -0.971
REMARK UNBOUND:                -0.976
REMARK  Name = 
REMARK  5 active torsions:
REMARK  status: ('A' for Active; 'I' for Inactive)
REMARK    1  A    between atoms: C_2  and  C_4
REMARK    2  A    between atoms: C_7  and  O_8
REMARK    3  A    between atoms: O_8  and  C_9
REMARK    4  A    between atoms: C_9  and  C_10
REMARK    5  A    between atoms: C_14  and  C_15
REMARK                            x       y       z     vdW  Elec       q    Type
REMARK                         _______ _______ _______ _____ _____    ______ ____
ROOT
ATOM      1  C   UNL     1      46.407   7.331  12.507  0.00  0.00    +0.000 C 
ATOM      2  C   UNL     1      46.637   8.716  11.915  0.00  0.00    +0.000 C 
ATOM      3  C   UNL     1      45.907   8.577  13.212  0.00  0.00    +0.000 C 
ENDROOT
BRANCH   1   4
ATOM      4  C   UNL     1      45.432   6.392  11.816  0.00  0.00    +0.000 A 
ATOM      5  C   UNL     1      44.049   6.563  11.969  0.00  0.00    +0.000 A 
ATOM      6  C   UNL     1      43.139   5.773  11.269  0.00  0.00    +0.000 A 
ATOM      7  C   UNL     1      43.599   4.814  10.366  0.00  0.00    +0.000 A 
ATOM      8  C   UNL     1      44.973   4.620  10.151  0.00  0.00    +0.000 A 
ATOM      9  C   UNL     1      45.864   5.384  10.929  0.00  0.00    +0.000 A 
BRANCH   8  10
ATOM     10  C   UNL     1      45.477   3.735   9.080  0.00  0.00    +0.000 A 
ATOM     11  C   UNL     1      46.105   4.248   7.943  0.00  0.00    +0.000 A 
ATOM     12  C   UNL     1      46.644   3.375   7.002  0.00  0.00    +0.000 A 
ATOM     13  C   UNL     1      46.543   2.007   7.211  0.00  0.00    +0.000 A 
ATOM     14  C   UNL     1      45.903   1.570   8.362  0.00  0.00    +0.000 A 
ATOM     15  N   UNL     1      45.382   2.397   9.296  0.00  0.00    +0.000 NA
ENDBRANCH   8  10
ENDBRANCH   1   4
BRANCH   1  16
ATOM     16  O   UNL     1      47.666   6.747  12.922  0.00  0.00    +0.000 OA
BRANCH  16  20
ATOM     17  C   UNL     1      47.933   4.687  16.537  0.00  0.00    +0.000 A 
ATOM     18  C   UNL     1      48.653   5.880  16.394  0.00  0.00    +0.000 A 
ATOM     19  C   UNL     1      48.572   6.613  15.205  0.00  0.00    +0.000 A 
ATOM     20  C   UNL     1      47.781   6.160  14.153  0.00  0.00    +0.000 A 
ATOM     21  C   UNL     1      47.045   4.980  14.306  0.00  0.00    +0.000 A 
ATOM     22  C   UNL     1      47.127   4.239  15.486  0.00  0.00    +0.000 A 
BRANCH  17  24
ATOM     23  N   UNL     1      47.150   2.822  17.893  0.00  0.00    +0.000 N 
ATOM     24  C   UNL     1      48.040   3.852  17.760  0.00  0.00    +0.000 C 
ATOM     25  O   UNL     1      48.900   4.055  18.604  0.00  0.00    +0.000 OA
ATOM     26  H   UNL     1      47.281   2.212  18.687  0.00  0.00    +0.000 HD
ATOM     27  H   UNL     1      46.596   2.481  17.120  0.00  0.00    +0.000 HD
ENDBRANCH  17  24
ENDBRANCH  16  20
ENDBRANCH   1  16
TORSDOF 5
ENDMDL
MODEL 5
REMARK VINA RESULT:    -7.301      2.593      7.741
REMARK INTER + INTRA:         -10.411
REMARK INTER:                  -9.359
REMARK INTRA:                  -1.051
REMARK UNBOUND:                -0.976
REMARK  Name = 
REMARK  5 active torsions:
REMARK  status: ('A' for Active; 'I' for Inactive)
REMARK    1  A    between atoms: C_2  and  C_4
REMARK    2  A    between atoms: C_7  and  O_8
REMARK    3  A    between atoms: O_8  and  C_9
REMARK    4  A    between atoms: C_9  and  C_10
REMARK    5  A    between atoms: C_14  and  C_15
REMARK                            x       y       z     vdW  Elec       q    Type
REMARK                         _______ _______ _______ _____ _____    ______ ____
ROOT
ATOM      1  C   UNL     1      45.349   5.900  12.138  0.00  0.00    +0.000 C 
ATOM      2  C   UNL     1      44.823   7.201  11.543  0.00  0.00    +0.000 C 
ATOM      3  C   UNL     1      44.330   6.745  12.878  0.00  0.00    +0.000 C 
ENDROOT
BRANCH   1   4
ATOM      4  C   UNL     1      44.941   4.584  11.497  0.00  0.00    +0.000 A 
ATOM      5  C   UNL     1      43.794   3.905  11.932  0.00  0.00    +0.000 A 
ATOM      6  C   UNL     1      43.351   2.748  11.294  0.00  0.00    +0.000 A 
ATOM      7  C   UNL     1      44.031   2.264  10.177  0.00  0.00    +0.000 A 
ATOM      8  C   UNL     1      45.168   2.920   9.679  0.00  0.00    +0.000 A 
ATOM      9  C   UNL     1      45.631   4.044  10.392  0.00  0.00    +0.000 A 
BRANCH   8  10
ATOM     10  C   UNL     1      45.800   2.526   8.403  0.00  0.00    +0.000 A 
ATOM     11  C   UNL     1      45.963   3.436   7.356  0.00  0.00    +0.000 A 
ATOM     12  C   UNL     1      46.643   3.047   6.205  0.00  0.00    +0.000 A 
ATOM     13  C   UNL     1      47.144   1.756   6.119  0.00  0.00    +0.000 A 
ATOM     14  C   UNL     1      46.942   0.906   7.196  0.00  0.00    +0.000 A 
ATOM     15  N   UNL     1      46.296   1.264   8.329  0.00  0.00    +0.000 NA
ENDBRANCH   8  10
ENDBRANCH   1   4
BRANCH   1  16
ATOM     16  O   UNL     1      46.751   6.034  12.477  0.00  0.00    +0.000 OA
BRANCH  16  20
ATOM     17  C   UNL     1      48.190   5.190  16.298  0.00  0.00    +0.000 A 
ATOM     18  C   UNL     1      47.279   4.299  15.716  0.00  0.00    +0.000 A 
ATOM     19  C   UNL     1      46.790   4.534  14.427  0.00  0.00    +0.000 A 
ATOM     20  C   UNL     1      47.200   5.658  13.714  0.00  0.00    +0.000 A 
ATOM     21  C   UNL     1      48.126   6.535  14.288  0.00  0.00    +0.000 A 
ATOM     22  C   UNL     1      48.613   6.312  15.577  0.00  0.00    +0.000 A 
BRANCH  17  24
ATOM     23  N   UNL     1      48.572   3.759  18.230  0.00  0.00    +0.000 N 
ATOM     24  C   UNL     1      48.686   5.008  17.686  0.00  0.00    +0.000 C 
ATOM     25  O   UNL     1      49.197   5.924  18.312  0.00  0.00    +0.000 OA
ATOM     26  H   UNL     1      48.982   3.626  19.144  0.00  0.00    +0.000 HD
ATOM     27  H   UNL     1      48.383   2.939  17.672  0.00  0.00    +0.000 HD
ENDBRANCH  17  24
ENDBRANCH  16  20
ENDBRANCH   1  16
TORSDOF 5
ENDMDL
MODEL 6
REMARK VINA RESULT:    -6.944      3.035      4.736
REMARK INTER + INTRA:          -9.950
REMARK INTER:                  -8.825
REMARK INTRA:                  -1.124
REMARK UNBOUND:                -0.976
REMARK  Name = 
REMARK  5 active torsions:
REMARK  status: ('A' for Active; 'I' for Inactive)
REMARK    1  A    between atoms: C_2  and  C_4
REMARK    2  A    between atoms: C_7  and  O_8
REMARK    3  A    between atoms: O_8  and  C_9
REMARK    4  A    between atoms: C_9  and  C_10
REMARK    5  A    between atoms: C_14  and  C_15
REMARK                            x       y       z     vdW  Elec       q    Type
REMARK                         _______ _______ _______ _____ _____    ______ ____
ROOT
ATOM      1  C   UNL     1      48.065   8.086  12.549  0.00  0.00    +0.000 C 
ATOM      2  C   UNL     1      48.847   9.109  11.734  0.00  0.00    +0.000 C 
ATOM      3  C   UNL     1      49.098   7.650  11.528  0.00  0.00    +0.000 C 
ENDROOT
BRANCH   1   4
ATOM      4  C   UNL     1      48.349   7.962  14.036  0.00  0.00    +0.000 A 
ATOM      5  C   UNL     1      48.277   9.086  14.872  0.00  0.00    +0.000 A 
ATOM      6  C   UNL     1      48.440   8.975  16.251  0.00  0.00    +0.000 A 
ATOM      7  C   UNL     1      48.643   7.723  16.831  0.00  0.00    +0.000 A 
ATOM      8  C   UNL     1      48.694   6.560  16.046  0.00  0.00    +0.000 A 
ATOM      9  C   UNL     1      48.599   6.717  14.650  0.00  0.00    +0.000 A 
BRANCH   8  10
ATOM     10  C   UNL     1      48.736   5.213  16.651  0.00  0.00    +0.000 A 
ATOM     11  C   UNL     1      47.592   4.417  16.744  0.00  0.00    +0.000 A 
ATOM     12  C   UNL     1      47.694   3.119  17.240  0.00  0.00    +0.000 A 
ATOM     13  C   UNL     1      48.935   2.643  17.637  0.00  0.00    +0.000 A 
ATOM     14  C   UNL     1      50.027   3.490  17.519  0.00  0.00    +0.000 A 
ATOM     15  N   UNL     1      49.956   4.749  17.030  0.00  0.00    +0.000 NA
ENDBRANCH   8  10
ENDBRANCH   1   4
BRANCH   1  16
ATOM     16  O   UNL     1      46.667   8.105  12.169  0.00  0.00    +0.000 OA
BRANCH  16  20
ATOM     17  C   UNL     1      44.667   4.479  11.688  0.00  0.00    +0.000 A 
ATOM     18  C   UNL     1      44.700   5.059  12.963  0.00  0.00    +0.000 A 
ATOM     19  C   UNL     1      45.341   6.286  13.162  0.00  0.00    +0.000 A 
ATOM     20  C   UNL     1      45.956   6.938  12.096  0.00  0.00    +0.000 A 
ATOM     21  C   UNL     1      45.904   6.368  10.819  0.00  0.00    +0.000 A 
ATOM     22  C   UNL     1      45.274   5.140  10.615  0.00  0.00    +0.000 A 
BRANCH  17  24
ATOM     23  N   UNL     1      43.776   2.382  12.546  0.00  0.00    +0.000 N 
ATOM     24  C   UNL     1      44.050   3.150  11.449  0.00  0.00    +0.000 C 
ATOM     25  O   UNL     1      43.772   2.763  10.323  0.00  0.00    +0.000 OA
ATOM     26  H   UNL     1      43.285   1.515  12.379  0.00  0.00    +0.000 HD
ATOM     27  H   UNL     1      43.766   2.758  13.483  0.00  0.00    +0.000 HD
ENDBRANCH  17  24
ENDBRANCH  16  20
ENDBRANCH   1  16
TORSDOF 5
ENDMDL
MODEL 7
REMARK VINA RESULT:    -6.723      2.983      7.274
REMARK INTER + INTRA:          -9.664
REMARK INTER:                  -8.709
REMARK INTRA:                  -0.955
REMARK UNBOUND:                -0.976
REMARK  Name = 
REMARK  5 active torsions:
REMARK  status: ('A' for Active; 'I' for Inactive)
REMARK    1  A    between atoms: C_2  and  C_4
REMARK    2  A    between atoms: C_7  and  O_8
REMARK    3  A    between atoms: O_8  and  C_9
REMARK    4  A    between atoms: C_9  and  C_10
REMARK    5  A    between atoms: C_14  and  C_15
REMARK                            x       y       z     vdW  Elec       q    Type
REMARK                         _______ _______ _______ _____ _____    ______ ____
ROOT
ATOM      1  C   UNL     1      44.019   5.669  11.513  0.00  0.00    +0.000 C 
ATOM      2  C   UNL     1      42.653   6.333  11.389  0.00  0.00    +0.000 C 
ATOM      3  C   UNL     1      43.145   5.898  12.731  0.00  0.00    +0.000 C 
ENDROOT
BRANCH   1   4
ATOM      4  C   UNL     1      44.208   4.271  10.950  0.00  0.00    +0.000 A 
ATOM      5  C   UNL     1      43.418   3.206  11.408  0.00  0.00    +0.000 A 
ATOM      6  C   UNL     1      43.510   1.938  10.838  0.00  0.00    +0.000 A 
ATOM      7  C   UNL     1      44.374   1.717   9.765  0.00  0.00    +0.000 A 
ATOM      8  C   UNL     1      45.166   2.753   9.246  0.00  0.00    +0.000 A 
ATOM      9  C   UNL     1      45.102   4.003   9.894  0.00  0.00    +0.000 A 
BRANCH   8  10
ATOM     10  C   UNL     1      45.956   2.586   8.009  0.00  0.00    +0.000 A 
ATOM     11  C   UNL     1      46.023   3.593   7.043  0.00  0.00    +0.000 A 
ATOM     12  C   UNL     1      46.850   3.429   5.935  0.00  0.00    +0.000 A 
ATOM     13  C   UNL     1      47.591   2.264   5.809  0.00  0.00    +0.000 A 
ATOM     14  C   UNL     1      47.473   1.306   6.806  0.00  0.00    +0.000 A 
ATOM     15  N   UNL     1      46.686   1.446   7.897  0.00  0.00    +0.000 NA
ENDBRANCH   8  10
ENDBRANCH   1   4
BRANCH   1  16
ATOM     16  O   UNL     1      45.068   6.622  11.213  0.00  0.00    +0.000 OA
BRANCH  16  20
ATOM     17  C   UNL     1      48.076   7.371  14.001  0.00  0.00    +0.000 A 
ATOM     18  C   UNL     1      47.204   8.415  13.663  0.00  0.00    +0.000 A 
ATOM     19  C   UNL     1      46.167   8.198  12.749  0.00  0.00    +0.000 A 
ATOM     20  C   UNL     1      45.998   6.946  12.164  0.00  0.00    +0.000 A 
ATOM     21  C   UNL     1      46.855   5.899  12.518  0.00  0.00    +0.000 A 
ATOM     22  C   UNL     1      47.897   6.110  13.423  0.00  0.00    +0.000 A 
BRANCH  17  24
ATOM     23  N   UNL     1      49.499   8.862  15.297  0.00  0.00    +0.000 N 
ATOM     24  C   UNL     1      49.223   7.578  14.920  0.00  0.00    +0.000 C 
ATOM     25  O   UNL     1      49.883   6.641  15.346  0.00  0.00    +0.000 OA
ATOM     26  H   UNL     1      50.230   8.985  15.983  0.00  0.00    +0.000 HD
ATOM     27  H   UNL     1      48.843   9.619  15.164  0.00  0.00    +0.000 HD
ENDBRANCH  17  24
ENDBRANCH  16  20
ENDBRANCH   1  16
TORSDOF 5
ENDMDL
MODEL 8
REMARK VINA RESULT:    -6.697      2.204      2.901
REMARK INTER + INTRA:          -9.631
REMARK INTER:                  -8.794
REMARK INTRA:                  -0.837
REMARK UNBOUND:                -0.976
REMARK  Name = 
REMARK  5 active torsions:
REMARK  status: ('A' for Active; 'I' for Inactive)
REMARK    1  A    between atoms: C_2  and  C_4
REMARK    2  A    between atoms: C_7  and  O_8
REMARK    3  A    between atoms: O_8  and  C_9
REMARK    4  A    between atoms: C_9  and  C_10
REMARK    5  A    between atoms: C_14  and  C_15
REMARK                            x       y       z     vdW  Elec       q    Type
REMARK                         _______ _______ _______ _____ _____    ______ ____
ROOT
ATOM      1  C   UNL     1      43.968   5.469  11.920  0.00  0.00    +0.000 C 
ATOM      2  C   UNL     1      42.802   5.295  12.886  0.00  0.00    +0.000 C 
ATOM      3  C   UNL     1      42.534   5.626  11.454  0.00  0.00    +0.000 C 
ENDROOT
BRANCH   1   4
ATOM      4  C   UNL     1      44.869   6.683  12.069  0.00  0.00    +0.000 A 
ATOM      5  C   UNL     1      44.517   7.908  11.484  0.00  0.00    +0.000 A 
ATOM      6  C   UNL     1      45.279   9.056  11.689  0.00  0.00    +0.000 A 
ATOM      7  C   UNL     1      46.398   9.010  12.521  0.00  0.00    +0.000 A 
ATOM      8  C   UNL     1      46.780   7.818  13.157  0.00  0.00    +0.000 A 
ATOM      9  C   UNL     1      46.030   6.661  12.869  0.00  0.00    +0.000 A 
BRANCH   8  10
ATOM     10  C   UNL     1      47.854   7.785  14.172  0.00  0.00    +0.000 A 
ATOM     11  C   UNL     1      48.298   8.948  14.804  0.00  0.00    +0.000 A 
ATOM     12  C   UNL     1      49.250   8.861  15.817  0.00  0.00    +0.000 A 
ATOM     13  C   UNL     1      49.743   7.616  16.177  0.00  0.00    +0.000 A 
ATOM     14  C   UNL     1      49.258   6.504  15.503  0.00  0.00    +0.000 A 
ATOM     15  N   UNL     1      48.327   6.561  14.525  0.00  0.00    +0.000 NA
ENDBRANCH   8  10
ENDBRANCH   1   4
BRANCH   1  16
ATOM     16  O   UNL     1      44.639   4.202  11.710  0.00  0.00    +0.000 OA
BRANCH  16  20
ATOM     17  C   UNL     1      45.975   3.286   7.869  0.00  0.00    +0.000 A 
ATOM     18  C   UNL     1      45.415   2.261   8.643  0.00  0.00    +0.000 A 
ATOM     19  C   UNL     1      44.934   2.532   9.928  0.00  0.00    +0.000 A 
ATOM     20  C   UNL     1      45.013   3.820  10.451  0.00  0.00    +0.000 A 
ATOM     21  C   UNL     1      45.553   4.847   9.669  0.00  0.00    +0.000 A 
ATOM     22  C   UNL     1      46.043   4.583   8.388  0.00  0.00    +0.000 A 
BRANCH  17  24
ATOM     23  N   UNL     1      47.099   1.792   6.308  0.00  0.00    +0.000 N 
ATOM     24  C   UNL     1      46.551   3.026   6.525  0.00  0.00    +0.000 C 
ATOM     25  O   UNL     1      46.518   3.866   5.638  0.00  0.00    +0.000 OA
ATOM     26  H   UNL     1      47.416   1.598   5.370  0.00  0.00    +0.000 HD
ATOM     27  H   UNL     1      46.931   1.008   6.923  0.00  0.00    +0.000 HD
ENDBRANCH  17  24
ENDBRANCH  16  20
ENDBRANCH   1  16
TORSDOF 5
ENDMDL
MODEL 9
REMARK VINA RESULT:    -6.608      2.858      7.579
REMARK INTER + INTRA:          -9.516
REMARK INTER:                  -8.955
REMARK INTRA:                  -0.561
REMARK UNBOUND:                -0.976
REMARK  Name = 
REMARK  5 active torsions:
REMARK  status: ('A' for Active; 'I' for Inactive)
REMARK    1  A    between atoms: C_2  and  C_4
REMARK    2  A    between atoms: C_7  and  O_8
REMARK    3  A    between atoms: O_8  and  C_9
REMARK    4  A    between atoms: C_9  and  C_10
REMARK    5  A    between atoms: C_14  and  C_15
REMARK                            x       y       z     vdW  Elec       q    Type
REMARK                         _______ _______ _______ _____ _____    ______ ____
ROOT
ATOM      1  C   UNL     1      48.082   8.133  12.807  0.00  0.00    +0.000 C 
ATOM      2  C   UNL     1      48.925   9.149  12.046  0.00  0.00    +0.000 C 
ATOM      3  C   UNL     1      48.284   9.538  13.339  0.00  0.00    +0.000 C 
ENDROOT
BRANCH   1   4
ATOM      4  C   UNL     1      46.742   7.712  12.228  0.00  0.00    +0.000 A 
ATOM      5  C   UNL     1      45.648   8.588  12.255  0.00  0.00    +0.000 A 
ATOM      6  C   UNL     1      44.439   8.258  11.644  0.00  0.00    +0.000 A 
ATOM      7  C   UNL     1      44.312   7.051  10.958  0.00  0.00    +0.000 A 
ATOM      8  C   UNL     1      45.384   6.148  10.874  0.00  0.00    +0.000 A 
ATOM      9  C   UNL     1      46.566   6.480  11.564  0.00  0.00    +0.000 A 
BRANCH   8  10
ATOM     10  C   UNL     1      45.327   4.948  10.014  0.00  0.00    +0.000 A 
ATOM     11  C   UNL     1      44.664   3.787  10.420  0.00  0.00    +0.000 A 
ATOM     12  C   UNL     1      44.559   2.711   9.543  0.00  0.00    +0.000 A 
ATOM     13  C   UNL     1      45.120   2.812   8.278  0.00  0.00    +0.000 A 
ATOM     14  C   UNL     1      45.765   3.994   7.944  0.00  0.00    +0.000 A 
ATOM     15  N   UNL     1      45.871   5.056   8.774  0.00  0.00    +0.000 NA
ENDBRANCH   8  10
ENDBRANCH   1   4
BRANCH   1  16
ATOM     16  O   UNL     1      48.919   7.064  13.312  0.00  0.00    +0.000 OA
BRANCH  16  20
ATOM     17  C   UNL     1      47.744   4.725  16.557  0.00  0.00    +0.000 A 
ATOM     18  C   UNL     1      48.616   5.797  16.788  0.00  0.00    +0.000 A 
ATOM     19  C   UNL     1      49.017   6.620  15.730  0.00  0.00    +0.000 A 
ATOM     20  C   UNL     1      48.556   6.377  14.439  0.00  0.00    +0.000 A 
ATOM     21  C   UNL     1      47.668   5.320  14.213  0.00  0.00    +0.000 A 
ATOM     22  C   UNL     1      47.270   4.489  15.263  0.00  0.00    +0.000 A 
BRANCH  17  24
ATOM     23  N   UNL     1      48.001   3.907  18.836  0.00  0.00    +0.000 N 
ATOM     24  C   UNL     1      47.344   3.795  17.643  0.00  0.00    +0.000 C 
ATOM     25  O   UNL     1      46.449   2.976  17.490  0.00  0.00    +0.000 OA
ATOM     26  H   UNL     1      47.669   3.324  19.591  0.00  0.00    +0.000 HD
ATOM     27  H   UNL     1      48.563   4.713  19.072  0.00  0.00    +0.000 HD
ENDBRANCH  17  24
ENDBRANCH  16  20
ENDBRANCH   1  16
TORSDOF 5
ENDMDL
