MODEL 1
REMARK VINA RESULT:    -9.187      0.000      0.000
REMARK INTER + INTRA:         -13.220
REMARK INTER:                 -12.409
REMARK INTRA:                  -0.811
REMARK UNBOUND:                -0.811
REMARK  Name = 
REMARK  7 active torsions:
REMARK  status: ('A' for Active; 'I' for Inactive)
REMARK    1  A    between atoms: C_1  and  C_2
REMARK    2  A    between atoms: C_2  and  C_3
REMARK    3  A    between atoms: C_2  and  C_14
REMARK    4  A    between atoms: C_3  and  N_4
REMARK    5  A    between atoms: C_8  and  C_9
REMARK    6  A    between atoms: C_18  and  N_19
REMARK    7  A    between atoms: N_19  and  C_20
REMARK                            x       y       z     vdW  Elec       q    Type
REMARK                         _______ _______ _______ _____ _____    ______ ____
ROOT
ATOM      1  C   UNL     1      42.531   5.862  11.867  0.00  0.00    +0.000 C 
ATOM      2  C   UNL     1      43.284   4.608  12.318  0.00  0.00    +0.000 C 
ENDROOT
BRANCH   2   3
ATOM      3  C   UNL     1      44.686   4.963  12.797  0.00  0.00    +0.000 A 
ATOM      4  C   UNL     1      45.255   6.177  12.426  0.00  0.00    +0.000 A 
ATOM      5  C   UNL     1      46.509   6.503  12.924  0.00  0.00    +0.000 A 
ATOM      6  C   UNL     1      47.161   5.610  13.769  0.00  0.00    +0.000 A 
ATOM      7  C   UNL     1      46.548   4.406  14.087  0.00  0.00    +0.000 A 
ATOM      8  N   UNL     1      45.320   4.085  13.621  0.00  0.00    +0.000 NA
BRANCH   7   9
ATOM      9  N   UNL     1      47.144   3.475  14.949  0.00  0.00    +0.000 N 
ATOM     10  H   UNL     1      47.468   2.702  14.372  0.00  0.00    +0.000 HD
BRANCH   9  11
ATOM     11  C   UNL     1      47.940   3.768  16.101  0.00  0.00    +0.000 C 
ATOM     12  C   UNL     1      48.642   2.523  16.684  0.00  0.00    +0.000 C 
ATOM     13  C   UNL     1      48.175   2.973  18.081  0.00  0.00    +0.000 C 
ATOM     14  C   UNL     1      47.095   3.828  17.394  0.00  0.00    +0.000 C 
ENDBRANCH   9  11
ENDBRANCH   7   9
ENDBRANCH   2   3
BRANCH   2  15
ATOM     15  C   UNL     1      43.382   3.544  11.209  0.00  0.00    +0.000 C 
BRANCH  15  16
ATOM     16  N   UNL     1      43.685   4.143   9.910  0.00  0.00    +0.000 N 
ATOM     17  C   UNL     1      44.725   3.632   9.150  0.00  0.00    +0.000 A 
ATOM     18  C   UNL     1      45.059   2.285   9.119  0.00  0.00    +0.000 A 
ATOM     19  C   UNL     1      46.069   1.841   8.263  0.00  0.00    +0.000 A 
ATOM     20  C   UNL     1      46.715   2.747   7.427  0.00  0.00    +0.000 A 
ATOM     21  C   UNL     1      46.323   4.072   7.522  0.00  0.00    +0.000 A 
ATOM     22  N   UNL     1      45.355   4.527   8.364  0.00  0.00    +0.000 NA
ATOM     23  H   UNL     1      43.785   5.155   9.891  0.00  0.00    +0.000 HD
BRANCH  20  24
ATOM     24  C   UNL     1      47.752   2.242   6.492  0.00  0.00    +0.000 C 
ATOM     25  N   UNL     1      48.044   2.959   5.371  0.00  0.00    +0.000 N 
ATOM     26  O   UNL     1      48.339   1.191   6.711  0.00  0.00    +0.000 OA
ATOM     27  H   UNL     1      47.611   3.821   5.081  0.00  0.00    +0.000 HD
ATOM     28  H   UNL     1      48.746   2.561   4.753  0.00  0.00    +0.000 HD
ENDBRANCH  20  24
ENDBRANCH  15  16
ENDBRANCH   2  15
TORSDOF 6
ENDMDL
MODEL 2
REMARK VINA RESULT:    -8.401      2.806      4.962
REMARK INTER + INTRA:         -12.158
REMARK INTER:                 -11.146
REMARK INTRA:                  -1.012
REMARK UNBOUND:                -0.811
REMARK  Name = 
REMARK  7 active torsions:
REMARK  status: ('A' for Active; 'I' for Inactive)
REMARK    1  A    between atoms: C_1  and  C_2
REMARK    2  A    between atoms: C_2  and  C_3
REMARK    3  A    between atoms: C_2  and  C_14
REMARK    4  A    between atoms: C_3  and  N_4
REMARK    5  A    between atoms: C_8  and  C_9
REMARK    6  A    between atoms: C_18  and  N_19
REMARK    7  A    between atoms: N_19  and  C_20
REMARK                            x       y       z     vdW  Elec       q    Type
REMARK                         _______ _______ _______ _____ _____    ______ ____
ROOT
ATOM      1  C   UNL     1      43.546   4.161  13.464  0.00  0.00    +0.000 C 
ATOM      2  C   UNL     1      44.190   4.390  12.094  0.00  0.00    +0.000 C 
ENDROOT
BRANCH   2   3
ATOM      3  C   UNL     1      45.034   5.657  12.100  0.00  0.00    +0.000 A 
ATOM      4  C   UNL     1      46.422   5.561  12.125  0.00  0.00    +0.000 A 
ATOM      5  C   UNL     1      47.171   6.729  12.068  0.00  0.00    +0.000 A 
ATOM      6  C   UNL     1      46.517   7.955  11.995  0.00  0.00    +0.000 A 
ATOM      7  C   UNL     1      45.129   7.986  11.992  0.00  0.00    +0.000 A 
ATOM      8  N   UNL     1      44.390   6.854  12.031  0.00  0.00    +0.000 NA
BRANCH   7   9
ATOM      9  N   UNL     1      44.414   9.187  11.899  0.00  0.00    +0.000 N 
ATOM     10  H   UNL     1      44.807   9.820  12.592  0.00  0.00    +0.000 HD
BRANCH   9  11
ATOM     11  C   UNL     1      43.928   9.799  10.701  0.00  0.00    +0.000 C 
ATOM     12  C   UNL     1      43.792  11.333  10.817  0.00  0.00    +0.000 C 
ATOM     13  C   UNL     1      42.396  11.210  10.177  0.00  0.00    +0.000 C 
ATOM     14  C   UNL     1      42.388   9.727  10.592  0.00  0.00    +0.000 C 
ENDBRANCH   9  11
ENDBRANCH   7   9
ENDBRANCH   2   3
BRANCH   2  15
ATOM     15  C   UNL     1      43.153   4.478  10.958  0.00  0.00    +0.000 C 
BRANCH  15  16
ATOM     16  N   UNL     1      43.765   4.897   9.699  0.00  0.00    +0.000 N 
ATOM     17  C   UNL     1      44.694   4.073   9.085  0.00  0.00    +0.000 A 
ATOM     18  C   UNL     1      44.626   2.686   9.119  0.00  0.00    +0.000 A 
ATOM     19  C   UNL     1      45.557   1.929   8.405  0.00  0.00    +0.000 A 
ATOM     20  C   UNL     1      46.531   2.569   7.643  0.00  0.00    +0.000 A 
ATOM     21  C   UNL     1      46.531   3.953   7.666  0.00  0.00    +0.000 A 
ATOM     22  N   UNL     1      45.644   4.709   8.371  0.00  0.00    +0.000 NA
ATOM     23  H   UNL     1      44.155   5.836   9.676  0.00  0.00    +0.000 HD
BRANCH  20  24
ATOM     24  C   UNL     1      47.479   1.741   6.857  0.00  0.00    +0.000 C 
ATOM     25  N   UNL     1      48.621   2.310   6.378  0.00  0.00    +0.000 N 
ATOM     26  O   UNL     1      47.246   0.561   6.628  0.00  0.00    +0.000 OA
ATOM     27  H   UNL     1      48.904   3.270   6.487  0.00  0.00    +0.000 HD
ATOM     28  H   UNL     1      49.228   1.707   5.829  0.00  0.00    +0.000 HD
ENDBRANCH  20  24
ENDBRANCH  15  16
ENDBRANCH   2  15
TORSDOF 6
ENDMDL
MODEL 3
REMARK VINA RESULT:    -8.332      1.893      3.361
REMARK INTER + INTRA:         -12.065
REMARK INTER:                 -11.095
REMARK INTRA:                  -0.970
REMARK UNBOUND:                -0.811
REMARK  Name = 
REMARK  7 active torsions:
REMARK  status: ('A' for Active; 'I' for Inactive)
REMARK    1  A    between atoms: C_1  and  C_2
REMARK    2  A    between atoms: C_2  and  C_3
REMARK    3  A    between atoms: C_2  and  C_14
REMARK    4  A    between atoms: C_3  and  N_4
REMARK    5  A    between atoms: C_8  and  C_9
REMARK    6  A    between atoms: C_18  and  N_19
REMARK    7  A    between atoms: N_19  and  C_20
REMARK                            x       y       z     vdW  Elec       q    Type
REMARK                         _______ _______ _______ _____ _____    ______ ____
ROOT
ATOM      1  C   UNL     1      42.626   5.863  11.856  0.00  0.00    +0.000 C 
ATOM      2  C   UNL     1      43.286   4.564  12.326  0.00  0.00    +0.000 C 
ENDROOT
BRANCH   2   3
ATOM      3  C   UNL     1      44.704   4.825  12.816  0.00  0.00    +0.000 A 
ATOM      4  C   UNL     1      45.543   3.753  13.103  0.00  0.00    +0.000 A 
ATOM      5  C   UNL     1      46.850   4.016  13.490  0.00  0.00    +0.000 A 
ATOM      6  C   UNL     1      47.280   5.336  13.587  0.00  0.00    +0.000 A 
ATOM      7  C   UNL     1      46.389   6.363  13.305  0.00  0.00    +0.000 A 
ATOM      8  N   UNL     1      45.119   6.118  12.911  0.00  0.00    +0.000 NA
BRANCH   7   9
ATOM      9  N   UNL     1      46.768   7.711  13.363  0.00  0.00    +0.000 N 
ATOM     10  H   UNL     1      46.173   8.156  14.058  0.00  0.00    +0.000 HD
BRANCH   9  11
ATOM     11  C   UNL     1      48.098   8.228  13.260  0.00  0.00    +0.000 C 
ATOM     12  C   UNL     1      48.154   9.770  13.317  0.00  0.00    +0.000 C 
ATOM     13  C   UNL     1      49.105   9.733  12.106  0.00  0.00    +0.000 C 
ATOM     14  C   UNL     1      48.576   8.321  11.793  0.00  0.00    +0.000 C 
ENDBRANCH   9  11
ENDBRANCH   7   9
ENDBRANCH   2   3
BRANCH   2  15
ATOM     15  C   UNL     1      43.321   3.485  11.227  0.00  0.00    +0.000 C 
BRANCH  15  16
ATOM     16  N   UNL     1      43.612   4.060   9.915  0.00  0.00    +0.000 N 
ATOM     17  C   UNL     1      44.663   3.555   9.167  0.00  0.00    +0.000 A 
ATOM     18  C   UNL     1      45.028   2.215   9.168  0.00  0.00    +0.000 A 
ATOM     19  C   UNL     1      46.048   1.773   8.323  0.00  0.00    +0.000 A 
ATOM     20  C   UNL     1      46.675   2.674   7.466  0.00  0.00    +0.000 A 
ATOM     21  C   UNL     1      46.253   3.991   7.529  0.00  0.00    +0.000 A 
ATOM     22  N   UNL     1      45.274   4.445   8.360  0.00  0.00    +0.000 NA
ATOM     23  H   UNL     1      43.689   5.073   9.871  0.00  0.00    +0.000 HD
BRANCH  20  24
ATOM     24  C   UNL     1      47.723   2.170   6.544  0.00  0.00    +0.000 C 
ATOM     25  N   UNL     1      48.090   2.930   5.474  0.00  0.00    +0.000 N 
ATOM     26  O   UNL     1      48.254   1.082   6.728  0.00  0.00    +0.000 OA
ATOM     27  H   UNL     1      47.708   3.824   5.215  0.00  0.00    +0.000 HD
ATOM     28  H   UNL     1      48.797   2.532   4.862  0.00  0.00    +0.000 HD
ENDBRANCH  20  24
ENDBRANCH  15  16
ENDBRANCH   2  15
TORSDOF 6
ENDMDL
MODEL 4
REMARK VINA RESULT:    -7.757      2.630      3.203
REMARK INTER + INTRA:         -11.288
REMARK INTER:                 -10.890
REMARK INTRA:                  -0.398
REMARK UNBOUND:                -0.811
REMARK  Name = 
REMARK  7 active torsions:
REMARK  status: ('A' for Active; 'I' for Inactive)
REMARK    1  A    between atoms: C_1  and  C_2
REMARK    2  A    between atoms: C_2  and  C_3
REMARK    3  A    between atoms: C_2  and  C_14
REMARK    4  A    between atoms: C_3  and  N_4
REMARK    5  A    between atoms: C_8  and  C_9
REMARK    6  A    between atoms: C_18  and  N_19
REMARK    7  A    between atoms: N_19  and  C_20
REMARK                            x       y       z     vdW  Elec       q    Type
REMARK                         _______ _______ _______ _____ _____    ______ ____
ROOT
ATOM      1  C   UNL     1      43.767   4.223  13.353  0.00  0.00    +0.000 C 
ATOM      2  C   UNL     1      44.293   4.715  12.002  0.00  0.00    +0.000 C 
ENDROOT
BRANCH   2   3
ATOM      3  C   UNL     1      44.827   6.137  12.116  0.00  0.00    +0.000 A 
ATOM      4  C   UNL     1      44.181   7.173  11.449  0.00  0.00    +0.000 A 
ATOM      5  C   UNL     1      44.650   8.468  11.617  0.00  0.00    +0.000 A 
ATOM      6  C   UNL     1      45.752   8.692  12.437  0.00  0.00    +0.000 A 
ATOM      7  C   UNL     1      46.365   7.615  13.061  0.00  0.00    +0.000 A 
ATOM      8  N   UNL     1      45.906   6.351  12.917  0.00  0.00    +0.000 NA
BRANCH   7   9
ATOM      9  N   UNL     1      47.464   7.779  13.915  0.00  0.00    +0.000 N 
ATOM     10  H   UNL     1      47.118   7.677  14.866  0.00  0.00    +0.000 HD
BRANCH   9  11
ATOM     11  C   UNL     1      48.799   7.318  13.685  0.00  0.00    +0.000 C 
ATOM     12  C   UNL     1      49.875   8.292  14.209  0.00  0.00    +0.000 C 
ATOM     13  C   UNL     1      50.612   8.125  12.867  0.00  0.00    +0.000 C 
ATOM     14  C   UNL     1      49.288   7.636  12.254  0.00  0.00    +0.000 C 
ENDBRANCH   9  11
ENDBRANCH   7   9
ENDBRANCH   2   3
BRANCH   2  15
ATOM     15  C   UNL     1      43.224   4.664  10.894  0.00  0.00    +0.000 C 
BRANCH  15  16
ATOM     16  N   UNL     1      43.796   4.941   9.578  0.00  0.00    +0.000 N 
ATOM     17  C   UNL     1      44.711   4.055   9.032  0.00  0.00    +0.000 A 
ATOM     18  C   UNL     1      44.652   2.680   9.224  0.00  0.00    +0.000 A 
ATOM     19  C   UNL     1      45.565   1.850   8.571  0.00  0.00    +0.000 A 
ATOM     20  C   UNL     1      46.512   2.403   7.713  0.00  0.00    +0.000 A 
ATOM     21  C   UNL     1      46.504   3.781   7.581  0.00  0.00    +0.000 A 
ATOM     22  N   UNL     1      45.635   4.609   8.223  0.00  0.00    +0.000 NA
ATOM     23  H   UNL     1      44.179   5.872   9.438  0.00  0.00    +0.000 HD
BRANCH  20  24
ATOM     24  C   UNL     1      47.441   1.494   6.996  0.00  0.00    +0.000 C 
ATOM     25  N   UNL     1      48.581   2.003   6.450  0.00  0.00    +0.000 N 
ATOM     26  O   UNL     1      47.193   0.301   6.882  0.00  0.00    +0.000 OA
ATOM     27  H   UNL     1      48.874   2.966   6.464  0.00  0.00    +0.000 HD
ATOM     28  H   UNL     1      49.174   1.344   5.952  0.00  0.00    +0.000 HD
ENDBRANCH  20  24
ENDBRANCH  15  16
ENDBRANCH   2  15
TORSDOF 6
ENDMDL
MODEL 5
REMARK VINA RESULT:    -7.748      3.224      8.087
REMARK INTER + INTRA:         -11.276
REMARK INTER:                 -10.397
REMARK INTRA:                  -0.880
REMARK UNBOUND:                -0.811
REMARK  Name = 
REMARK  7 active torsions:
REMARK  status: ('A' for Active; 'I' for Inactive)
REMARK    1  A    between atoms: C_1  and  C_2
REMARK    2  A    between atoms: C_2  and  C_3
REMARK    3  A    between atoms: C_2  and  C_14
REMARK    4  A    between atoms: C_3  and  N_4
REMARK    5  A    between atoms: C_8  and  C_9
REMARK    6  A    between atoms: C_18  and  N_19
REMARK    7  A    between atoms: N_19  and  C_20
REMARK                            x       y       z     vdW  Elec       q    Type
REMARK                         _______ _______ _______ _____ _____    ______ ____
ROOT
ATOM      1  C   UNL     1      45.854   7.920  12.798  0.00  0.00    +0.000 C 
ATOM      2  C   UNL     1      46.312   6.590  12.195  0.00  0.00    +0.000 C 
ENDROOT
BRANCH   2   3
ATOM      3  C   UNL     1      45.124   5.670  11.950  0.00  0.00    +0.000 A 
ATOM      4  C   UNL     1      43.851   6.065  12.349  0.00  0.00    +0.000 A 
ATOM      5  C   UNL     1      42.776   5.236  12.061  0.00  0.00    +0.000 A 
ATOM      6  C   UNL     1      43.000   4.036  11.392  0.00  0.00    +0.000 A 
ATOM      7  C   UNL     1      44.296   3.688  11.037  0.00  0.00    +0.000 A 
ATOM      8  N   UNL     1      45.349   4.496  11.298  0.00  0.00    +0.000 NA
BRANCH   7   9
ATOM      9  N   UNL     1      44.584   2.505  10.344  0.00  0.00    +0.000 N 
ATOM     10  H   UNL     1      44.143   1.746  10.859  0.00  0.00    +0.000 HD
BRANCH   9  11
ATOM     11  C   UNL     1      44.644   2.341   8.925  0.00  0.00    +0.000 C 
ATOM     12  C   UNL     1      45.995   1.777   8.437  0.00  0.00    +0.000 C 
ATOM     13  C   UNL     1      46.002   2.866   7.347  0.00  0.00    +0.000 C 
ATOM     14  C   UNL     1      44.996   3.660   8.200  0.00  0.00    +0.000 C 
ENDBRANCH   9  11
ENDBRANCH   7   9
ENDBRANCH   2   3
BRANCH   2  15
ATOM     15  C   UNL     1      47.343   5.862  13.078  0.00  0.00    +0.000 C 
BRANCH  15  16
ATOM     16  N   UNL     1      46.698   5.106  14.150  0.00  0.00    +0.000 N 
ATOM     17  C   UNL     1      47.383   4.883  15.334  0.00  0.00    +0.000 A 
ATOM     18  C   UNL     1      48.267   5.798  15.890  0.00  0.00    +0.000 A 
ATOM     19  C   UNL     1      48.853   5.531  17.128  0.00  0.00    +0.000 A 
ATOM     20  C   UNL     1      48.529   4.361  17.810  0.00  0.00    +0.000 A 
ATOM     21  C   UNL     1      47.641   3.501  17.184  0.00  0.00    +0.000 A 
ATOM     22  N   UNL     1      47.073   3.735  15.969  0.00  0.00    +0.000 NA
ATOM     23  H   UNL     1      46.280   4.217  13.888  0.00  0.00    +0.000 HD
BRANCH  20  24
ATOM     24  C   UNL     1      49.130   4.123  19.146  0.00  0.00    +0.000 C 
ATOM     25  N   UNL     1      48.404   3.466  20.094  0.00  0.00    +0.000 N 
ATOM     26  O   UNL     1      50.260   4.513  19.407  0.00  0.00    +0.000 OA
ATOM     27  H   UNL     1      47.463   3.122  19.998  0.00  0.00    +0.000 HD
ATOM     28  H   UNL     1      48.853   3.346  20.999  0.00  0.00    +0.000 HD
ENDBRANCH  20  24
ENDBRANCH  15  16
ENDBRANCH   2  15
TORSDOF 6
ENDMDL
MODEL 6
REMARK VINA RESULT:    -7.684      3.393      8.245
REMARK INTER + INTRA:         -11.190
REMARK INTER:                 -10.484
REMARK INTRA:                  -0.706
REMARK UNBOUND:                -0.811
REMARK  Name = 
REMARK  7 active torsions:
REMARK  status: ('A' for Active; 'I' for Inactive)
REMARK    1  A    between atoms: C_1  and  C_2
REMARK    2  A    between atoms: C_2  and  C_3
REMARK    3  A    between atoms: C_2  and  C_14
REMARK    4  A    between atoms: C_3  and  N_4
REMARK    5  A    between atoms: C_8  and  C_9
REMARK    6  A    between atoms: C_18  and  N_19
REMARK    7  A    between atoms: N_19  and  C_20
REMARK                            x       y       z     vdW  Elec       q    Type
REMARK                         _______ _______ _______ _____ _____    ______ ____
ROOT
ATOM      1  C   UNL     1      47.652   5.859  13.100  0.00  0.00    +0.000 C 
ATOM      2  C   UNL     1      46.971   4.577  13.584  0.00  0.00    +0.000 C 
ENDROOT
BRANCH   2   3
ATOM      3  C   UNL     1      45.609   4.407  12.924  0.00  0.00    +0.000 A 
ATOM      4  C   UNL     1      44.556   5.239  13.290  0.00  0.00    +0.000 A 
ATOM      5  C   UNL     1      43.342   5.105  12.632  0.00  0.00    +0.000 A 
ATOM      6  C   UNL     1      43.209   4.142  11.636  0.00  0.00    +0.000 A 
ATOM      7  C   UNL     1      44.291   3.329  11.329  0.00  0.00    +0.000 A 
ATOM      8  N   UNL     1      45.483   3.462  11.952  0.00  0.00    +0.000 NA
BRANCH   7   9
ATOM      9  N   UNL     1      44.226   2.357  10.322  0.00  0.00    +0.000 N 
ATOM     10  H   UNL     1      43.452   1.740  10.555  0.00  0.00    +0.000 HD
BRANCH   9  11
ATOM     11  C   UNL     1      44.463   2.558   8.926  0.00  0.00    +0.000 C 
ATOM     12  C   UNL     1      45.841   2.040   8.464  0.00  0.00    +0.000 C 
ATOM     13  C   UNL     1      46.035   3.368   7.707  0.00  0.00    +0.000 C 
ATOM     14  C   UNL     1      44.961   3.989   8.619  0.00  0.00    +0.000 C 
ENDBRANCH   9  11
ENDBRANCH   7   9
ENDBRANCH   2   3
BRANCH   2  15
ATOM     15  C   UNL     1      46.801   4.536  15.114  0.00  0.00    +0.000 C 
BRANCH  15  16
ATOM     16  N   UNL     1      47.273   3.272  15.677  0.00  0.00    +0.000 N 
ATOM     17  C   UNL     1      48.524   3.215  16.270  0.00  0.00    +0.000 A 
ATOM     18  C   UNL     1      49.080   4.268  16.985  0.00  0.00    +0.000 A 
ATOM     19  C   UNL     1      50.311   4.100  17.622  0.00  0.00    +0.000 A 
ATOM     20  C   UNL     1      50.961   2.870  17.556  0.00  0.00    +0.000 A 
ATOM     21  C   UNL     1      50.340   1.875  16.821  0.00  0.00    +0.000 A 
ATOM     22  N   UNL     1      49.149   2.025  16.178  0.00  0.00    +0.000 NA
ATOM     23  H   UNL     1      47.202   2.455  15.076  0.00  0.00    +0.000 HD
BRANCH  20  24
ATOM     24  C   UNL     1      52.246   2.704  18.281  0.00  0.00    +0.000 C 
ATOM     25  N   UNL     1      52.789   1.459  18.395  0.00  0.00    +0.000 N 
ATOM     26  O   UNL     1      52.817   3.664  18.780  0.00  0.00    +0.000 OA
ATOM     27  H   UNL     1      52.399   0.600  18.044  0.00  0.00    +0.000 HD
ATOM     28  H   UNL     1      53.659   1.395  18.917  0.00  0.00    +0.000 HD
ENDBRANCH  20  24
ENDBRANCH  15  16
ENDBRANCH   2  15
TORSDOF 6
ENDMDL
MODEL 7
REMARK VINA RESULT:    -7.494      2.866      8.060
REMARK INTER + INTRA:         -10.933
REMARK INTER:                 -10.222
REMARK INTRA:                  -0.711
REMARK UNBOUND:                -0.811
REMARK  Name = 
REMARK  7 active torsions:
REMARK  status: ('A' for Active; 'I' for Inactive)
REMARK    1  A    between atoms: C_1  and  C_2
REMARK    2  A    between atoms: C_2  and  C_3
REMARK    3  A    between atoms: C_2  and  C_14
REMARK    4  A    between atoms: C_3  and  N_4
REMARK    5  A    between atoms: C_8  and  C_9
REMARK    6  A    between atoms: C_18  and  N_19
REMARK    7  A    between atoms: N_19  and  C_20
REMARK                            x       y       z     vdW  Elec       q    Type
REMARK                         _______ _______ _______ _____ _____    ______ ____
ROOT
ATOM      1  C   UNL     1      44.680   7.482  11.440  0.00  0.00    +0.000 C 
ATOM      2  C   UNL     1      45.620   6.309  11.729  0.00  0.00    +0.000 C 
ENDROOT
BRANCH   2   3
ATOM      3  C   UNL     1      45.169   5.059  10.985  0.00  0.00    +0.000 A 
ATOM      4  C   UNL     1      44.368   4.122  11.631  0.00  0.00    +0.000 A 
ATOM      5  C   UNL     1      43.921   3.022  10.913  0.00  0.00    +0.000 A 
ATOM      6  C   UNL     1      44.289   2.883   9.578  0.00  0.00    +0.000 A 
ATOM      7  C   UNL     1      45.106   3.842   8.995  0.00  0.00    +0.000 A 
ATOM      8  N   UNL     1      45.534   4.926   9.680  0.00  0.00    +0.000 NA
BRANCH   7   9
ATOM      9  N   UNL     1      45.493   3.769   7.650  0.00  0.00    +0.000 N 
ATOM     10  H   UNL     1      45.000   4.511   7.159  0.00  0.00    +0.000 HD
BRANCH   9  11
ATOM     11  C   UNL     1      46.798   3.455   7.155  0.00  0.00    +0.000 C 
ATOM     12  C   UNL     1      46.818   3.171   5.638  0.00  0.00    +0.000 C 
ATOM     13  C   UNL     1      47.678   1.928   5.929  0.00  0.00    +0.000 C 
ATOM     14  C   UNL     1      47.166   1.971   7.380  0.00  0.00    +0.000 C 
ENDBRANCH   9  11
ENDBRANCH   7   9
ENDBRANCH   2   3
BRANCH   2  15
ATOM     15  C   UNL     1      45.727   5.991  13.233  0.00  0.00    +0.000 C 
BRANCH  15  16
ATOM     16  N   UNL     1      47.094   6.156  13.724  0.00  0.00    +0.000 N 
ATOM     17  C   UNL     1      47.514   5.431  14.828  0.00  0.00    +0.000 A 
ATOM     18  C   UNL     1      47.084   4.140  15.103  0.00  0.00    +0.000 A 
ATOM     19  C   UNL     1      47.619   3.448  16.191  0.00  0.00    +0.000 A 
ATOM     20  C   UNL     1      48.598   4.049  16.979  0.00  0.00    +0.000 A 
ATOM     21  C   UNL     1      48.968   5.339  16.638  0.00  0.00    +0.000 A 
ATOM     22  N   UNL     1      48.445   6.036  15.592  0.00  0.00    +0.000 NA
ATOM     23  H   UNL     1      47.409   7.112  13.871  0.00  0.00    +0.000 HD
BRANCH  20  24
ATOM     24  C   UNL     1      49.184   3.275  18.102  0.00  0.00    +0.000 C 
ATOM     25  N   UNL     1      48.533   3.242  19.299  0.00  0.00    +0.000 N 
ATOM     26  O   UNL     1      50.242   2.674  17.969  0.00  0.00    +0.000 OA
ATOM     27  H   UNL     1      47.673   3.713  19.526  0.00  0.00    +0.000 HD
ATOM     28  H   UNL     1      48.985   2.715  20.041  0.00  0.00    +0.000 HD
ENDBRANCH  20  24
ENDBRANCH  15  16
ENDBRANCH   2  15
TORSDOF 6
ENDMDL
MODEL 8
REMARK VINA RESULT:    -6.670      3.167      5.668
REMARK INTER + INTRA:          -9.820
REMARK INTER:                  -8.995
REMARK INTRA:                  -0.824
REMARK UNBOUND:                -0.811
REMARK  Name = 
REMARK  7 active torsions:
REMARK  status: ('A' for Active; 'I' for Inactive)
REMARK    1  A    between atoms: C_1  and  C_2
REMARK    2  A    between atoms: C_2  and  C_3
REMARK    3  A    between atoms: C_2  and  C_14
REMARK    4  A    between atoms: C_3  and  N_4
REMARK    5  A    between atoms: C_8  and  C_9
REMARK    6  A    between atoms: C_18  and  N_19
REMARK    7  A    between atoms: N_19  and  C_20
REMARK                            x       y       z     vdW  Elec       q    Type
REMARK                         _______ _______ _______ _____ _____    ______ ____
ROOT
ATOM      1  C   UNL     1      49.905   7.564  16.396  0.00  0.00    +0.000 C 
ATOM      2  C   UNL     1      48.661   6.786  15.960  0.00  0.00    +0.000 C 
ENDROOT
BRANCH   2   3
ATOM      3  C   UNL     1      48.633   5.406  16.603  0.00  0.00    +0.000 A 
ATOM      4  C   UNL     1      47.474   4.638  16.539  0.00  0.00    +0.000 A 
ATOM      5  C   UNL     1      47.493   3.360  17.080  0.00  0.00    +0.000 A 
ATOM      6  C   UNL     1      48.659   2.888  17.673  0.00  0.00    +0.000 A 
ATOM      7  C   UNL     1      49.778   3.709  17.722  0.00  0.00    +0.000 A 
ATOM      8  N   UNL     1      49.776   4.949  17.184  0.00  0.00    +0.000 NA
BRANCH   7   9
ATOM      9  N   UNL     1      50.987   3.283  18.287  0.00  0.00    +0.000 N 
ATOM     10  H   UNL     1      50.771   2.928  19.216  0.00  0.00    +0.000 HD
BRANCH   9  11
ATOM     11  C   UNL     1      52.063   2.631  17.606  0.00  0.00    +0.000 C 
ATOM     12  C   UNL     1      51.874   1.103  17.497  0.00  0.00    +0.000 C 
ATOM     13  C   UNL     1      53.335   0.937  17.954  0.00  0.00    +0.000 C 
ATOM     14  C   UNL     1      53.264   2.359  18.540  0.00  0.00    +0.000 C 
ENDBRANCH   9  11
ENDBRANCH   7   9
ENDBRANCH   2   3
BRANCH   2  15
ATOM     15  C   UNL     1      48.563   6.633  14.430  0.00  0.00    +0.000 C 
BRANCH  15  16
ATOM     16  N   UNL     1      47.309   7.178  13.912  0.00  0.00    +0.000 N 
ATOM     17  C   UNL     1      46.535   6.412  13.056  0.00  0.00    +0.000 A 
ATOM     18  C   UNL     1      46.425   5.031  13.154  0.00  0.00    +0.000 A 
ATOM     19  C   UNL     1      45.559   4.342  12.303  0.00  0.00    +0.000 A 
ATOM     20  C   UNL     1      44.791   5.046  11.379  0.00  0.00    +0.000 A 
ATOM     21  C   UNL     1      44.963   6.420  11.345  0.00  0.00    +0.000 A 
ATOM     22  N   UNL     1      45.816   7.108  12.153  0.00  0.00    +0.000 NA
ATOM     23  H   UNL     1      47.355   8.108  13.503  0.00  0.00    +0.000 HD
BRANCH  20  24
ATOM     24  C   UNL     1      43.844   4.295  10.518  0.00  0.00    +0.000 C 
ATOM     25  N   UNL     1      43.884   4.476   9.168  0.00  0.00    +0.000 N 
ATOM     26  O   UNL     1      43.027   3.523  11.004  0.00  0.00    +0.000 OA
ATOM     27  H   UNL     1      44.495   5.097   8.664  0.00  0.00    +0.000 HD
ATOM     28  H   UNL     1      43.202   3.954   8.624  0.00  0.00    +0.000 HD
ENDBRANCH  20  24
ENDBRANCH  15  16
ENDBRANCH   2  15
TORSDOF 6
ENDMDL
MODEL 9
REMARK VINA RESULT:    -6.582      3.062      5.125
REMARK INTER + INTRA:          -9.702
REMARK INTER:                  -8.575
REMARK INTRA:                  -1.127
REMARK UNBOUND:                -0.811
REMARK  Name = 
REMARK  7 active torsions:
REMARK  status: ('A' for Active; 'I' for Inactive)
REMARK    1  A    between atoms: C_1  and  C_2
REMARK    2  A    between atoms: C_2  and  C_3
REMARK    3  A    between atoms: C_2  and  C_14
REMARK    4  A    between atoms: C_3  and  N_4
REMARK    5  A    between atoms: C_8  and  C_9
REMARK    6  A    between atoms: C_18  and  N_19
REMARK    7  A    between atoms: N_19  and  C_20
REMARK                            x       y       z     vdW  Elec       q    Type
REMARK                         _______ _______ _______ _____ _____    ______ ____
ROOT
ATOM      1  C   UNL     1      49.639   8.448  13.351  0.00  0.00    +0.000 C 
ATOM      2  C   UNL     1      48.466   8.983  14.174  0.00  0.00    +0.000 C 
ENDROOT
BRANCH   2   3
ATOM      3  C   UNL     1      48.563   8.516  15.620  0.00  0.00    +0.000 A 
ATOM      4  C   UNL     1      48.200   9.378  16.651  0.00  0.00    +0.000 A 
ATOM      5  C   UNL     1      48.240   8.909  17.956  0.00  0.00    +0.000 A 
ATOM      6  C   UNL     1      48.646   7.600  18.198  0.00  0.00    +0.000 A 
ATOM      7  C   UNL     1      49.014   6.794  17.129  0.00  0.00    +0.000 A 
ATOM      8  N   UNL     1      48.963   7.236  15.852  0.00  0.00    +0.000 NA
BRANCH   7   9
ATOM      9  N   UNL     1      49.411   5.462  17.306  0.00  0.00    +0.000 N 
ATOM     10  H   UNL     1      50.413   5.473  17.482  0.00  0.00    +0.000 HD
BRANCH   9  11
ATOM     11  C   UNL     1      48.673   4.434  17.973  0.00  0.00    +0.000 C 
ATOM     12  C   UNL     1      48.862   3.041  17.334  0.00  0.00    +0.000 C 
ATOM     13  C   UNL     1      47.335   2.853  17.407  0.00  0.00    +0.000 C 
ATOM     14  C   UNL     1      47.198   4.382  17.513  0.00  0.00    +0.000 C 
ENDBRANCH   9  11
ENDBRANCH   7   9
ENDBRANCH   2   3
BRANCH   2  15
ATOM     15  C   UNL     1      47.098   8.567  13.599  0.00  0.00    +0.000 C 
BRANCH  15  16
ATOM     16  N   UNL     1      46.827   7.148  13.822  0.00  0.00    +0.000 N 
ATOM     17  C   UNL     1      46.137   6.427  12.861  0.00  0.00    +0.000 A 
ATOM     18  C   UNL     1      46.259   6.660  11.497  0.00  0.00    +0.000 A 
ATOM     19  C   UNL     1      45.591   5.833  10.591  0.00  0.00    +0.000 A 
ATOM     20  C   UNL     1      44.828   4.767  11.059  0.00  0.00    +0.000 A 
ATOM     21  C   UNL     1      44.758   4.607  12.433  0.00  0.00    +0.000 A 
ATOM     22  N   UNL     1      45.386   5.413  13.333  0.00  0.00    +0.000 NA
ATOM     23  H   UNL     1      46.414   6.902  14.718  0.00  0.00    +0.000 HD
BRANCH  20  24
ATOM     24  C   UNL     1      44.167   3.876  10.074  0.00  0.00    +0.000 C 
ATOM     25  N   UNL     1      44.123   4.250   8.764  0.00  0.00    +0.000 N 
ATOM     26  O   UNL     1      43.658   2.819  10.421  0.00  0.00    +0.000 OA
ATOM     27  H   UNL     1      44.487   5.102   8.371  0.00  0.00    +0.000 HD
ATOM     28  H   UNL     1      43.642   3.615   8.132  0.00  0.00    +0.000 HD
ENDBRANCH  20  24
ENDBRANCH  15  16
ENDBRANCH   2  15
TORSDOF 6
ENDMDL
