MODEL 1
REMARK VINA RESULT:    -9.600      0.000      0.000
REMARK INTER + INTRA:         -14.368
REMARK INTER:                 -13.809
REMARK INTRA:                  -0.559
REMARK UNBOUND:                -0.559
REMARK  Name = 
REMARK  9 active torsions:
REMARK  status: ('A' for Active; 'I' for Inactive)
REMARK    1  A    between atoms: C_1  and  C_2
REMARK    2  A    between atoms: C_2  and  O_3
REMARK    3  A    between atoms: C_5  and  O_6
REMARK    4  A    between atoms: O_6  and  C_7
REMARK    5  A    between atoms: C_9  and  C_10
REMARK    6  A    between atoms: C_10  and  C_13
REMARK    7  A    between atoms: C_13  and  N_14
REMARK    8  A    between atoms: N_14  and  C_15
REMARK    9  A    between atoms: C_18  and  C_19
REMARK                            x       y       z     vdW  Elec       q    Type
REMARK                         _______ _______ _______ _____ _____    ______ ____
ROOT
ATOM      1  C   UNL     1      44.049   5.683  12.214  0.00  0.00    +0.000 C 
ATOM      2  F   UNL     1      43.184   5.665  13.274  0.00  0.00    +0.000 F 
ATOM      3  F   UNL     1      43.747   6.830  11.528  0.00  0.00    +0.000 F 
ENDROOT
BRANCH   1   6
ATOM      4  C   UNL     1      47.216   4.765  14.087  0.00  0.00    +0.000 A 
ATOM      5  C   UNL     1      45.888   4.785  13.687  0.00  0.00    +0.000 A 
ATOM      6  C   UNL     1      45.494   5.698  12.699  0.00  0.00    +0.000 A 
ATOM      7  C   UNL     1      46.476   6.563  12.192  0.00  0.00    +0.000 A 
ATOM      8  C   UNL     1      47.773   6.473  12.671  0.00  0.00    +0.000 A 
ATOM      9  N   UNL     1      48.167   5.587  13.602  0.00  0.00    +0.000 NA
BRANCH   4  10
ATOM     10  O   UNL     1      47.577   3.824  15.030  0.00  0.00    +0.000 OA
BRANCH  10  14
ATOM     11  C   UNL     1      49.117   4.049  19.238  0.00  0.00    +0.000 C 
ATOM     12  C   UNL     1      48.772   3.935  17.763  0.00  0.00    +0.000 C 
ATOM     13  C   UNL     1      47.945   5.119  17.200  0.00  0.00    +0.000 C 
ATOM     14  C   UNL     1      47.125   4.087  16.381  0.00  0.00    +0.000 C 
ATOM     15  C   UNL     1      47.555   3.030  17.429  0.00  0.00    +0.000 C 
BRANCH  12  16
ATOM     16  O   UNL     1      49.974   3.610  17.028  0.00  0.00    +0.000 OA
ATOM     17  H   UNL     1      49.724   3.654  16.089  0.00  0.00    +0.000 HD
ENDBRANCH  12  16
ENDBRANCH  10  14
ENDBRANCH   4  10
ENDBRANCH   1   6
BRANCH   1  18
ATOM     18  C   UNL     1      43.715   4.486  11.289  0.00  0.00    +0.000 C 
BRANCH  18  19
ATOM     19  N   UNL     1      43.681   4.787   9.843  0.00  0.00    +0.000 N 
ATOM     20  H   UNL     1      43.808   5.777   9.636  0.00  0.00    +0.000 HD
BRANCH  19  21
ATOM     21  C   UNL     1      44.601   4.013   9.105  0.00  0.00    +0.000 A 
ATOM     22  N   UNL     1      45.440   4.629   8.237  0.00  0.00    +0.000 NA
ATOM     23  C   UNL     1      46.333   3.861   7.561  0.00  0.00    +0.000 A 
ATOM     24  C   UNL     1      46.466   2.491   7.729  0.00  0.00    +0.000 A 
ATOM     25  C   UNL     1      45.610   1.860   8.629  0.00  0.00    +0.000 A 
ATOM     26  C   UNL     1      44.675   2.629   9.316  0.00  0.00    +0.000 A 
ATOM     27  F   UNL     1      43.839   2.023  10.173  0.00  0.00    +0.000 F 
BRANCH  24  28
ATOM     28  C   UNL     1      47.478   1.774   6.927  0.00  0.00    +0.000 C 
ATOM     29  N   UNL     1      48.552   2.492   6.481  0.00  0.00    +0.000 N 
ATOM     30  O   UNL     1      47.347   0.590   6.651  0.00  0.00    +0.000 OA
ATOM     31  H   UNL     1      48.591   3.501   6.489  0.00  0.00    +0.000 HD
ATOM     32  H   UNL     1      49.194   2.007   5.866  0.00  0.00    +0.000 HD
ENDBRANCH  24  28
ENDBRANCH  19  21
ENDBRANCH  18  19
ENDBRANCH   1  18
TORSDOF 8
ENDMDL
MODEL 2
REMARK VINA RESULT:    -9.444      1.267      1.467
REMARK INTER + INTRA:         -14.144
REMARK INTER:                 -13.079
REMARK INTRA:                  -1.065
REMARK UNBOUND:                -0.559
REMARK  Name = 
REMARK  9 active torsions:
REMARK  status: ('A' for Active; 'I' for Inactive)
REMARK    1  A    between atoms: C_1  and  C_2
REMARK    2  A    between atoms: C_2  and  O_3
REMARK    3  A    between atoms: C_5  and  O_6
REMARK    4  A    between atoms: O_6  and  C_7
REMARK    5  A    between atoms: C_9  and  C_10
REMARK    6  A    between atoms: C_10  and  C_13
REMARK    7  A    between atoms: C_13  and  N_14
REMARK    8  A    between atoms: N_14  and  C_15
REMARK    9  A    between atoms: C_18  and  C_19
REMARK                            x       y       z     vdW  Elec       q    Type
REMARK                         _______ _______ _______ _____ _____    ______ ____
ROOT
ATOM      1  C   UNL     1      43.708   5.432  12.326  0.00  0.00    +0.000 C 
ATOM      2  F   UNL     1      42.914   5.224  13.420  0.00  0.00    +0.000 F 
ATOM      3  F   UNL     1      43.306   6.641  11.820  0.00  0.00    +0.000 F 
ENDROOT
BRANCH   1   6
ATOM      4  C   UNL     1      46.976   4.596  14.057  0.00  0.00    +0.000 A 
ATOM      5  C   UNL     1      45.628   4.600  13.732  0.00  0.00    +0.000 A 
ATOM      6  C   UNL     1      45.178   5.467  12.727  0.00  0.00    +0.000 A 
ATOM      7  C   UNL     1      46.129   6.307  12.126  0.00  0.00    +0.000 A 
ATOM      8  C   UNL     1      47.451   6.237  12.535  0.00  0.00    +0.000 A 
ATOM      9  N   UNL     1      47.898   5.393  13.482  0.00  0.00    +0.000 NA
BRANCH   4  10
ATOM     10  O   UNL     1      47.391   3.698  15.020  0.00  0.00    +0.000 OA
BRANCH  10  14
ATOM     11  C   UNL     1      49.159   4.041  19.129  0.00  0.00    +0.000 C 
ATOM     12  C   UNL     1      48.733   3.880  17.680  0.00  0.00    +0.000 C 
ATOM     13  C   UNL     1      47.908   5.065  17.115  0.00  0.00    +0.000 C 
ATOM     14  C   UNL     1      47.019   4.025  16.381  0.00  0.00    +0.000 C 
ATOM     15  C   UNL     1      47.477   2.998  17.447  0.00  0.00    +0.000 C 
BRANCH  12  16
ATOM     16  O   UNL     1      49.885   3.494  16.897  0.00  0.00    +0.000 OA
ATOM     17  H   UNL     1      50.276   2.737  17.367  0.00  0.00    +0.000 HD
ENDBRANCH  12  16
ENDBRANCH  10  14
ENDBRANCH   4  10
ENDBRANCH   1   6
BRANCH   1  18
ATOM     18  C   UNL     1      43.377   4.351  11.266  0.00  0.00    +0.000 C 
BRANCH  18  19
ATOM     19  N   UNL     1      43.706   4.705   9.870  0.00  0.00    +0.000 N 
ATOM     20  H   UNL     1      44.084   5.646   9.773  0.00  0.00    +0.000 HD
BRANCH  19  21
ATOM     21  C   UNL     1      44.567   3.767   9.261  0.00  0.00    +0.000 A 
ATOM     22  N   UNL     1      44.287   2.445   9.364  0.00  0.00    +0.000 NA
ATOM     23  C   UNL     1      45.118   1.567   8.745  0.00  0.00    +0.000 A 
ATOM     24  C   UNL     1      46.214   1.941   7.983  0.00  0.00    +0.000 A 
ATOM     25  C   UNL     1      46.495   3.300   7.868  0.00  0.00    +0.000 A 
ATOM     26  C   UNL     1      45.665   4.212   8.514  0.00  0.00    +0.000 A 
ATOM     27  F   UNL     1      45.941   5.522   8.417  0.00  0.00    +0.000 F 
BRANCH  24  28
ATOM     28  C   UNL     1      47.039   0.883   7.364  0.00  0.00    +0.000 C 
ATOM     29  N   UNL     1      46.770  -0.411   7.714  0.00  0.00    +0.000 N 
ATOM     30  O   UNL     1      47.943   1.155   6.588  0.00  0.00    +0.000 OA
ATOM     31  H   UNL     1      46.199  -0.667   8.506  0.00  0.00    +0.000 HD
ATOM     32  H   UNL     1      47.396  -1.117   7.344  0.00  0.00    +0.000 HD
ENDBRANCH  24  28
ENDBRANCH  19  21
ENDBRANCH  18  19
ENDBRANCH   1  18
TORSDOF 8
ENDMDL
MODEL 3
REMARK VINA RESULT:    -8.752      1.482      1.736
REMARK INTER + INTRA:         -13.148
REMARK INTER:                 -12.087
REMARK INTRA:                  -1.062
REMARK UNBOUND:                -0.559
REMARK  Name = 
REMARK  9 active torsions:
REMARK  status: ('A' for Active; 'I' for Inactive)
REMARK    1  A    between atoms: C_1  and  C_2
REMARK    2  A    between atoms: C_2  and  O_3
REMARK    3  A    between atoms: C_5  and  O_6
REMARK    4  A    between atoms: O_6  and  C_7
REMARK    5  A    between atoms: C_9  and  C_10
REMARK    6  A    between atoms: C_10  and  C_13
REMARK    7  A    between atoms: C_13  and  N_14
REMARK    8  A    between atoms: N_14  and  C_15
REMARK    9  A    between atoms: C_18  and  C_19
REMARK                            x       y       z     vdW  Elec       q    Type
REMARK                         _______ _______ _______ _____ _____    ______ ____
ROOT
ATOM      1  C   UNL     1      44.442   4.521  12.606  0.00  0.00    +0.000 C 
ATOM      2  F   UNL     1      43.528   4.365  13.612  0.00  0.00    +0.000 F 
ATOM      3  F   UNL     1      43.864   5.408  11.736  0.00  0.00    +0.000 F 
ENDROOT
BRANCH   1   6
ATOM      4  C   UNL     1      47.529   4.945  14.768  0.00  0.00    +0.000 A 
ATOM      5  C   UNL     1      46.306   4.483  14.303  0.00  0.00    +0.000 A 
ATOM      6  C   UNL     1      45.756   5.066  13.153  0.00  0.00    +0.000 A 
ATOM      7  C   UNL     1      46.474   6.112  12.554  0.00  0.00    +0.000 A 
ATOM      8  C   UNL     1      47.681   6.511  13.106  0.00  0.00    +0.000 A 
ATOM      9  N   UNL     1      48.229   5.945  14.195  0.00  0.00    +0.000 NA
BRANCH   4  10
ATOM     10  O   UNL     1      48.061   4.319  15.876  0.00  0.00    +0.000 OA
BRANCH  10  14
ATOM     11  C   UNL     1      48.904   4.567  20.276  0.00  0.00    +0.000 C 
ATOM     12  C   UNL     1      48.543   4.315  18.822  0.00  0.00    +0.000 C 
ATOM     13  C   UNL     1      49.702   4.552  17.820  0.00  0.00    +0.000 C 
ATOM     14  C   UNL     1      48.667   5.195  16.858  0.00  0.00    +0.000 C 
ATOM     15  C   UNL     1      47.796   5.475  18.108  0.00  0.00    +0.000 C 
BRANCH  12  16
ATOM     16  O   UNL     1      47.885   3.032  18.722  0.00  0.00    +0.000 OA
ATOM     17  H   UNL     1      47.999   2.614  19.593  0.00  0.00    +0.000 HD
ENDBRANCH  12  16
ENDBRANCH  10  14
ENDBRANCH   4  10
ENDBRANCH   1   6
BRANCH   1  18
ATOM     18  C   UNL     1      44.589   3.169  11.864  0.00  0.00    +0.000 C 
BRANCH  18  19
ATOM     19  N   UNL     1      43.945   3.097  10.537  0.00  0.00    +0.000 N 
ATOM     20  H   UNL     1      43.334   3.889  10.343  0.00  0.00    +0.000 HD
BRANCH  19  21
ATOM     21  C   UNL     1      44.876   2.932   9.490  0.00  0.00    +0.000 A 
ATOM     22  N   UNL     1      45.249   1.680   9.125  0.00  0.00    +0.000 NA
ATOM     23  C   UNL     1      46.125   1.551   8.096  0.00  0.00    +0.000 A 
ATOM     24  C   UNL     1      46.635   2.617   7.370  0.00  0.00    +0.000 A 
ATOM     25  C   UNL     1      46.244   3.902   7.738  0.00  0.00    +0.000 A 
ATOM     26  C   UNL     1      45.362   4.053   8.804  0.00  0.00    +0.000 A 
ATOM     27  F   UNL     1      44.993   5.290   9.171  0.00  0.00    +0.000 F 
BRANCH  24  28
ATOM     28  C   UNL     1      47.585   2.336   6.274  0.00  0.00    +0.000 C 
ATOM     29  N   UNL     1      47.469   3.080   5.134  0.00  0.00    +0.000 N 
ATOM     30  O   UNL     1      48.427   1.455   6.374  0.00  0.00    +0.000 OA
ATOM     31  H   UNL     1      46.664   3.651   4.919  0.00  0.00    +0.000 HD
ATOM     32  H   UNL     1      48.074   2.821   4.363  0.00  0.00    +0.000 HD
ENDBRANCH  24  28
ENDBRANCH  19  21
ENDBRANCH  18  19
ENDBRANCH   1  18
TORSDOF 8
ENDMDL
MODEL 4
REMARK VINA RESULT:    -8.749      2.164      3.821
REMARK INTER + INTRA:         -13.144
REMARK INTER:                 -11.951
REMARK INTRA:                  -1.193
REMARK UNBOUND:                -0.559
REMARK  Name = 
REMARK  9 active torsions:
REMARK  status: ('A' for Active; 'I' for Inactive)
REMARK    1  A    between atoms: C_1  and  C_2
REMARK    2  A    between atoms: C_2  and  O_3
REMARK    3  A    between atoms: C_5  and  O_6
REMARK    4  A    between atoms: O_6  and  C_7
REMARK    5  A    between atoms: C_9  and  C_10
REMARK    6  A    between atoms: C_10  and  C_13
REMARK    7  A    between atoms: C_13  and  N_14
REMARK    8  A    between atoms: N_14  and  C_15
REMARK    9  A    between atoms: C_18  and  C_19
REMARK                            x       y       z     vdW  Elec       q    Type
REMARK                         _______ _______ _______ _____ _____    ______ ____
ROOT
ATOM      1  C   UNL     1      44.459   5.013  12.418  0.00  0.00    +0.000 C 
ATOM      2  F   UNL     1      44.240   3.663  12.399  0.00  0.00    +0.000 F 
ATOM      3  F   UNL     1      43.373   5.540  13.067  0.00  0.00    +0.000 F 
ENDROOT
BRANCH   1   6
ATOM      4  C   UNL     1      47.535   6.876  13.620  0.00  0.00    +0.000 A 
ATOM      5  C   UNL     1      46.389   6.560  12.906  0.00  0.00    +0.000 A 
ATOM      6  C   UNL     1      45.750   5.338  13.158  0.00  0.00    +0.000 A 
ATOM      7  C   UNL     1      46.336   4.490  14.111  0.00  0.00    +0.000 A 
ATOM      8  C   UNL     1      47.493   4.892  14.760  0.00  0.00    +0.000 A 
ATOM      9  N   UNL     1      48.101   6.071  14.541  0.00  0.00    +0.000 NA
BRANCH   4  10
ATOM     10  O   UNL     1      48.112   8.106  13.377  0.00  0.00    +0.000 OA
BRANCH  10  14
ATOM     11  C   UNL     1      51.831   8.411  10.886  0.00  0.00    +0.000 C 
ATOM     12  C   UNL     1      50.686   8.272  11.874  0.00  0.00    +0.000 C 
ATOM     13  C   UNL     1      49.548   7.325  11.415  0.00  0.00    +0.000 C 
ATOM     14  C   UNL     1      48.535   8.339  12.011  0.00  0.00    +0.000 C 
ATOM     15  C   UNL     1      49.636   9.416  11.844  0.00  0.00    +0.000 C 
BRANCH  12  16
ATOM     16  O   UNL     1      51.232   8.000  13.184  0.00  0.00    +0.000 OA
ATOM     17  H   UNL     1      52.155   8.305  13.148  0.00  0.00    +0.000 HD
ENDBRANCH  12  16
ENDBRANCH  10  14
ENDBRANCH   4  10
ENDBRANCH   1   6
BRANCH   1  18
ATOM     18  C   UNL     1      44.429   5.536  10.960  0.00  0.00    +0.000 C 
BRANCH  18  19
ATOM     19  N   UNL     1      43.800   4.636   9.972  0.00  0.00    +0.000 N 
ATOM     20  H   UNL     1      43.068   5.089   9.426  0.00  0.00    +0.000 HD
BRANCH  19  21
ATOM     21  C   UNL     1      44.741   4.026   9.117  0.00  0.00    +0.000 A 
ATOM     22  N   UNL     1      45.541   4.805   8.348  0.00  0.00    +0.000 NA
ATOM     23  C   UNL     1      46.457   4.191   7.555  0.00  0.00    +0.000 A 
ATOM     24  C   UNL     1      46.649   2.819   7.508  0.00  0.00    +0.000 A 
ATOM     25  C   UNL     1      45.835   2.020   8.306  0.00  0.00    +0.000 A 
ATOM     26  C   UNL     1      44.877   2.631   9.110  0.00  0.00    +0.000 A 
ATOM     27  F   UNL     1      44.080   1.864   9.870  0.00  0.00    +0.000 F 
BRANCH  24  28
ATOM     28  C   UNL     1      47.680   2.280   6.597  0.00  0.00    +0.000 C 
ATOM     29  N   UNL     1      47.876   2.932   5.412  0.00  0.00    +0.000 N 
ATOM     30  O   UNL     1      48.315   1.275   6.882  0.00  0.00    +0.000 OA
ATOM     31  H   UNL     1      47.234   3.616   5.039  0.00  0.00    +0.000 HD
ATOM     32  H   UNL     1      48.528   2.503   4.765  0.00  0.00    +0.000 HD
ENDBRANCH  24  28
ENDBRANCH  19  21
ENDBRANCH  18  19
ENDBRANCH   1  18
TORSDOF 8
ENDMDL
MODEL 5
REMARK VINA RESULT:    -8.520      3.596      5.540
REMARK INTER + INTRA:         -12.815
REMARK INTER:                 -12.278
REMARK INTRA:                  -0.537
REMARK UNBOUND:                -0.559
REMARK  Name = 
REMARK  9 active torsions:
REMARK  status: ('A' for Active; 'I' for Inactive)
REMARK    1  A    between atoms: C_1  and  C_2
REMARK    2  A    between atoms: C_2  and  O_3
REMARK    3  A    between atoms: C_5  and  O_6
REMARK    4  A    between atoms: O_6  and  C_7
REMARK    5  A    between atoms: C_9  and  C_10
REMARK    6  A    between atoms: C_10  and  C_13
REMARK    7  A    between atoms: C_13  and  N_14
REMARK    8  A    between atoms: N_14  and  C_15
REMARK    9  A    between atoms: C_18  and  C_19
REMARK                            x       y       z     vdW  Elec       q    Type
REMARK                         _______ _______ _______ _____ _____    ______ ____
ROOT
ATOM      1  C   UNL     1      44.759   4.649  12.379  0.00  0.00    +0.000 C 
ATOM      2  F   UNL     1      45.660   3.621  12.318  0.00  0.00    +0.000 F 
ATOM      3  F   UNL     1      44.168   4.531  13.609  0.00  0.00    +0.000 F 
ENDROOT
BRANCH   1   6
ATOM      4  C   UNL     1      45.384   8.389  12.341  0.00  0.00    +0.000 A 
ATOM      5  C   UNL     1      44.727   7.170  12.418  0.00  0.00    +0.000 A 
ATOM      6  C   UNL     1      45.465   5.991  12.236  0.00  0.00    +0.000 A 
ATOM      7  C   UNL     1      46.834   6.125  11.956  0.00  0.00    +0.000 A 
ATOM      8  C   UNL     1      47.392   7.392  11.884  0.00  0.00    +0.000 A 
ATOM      9  N   UNL     1      46.699   8.527  12.079  0.00  0.00    +0.000 NA
BRANCH   4  10
ATOM     10  O   UNL     1      44.635   9.525  12.570  0.00  0.00    +0.000 OA
BRANCH  10  14
ATOM     11  C   UNL     1      41.768  11.216   9.560  0.00  0.00    +0.000 C 
ATOM     12  C   UNL     1      42.594  10.544  10.644  0.00  0.00    +0.000 C 
ATOM     13  C   UNL     1      43.436  11.516  11.510  0.00  0.00    +0.000 C 
ATOM     14  C   UNL     1      44.583  10.470  11.473  0.00  0.00    +0.000 C 
ATOM     15  C   UNL     1      43.938   9.926  10.173  0.00  0.00    +0.000 C 
BRANCH  12  16
ATOM     16  O   UNL     1      41.744   9.633  11.378  0.00  0.00    +0.000 OA
ATOM     17  H   UNL     1      40.875   9.683  10.944  0.00  0.00    +0.000 HD
ENDBRANCH  12  16
ENDBRANCH  10  14
ENDBRANCH   4  10
ENDBRANCH   1   6
BRANCH   1  18
ATOM     18  C   UNL     1      43.664   4.405  11.310  0.00  0.00    +0.000 C 
BRANCH  18  19
ATOM     19  N   UNL     1      43.939   4.971   9.974  0.00  0.00    +0.000 N 
ATOM     20  H   UNL     1      44.316   5.917  10.009  0.00  0.00    +0.000 HD
BRANCH  19  21
ATOM     21  C   UNL     1      44.771   4.141   9.194  0.00  0.00    +0.000 A 
ATOM     22  N   UNL     1      45.660   4.707   8.341  0.00  0.00    +0.000 NA
ATOM     23  C   UNL     1      46.467   3.885   7.623  0.00  0.00    +0.000 A 
ATOM     24  C   UNL     1      46.466   2.502   7.734  0.00  0.00    +0.000 A 
ATOM     25  C   UNL     1      45.561   1.922   8.619  0.00  0.00    +0.000 A 
ATOM     26  C   UNL     1      44.711   2.749   9.347  0.00  0.00    +0.000 A 
ATOM     27  F   UNL     1      43.828   2.193  10.191  0.00  0.00    +0.000 F 
BRANCH  24  28
ATOM     28  C   UNL     1      47.396   1.724   6.891  0.00  0.00    +0.000 C 
ATOM     29  N   UNL     1      48.481   2.379   6.380  0.00  0.00    +0.000 N 
ATOM     30  O   UNL     1      47.189   0.546   6.639  0.00  0.00    +0.000 OA
ATOM     31  H   UNL     1      48.573   3.384   6.372  0.00  0.00    +0.000 HD
ATOM     32  H   UNL     1      49.064   1.853   5.739  0.00  0.00    +0.000 HD
ENDBRANCH  24  28
ENDBRANCH  19  21
ENDBRANCH  18  19
ENDBRANCH   1  18
TORSDOF 8
ENDMDL
MODEL 6
REMARK VINA RESULT:    -8.402      2.171      2.936
REMARK INTER + INTRA:         -12.645
REMARK INTER:                 -12.056
REMARK INTRA:                  -0.589
REMARK UNBOUND:                -0.559
REMARK  Name = 
REMARK  9 active torsions:
REMARK  status: ('A' for Active; 'I' for Inactive)
REMARK    1  A    between atoms: C_1  and  C_2
REMARK    2  A    between atoms: C_2  and  O_3
REMARK    3  A    between atoms: C_5  and  O_6
REMARK    4  A    between atoms: O_6  and  C_7
REMARK    5  A    between atoms: C_9  and  C_10
REMARK    6  A    between atoms: C_10  and  C_13
REMARK    7  A    between atoms: C_13  and  N_14
REMARK    8  A    between atoms: N_14  and  C_15
REMARK    9  A    between atoms: C_18  and  C_19
REMARK                            x       y       z     vdW  Elec       q    Type
REMARK                         _______ _______ _______ _____ _____    ______ ____
ROOT
ATOM      1  C   UNL     1      45.198   6.139  11.478  0.00  0.00    +0.000 C 
ATOM      2  F   UNL     1      44.543   7.310  11.746  0.00  0.00    +0.000 F 
ATOM      3  F   UNL     1      45.899   6.379  10.325  0.00  0.00    +0.000 F 
ENDROOT
BRANCH   1   6
ATOM      4  C   UNL     1      48.155   6.188  13.851  0.00  0.00    +0.000 A 
ATOM      5  C   UNL     1      47.330   6.488  12.777  0.00  0.00    +0.000 A 
ATOM      6  C   UNL     1      46.134   5.773  12.623  0.00  0.00    +0.000 A 
ATOM      7  C   UNL     1      45.859   4.767  13.562  0.00  0.00    +0.000 A 
ATOM      8  C   UNL     1      46.758   4.534  14.592  0.00  0.00    +0.000 A 
ATOM      9  N   UNL     1      47.896   5.229  14.762  0.00  0.00    +0.000 NA
BRANCH   4  10
ATOM     10  O   UNL     1      49.302   6.942  13.997  0.00  0.00    +0.000 OA
BRANCH  10  14
ATOM     11  C   UNL     1      49.361  10.303  16.969  0.00  0.00    +0.000 C 
ATOM     12  C   UNL     1      49.389   9.054  16.105  0.00  0.00    +0.000 C 
ATOM     13  C   UNL     1      50.209   9.192  14.797  0.00  0.00    +0.000 C 
ATOM     14  C   UNL     1      49.101   8.375  14.079  0.00  0.00    +0.000 C 
ATOM     15  C   UNL     1      48.142   8.835  15.206  0.00  0.00    +0.000 C 
BRANCH  12  16
ATOM     16  O   UNL     1      49.730   7.922  16.937  0.00  0.00    +0.000 OA
ATOM     17  H   UNL     1      50.671   8.034  17.154  0.00  0.00    +0.000 HD
ENDBRANCH  12  16
ENDBRANCH  10  14
ENDBRANCH   4  10
ENDBRANCH   1   6
BRANCH   1  18
ATOM     18  C   UNL     1      44.144   5.048  11.163  0.00  0.00    +0.000 C 
BRANCH  18  19
ATOM     19  N   UNL     1      43.784   4.901   9.738  0.00  0.00    +0.000 N 
ATOM     20  H   UNL     1      43.722   5.792   9.246  0.00  0.00    +0.000 HD
BRANCH  19  21
ATOM     21  C   UNL     1      44.644   4.021   9.049  0.00  0.00    +0.000 A 
ATOM     22  N   UNL     1      45.500   4.520   8.123  0.00  0.00    +0.000 NA
ATOM     23  C   UNL     1      46.336   3.653   7.496  0.00  0.00    +0.000 A 
ATOM     24  C   UNL     1      46.394   2.294   7.767  0.00  0.00    +0.000 A 
ATOM     25  C   UNL     1      45.522   1.784   8.726  0.00  0.00    +0.000 A 
ATOM     26  C   UNL     1      44.645   2.656   9.365  0.00  0.00    +0.000 A 
ATOM     27  F   UNL     1      43.793   2.166  10.279  0.00  0.00    +0.000 F 
BRANCH  24  28
ATOM     28  C   UNL     1      47.349   1.462   7.008  0.00  0.00    +0.000 C 
ATOM     29  N   UNL     1      48.452   2.081   6.490  0.00  0.00    +0.000 N 
ATOM     30  O   UNL     1      47.148   0.269   6.828  0.00  0.00    +0.000 OA
ATOM     31  H   UNL     1      48.546   3.083   6.418  0.00  0.00    +0.000 HD
ATOM     32  H   UNL     1      49.054   1.513   5.905  0.00  0.00    +0.000 HD
ENDBRANCH  24  28
ENDBRANCH  19  21
ENDBRANCH  18  19
ENDBRANCH   1  18
TORSDOF 8
ENDMDL
MODEL 7
REMARK VINA RESULT:    -8.396      3.019      3.478
REMARK INTER + INTRA:         -12.636
REMARK INTER:                 -11.516
REMARK INTRA:                  -1.120
REMARK UNBOUND:                -0.559
REMARK  Name = 
REMARK  9 active torsions:
REMARK  status: ('A' for Active; 'I' for Inactive)
REMARK    1  A    between atoms: C_1  and  C_2
REMARK    2  A    between atoms: C_2  and  O_3
REMARK    3  A    between atoms: C_5  and  O_6
REMARK    4  A    between atoms: O_6  and  C_7
REMARK    5  A    between atoms: C_9  and  C_10
REMARK    6  A    between atoms: C_10  and  C_13
REMARK    7  A    between atoms: C_13  and  N_14
REMARK    8  A    between atoms: N_14  and  C_15
REMARK    9  A    between atoms: C_18  and  C_19
REMARK                            x       y       z     vdW  Elec       q    Type
REMARK                         _______ _______ _______ _____ _____    ______ ____
ROOT
ATOM      1  C   UNL     1      43.687   4.370  12.141  0.00  0.00    +0.000 C 
ATOM      2  F   UNL     1      43.288   4.039  13.406  0.00  0.00    +0.000 F 
ATOM      3  F   UNL     1      42.538   4.379  11.396  0.00  0.00    +0.000 F 
ENDROOT
BRANCH   1   6
ATOM      4  C   UNL     1      46.153   7.165  12.844  0.00  0.00    +0.000 A 
ATOM      5  C   UNL     1      45.515   5.935  12.898  0.00  0.00    +0.000 A 
ATOM      6  C   UNL     1      44.358   5.739  12.130  0.00  0.00    +0.000 A 
ATOM      7  C   UNL     1      43.899   6.824  11.368  0.00  0.00    +0.000 A 
ATOM      8  C   UNL     1      44.601   8.019  11.395  0.00  0.00    +0.000 A 
ATOM      9  N   UNL     1      45.723   8.210  12.110  0.00  0.00    +0.000 NA
BRANCH   4  10
ATOM     10  O   UNL     1      47.313   7.307  13.578  0.00  0.00    +0.000 OA
BRANCH  10  14
ATOM     11  C   UNL     1      51.660   8.378  13.870  0.00  0.00    +0.000 C 
ATOM     12  C   UNL     1      50.226   7.878  13.893  0.00  0.00    +0.000 C 
ATOM     13  C   UNL     1      49.601   7.646  12.494  0.00  0.00    +0.000 C 
ATOM     14  C   UNL     1      48.278   8.246  13.044  0.00  0.00    +0.000 C 
ATOM     15  C   UNL     1      49.142   8.969  14.108  0.00  0.00    +0.000 C 
BRANCH  12  16
ATOM     16  O   UNL     1      50.137   6.762  14.808  0.00  0.00    +0.000 OA
ATOM     17  H   UNL     1      51.000   6.317  14.757  0.00  0.00    +0.000 HD
ENDBRANCH  12  16
ENDBRANCH  10  14
ENDBRANCH   4  10
ENDBRANCH   1   6
BRANCH   1  18
ATOM     18  C   UNL     1      44.587   3.232  11.596  0.00  0.00    +0.000 C 
BRANCH  18  19
ATOM     19  N   UNL     1      44.055   2.502  10.428  0.00  0.00    +0.000 N 
ATOM     20  H   UNL     1      43.137   2.832  10.132  0.00  0.00    +0.000 HD
BRANCH  19  21
ATOM     21  C   UNL     1      44.948   2.499   9.337  0.00  0.00    +0.000 A 
ATOM     22  N   UNL     1      45.626   1.364   9.038  0.00  0.00    +0.000 NA
ATOM     23  C   UNL     1      46.458   1.383   7.964  0.00  0.00    +0.000 A 
ATOM     24  C   UNL     1      46.631   2.479   7.133  0.00  0.00    +0.000 A 
ATOM     25  C   UNL     1      45.925   3.641   7.434  0.00  0.00    +0.000 A 
ATOM     26  C   UNL     1      45.084   3.646   8.543  0.00  0.00    +0.000 A 
ATOM     27  F   UNL     1      44.413   4.768   8.845  0.00  0.00    +0.000 F 
BRANCH  24  28
ATOM     28  C   UNL     1      47.571   2.366   6.000  0.00  0.00    +0.000 C 
ATOM     29  N   UNL     1      47.491   3.314   5.018  0.00  0.00    +0.000 N 
ATOM     30  O   UNL     1      48.373   1.446   5.930  0.00  0.00    +0.000 OA
ATOM     31  H   UNL     1      46.713   3.948   4.917  0.00  0.00    +0.000 HD
ATOM     32  H   UNL     1      48.087   3.176   4.210  0.00  0.00    +0.000 HD
ENDBRANCH  24  28
ENDBRANCH  19  21
ENDBRANCH  18  19
ENDBRANCH   1  18
TORSDOF 8
ENDMDL
MODEL 8
REMARK VINA RESULT:    -8.101      2.134      2.376
REMARK INTER + INTRA:         -12.212
REMARK INTER:                 -11.400
REMARK INTRA:                  -0.812
REMARK UNBOUND:                -0.559
REMARK  Name = 
REMARK  9 active torsions:
REMARK  status: ('A' for Active; 'I' for Inactive)
REMARK    1  A    between atoms: C_1  and  C_2
REMARK    2  A    between atoms: C_2  and  O_3
REMARK    3  A    between atoms: C_5  and  O_6
REMARK    4  A    between atoms: O_6  and  C_7
REMARK    5  A    between atoms: C_9  and  C_10
REMARK    6  A    between atoms: C_10  and  C_13
REMARK    7  A    between atoms: C_13  and  N_14
REMARK    8  A    between atoms: N_14  and  C_15
REMARK    9  A    between atoms: C_18  and  C_19
REMARK                            x       y       z     vdW  Elec       q    Type
REMARK                         _______ _______ _______ _____ _____    ______ ____
ROOT
ATOM      1  C   UNL     1      45.227   5.731  12.198  0.00  0.00    +0.000 C 
ATOM      2  F   UNL     1      45.694   4.447  12.262  0.00  0.00    +0.000 F 
ATOM      3  F   UNL     1      44.069   5.725  12.930  0.00  0.00    +0.000 F 
ENDROOT
BRANCH   1   6
ATOM      4  C   UNL     1      48.281   7.076  14.001  0.00  0.00    +0.000 A 
ATOM      5  C   UNL     1      47.329   6.193  13.512  0.00  0.00    +0.000 A 
ATOM      6  C   UNL     1      46.243   6.703  12.787  0.00  0.00    +0.000 A 
ATOM      7  C   UNL     1      46.173   8.095  12.624  0.00  0.00    +0.000 A 
ATOM      8  C   UNL     1      47.168   8.893  13.166  0.00  0.00    +0.000 A 
ATOM      9  N   UNL     1      48.226   8.413  13.844  0.00  0.00    +0.000 NA
BRANCH   4  10
ATOM     10  O   UNL     1      49.358   6.535  14.672  0.00  0.00    +0.000 OA
BRANCH  10  14
ATOM     11  C   UNL     1      52.357   7.148  17.953  0.00  0.00    +0.000 C 
ATOM     12  C   UNL     1      51.488   6.915  16.728  0.00  0.00    +0.000 C 
ATOM     13  C   UNL     1      50.393   7.988  16.500  0.00  0.00    +0.000 C 
ATOM     14  C   UNL     1      49.432   6.841  16.086  0.00  0.00    +0.000 C 
ATOM     15  C   UNL     1      50.335   5.892  16.912  0.00  0.00    +0.000 C 
BRANCH  12  16
ATOM     16  O   UNL     1      52.345   6.648  15.595  0.00  0.00    +0.000 OA
ATOM     17  H   UNL     1      53.235   6.523  15.967  0.00  0.00    +0.000 HD
ENDBRANCH  12  16
ENDBRANCH  10  14
ENDBRANCH   4  10
ENDBRANCH   1   6
BRANCH   1  18
ATOM     18  C   UNL     1      44.848   6.042  10.728  0.00  0.00    +0.000 C 
BRANCH  18  19
ATOM     19  N   UNL     1      44.069   4.997  10.035  0.00  0.00    +0.000 N 
ATOM     20  H   UNL     1      43.299   5.370   9.481  0.00  0.00    +0.000 HD
BRANCH  19  21
ATOM     21  C   UNL     1      44.876   4.153   9.243  0.00  0.00    +0.000 A 
ATOM     22  N   UNL     1      45.749   4.705   8.365  0.00  0.00    +0.000 NA
ATOM     23  C   UNL     1      46.533   3.870   7.636  0.00  0.00    +0.000 A 
ATOM     24  C   UNL     1      46.522   2.488   7.758  0.00  0.00    +0.000 A 
ATOM     25  C   UNL     1      45.632   1.923   8.668  0.00  0.00    +0.000 A 
ATOM     26  C   UNL     1      44.807   2.764   9.409  0.00  0.00    +0.000 A 
ATOM     27  F   UNL     1      43.939   2.222  10.277  0.00  0.00    +0.000 F 
BRANCH  24  28
ATOM     28  C   UNL     1      47.425   1.695   6.900  0.00  0.00    +0.000 C 
ATOM     29  N   UNL     1      48.413   2.367   6.234  0.00  0.00    +0.000 N 
ATOM     30  O   UNL     1      47.280   0.488   6.771  0.00  0.00    +0.000 OA
ATOM     31  H   UNL     1      48.433   3.370   6.131  0.00  0.00    +0.000 HD
ATOM     32  H   UNL     1      48.971   1.821   5.588  0.00  0.00    +0.000 HD
ENDBRANCH  24  28
ENDBRANCH  19  21
ENDBRANCH  18  19
ENDBRANCH   1  18
TORSDOF 8
ENDMDL
MODEL 9
REMARK VINA RESULT:    -7.615      3.094      8.439
REMARK INTER + INTRA:         -11.513
REMARK INTER:                 -10.733
REMARK INTRA:                  -0.780
REMARK UNBOUND:                -0.559
REMARK  Name = 
REMARK  9 active torsions:
REMARK  status: ('A' for Active; 'I' for Inactive)
REMARK    1  A    between atoms: C_1  and  C_2
REMARK    2  A    between atoms: C_2  and  O_3
REMARK    3  A    between atoms: C_5  and  O_6
REMARK    4  A    between atoms: O_6  and  C_7
REMARK    5  A    between atoms: C_9  and  C_10
REMARK    6  A    between atoms: C_10  and  C_13
REMARK    7  A    between atoms: C_13  and  N_14
REMARK    8  A    between atoms: N_14  and  C_15
REMARK    9  A    between atoms: C_18  and  C_19
REMARK                            x       y       z     vdW  Elec       q    Type
REMARK                         _______ _______ _______ _____ _____    ______ ____
ROOT
ATOM      1  C   UNL     1      46.622   5.244  13.620  0.00  0.00    +0.000 C 
ATOM      2  F   UNL     1      47.765   5.094  12.883  0.00  0.00    +0.000 F 
ATOM      3  F   UNL     1      46.713   6.498  14.165  0.00  0.00    +0.000 F 
ENDROOT
BRANCH   1   6
ATOM      4  C   UNL     1      44.440   4.854  10.542  0.00  0.00    +0.000 A 
ATOM      5  C   UNL     1      45.560   5.020  11.344  0.00  0.00    +0.000 A 
ATOM      6  C   UNL     1      45.390   5.121  12.732  0.00  0.00    +0.000 A 
ATOM      7  C   UNL     1      44.076   5.075  13.225  0.00  0.00    +0.000 A 
ATOM      8  C   UNL     1      43.022   4.923  12.337  0.00  0.00    +0.000 A 
ATOM      9  N   UNL     1      43.176   4.802  11.007  0.00  0.00    +0.000 NA
BRANCH   4  10
ATOM     10  O   UNL     1      44.649   4.713   9.186  0.00  0.00    +0.000 OA
BRANCH  10  14
ATOM     11  C   UNL     1      47.001   2.034   6.461  0.00  0.00    +0.000 C 
ATOM     12  C   UNL     1      46.329   3.075   7.340  0.00  0.00    +0.000 C 
ATOM     13  C   UNL     1      46.033   2.603   8.787  0.00  0.00    +0.000 C 
ATOM     14  C   UNL     1      44.675   3.350   8.696  0.00  0.00    +0.000 C 
ATOM     15  C   UNL     1      44.793   3.213   7.157  0.00  0.00    +0.000 C 
BRANCH  12  16
ATOM     16  O   UNL     1      47.056   4.319   7.227  0.00  0.00    +0.000 OA
ATOM     17  H   UNL     1      47.993   4.082   7.340  0.00  0.00    +0.000 HD
ENDBRANCH  12  16
ENDBRANCH  10  14
ENDBRANCH   4  10
ENDBRANCH   1   6
BRANCH   1  18
ATOM     18  C   UNL     1      46.652   4.225  14.787  0.00  0.00    +0.000 C 
BRANCH  18  19
ATOM     19  N   UNL     1      47.167   4.741  16.071  0.00  0.00    +0.000 N 
ATOM     20  H   UNL     1      46.456   4.781  16.802  0.00  0.00    +0.000 HD
BRANCH  19  21
ATOM     21  C   UNL     1      48.297   4.032  16.528  0.00  0.00    +0.000 A 
ATOM     22  N   UNL     1      48.446   2.729  16.184  0.00  0.00    +0.000 NA
ATOM     23  C   UNL     1      49.558   2.079  16.615  0.00  0.00    +0.000 A 
ATOM     24  C   UNL     1      50.569   2.674  17.354  0.00  0.00    +0.000 A 
ATOM     25  C   UNL     1      50.421   4.016  17.698  0.00  0.00    +0.000 A 
ATOM     26  C   UNL     1      49.278   4.691  17.282  0.00  0.00    +0.000 A 
ATOM     27  F   UNL     1      49.125   5.980  17.622  0.00  0.00    +0.000 F 
BRANCH  24  28
ATOM     28  C   UNL     1      51.725   1.850  17.762  0.00  0.00    +0.000 C 
ATOM     29  N   UNL     1      51.497   0.528  18.019  0.00  0.00    +0.000 N 
ATOM     30  O   UNL     1      52.839   2.339  17.888  0.00  0.00    +0.000 OA
ATOM     31  H   UNL     1      50.576   0.135  18.147  0.00  0.00    +0.000 HD
ATOM     32  H   UNL     1      52.283  -0.004  18.375  0.00  0.00    +0.000 HD
ENDBRANCH  24  28
ENDBRANCH  19  21
ENDBRANCH  18  19
ENDBRANCH   1  18
TORSDOF 8
ENDMDL
