MODEL 1
REMARK VINA RESULT:    -9.045      0.000      0.000
REMARK INTER + INTRA:         -13.954
REMARK INTER:                 -13.010
REMARK INTRA:                  -0.943
REMARK UNBOUND:                -0.943
REMARK  Name = 
REMARK  8 active torsions:
REMARK  status: ('A' for Active; 'I' for Inactive)
REMARK    1  A    between atoms: C_2  and  C_4
REMARK    2  A    between atoms: C_7  and  O_8
REMARK    3  A    between atoms: O_8  and  C_9
REMARK    4  A    between atoms: C_9  and  C_10
REMARK    5  A    between atoms: C_10  and  C_13
REMARK    6  A    between atoms: C_15  and  C_16
REMARK    7  A    between atoms: CA_19  and  C_20
REMARK    8  A    between atoms: C_20  and  OXT_22
REMARK                            x       y       z     vdW  Elec       q    Type
REMARK                         _______ _______ _______ _____ _____    ______ ____
ROOT
ATOM      1  C   UNL     1      43.496   5.534  11.917  0.00  0.00    +0.000 C 
ATOM      2  F   UNL     1      42.876   6.623  11.367  0.00  0.00    +0.000 F 
ATOM      3  F   UNL     1      42.800   5.267  13.064  0.00  0.00    +0.000 F 
ENDROOT
BRANCH   1   4
ATOM      4  C   UNL     1      44.971   5.825  12.217  0.00  0.00    +0.000 A 
ATOM      5  C   UNL     1      45.533   5.367  13.413  0.00  0.00    +0.000 A 
ATOM      6  C   UNL     1      46.885   5.627  13.712  0.00  0.00    +0.000 A 
ATOM      7  C   UNL     1      47.615   6.347  12.757  0.00  0.00    +0.000 A 
ATOM      8  C   UNL     1      46.995   6.770  11.596  0.00  0.00    +0.000 A 
ATOM      9  N   UNL     1      45.701   6.527  11.312  0.00  0.00    +0.000 NA
BRANCH   6  10
ATOM     10  C   UNL     1      47.508   5.176  14.981  0.00  0.00    +0.000 A 
ATOM     11  C   UNL     1      47.124   3.987  15.622  0.00  0.00    +0.000 A 
ATOM     12  C   UNL     1      47.746   3.574  16.802  0.00  0.00    +0.000 A 
ATOM     13  CA  UNL     1      48.758   4.365  17.322  0.00  0.00    +0.000 A 
ATOM     14  N   UNL     1      49.172   5.535  16.761  0.00  0.00    +0.000 NA
ATOM     15  C   UNL     1      48.528   5.899  15.618  0.00  0.00    +0.000 A 
BRANCH  13  16
ATOM     16  C   UNL     1      49.478   3.941  18.557  0.00  0.00    +0.000 C 
ATOM     17  O   UNL     1      50.674   4.093  18.745  0.00  0.00    +0.000 OA
BRANCH  16  18
ATOM     18  OXT UNL     1      48.641   3.361  19.452  0.00  0.00    +0.000 OA
ATOM     19  HXT UNL     1      47.748   3.779  19.378  0.00  0.00    +0.000 HD
ENDBRANCH  16  18
ENDBRANCH  13  16
ENDBRANCH   6  10
ENDBRANCH   1   4
BRANCH   1  20
ATOM     20  C   UNL     1      43.352   4.345  10.957  0.00  0.00    +0.000 C 
BRANCH  20  21
ATOM     21  O   UNL     1      43.549   4.714   9.576  0.00  0.00    +0.000 OA
BRANCH  21  25
ATOM     22  C   UNL     1      46.349   2.250   7.811  0.00  0.00    +0.000 A 
ATOM     23  C   UNL     1      45.424   1.708   8.705  0.00  0.00    +0.000 A 
ATOM     24  C   UNL     1      44.475   2.545   9.300  0.00  0.00    +0.000 A 
ATOM     25  C   UNL     1      44.486   3.893   8.973  0.00  0.00    +0.000 A 
ATOM     26  N   UNL     1      45.371   4.436   8.107  0.00  0.00    +0.000 NA
ATOM     27  C   UNL     1      46.288   3.610   7.555  0.00  0.00    +0.000 A 
BRANCH  22  29
ATOM     28  N   UNL     1      48.414   2.153   6.536  0.00  0.00    +0.000 N 
ATOM     29  C   UNL     1      47.411   1.461   7.154  0.00  0.00    +0.000 C 
ATOM     30  O   UNL     1      47.413   0.239   7.192  0.00  0.00    +0.000 OA
ATOM     31  H   UNL     1      49.182   1.601   6.176  0.00  0.00    +0.000 HD
ATOM     32  H   UNL     1      48.585   3.134   6.707  0.00  0.00    +0.000 HD
ENDBRANCH  22  29
ENDBRANCH  21  25
ENDBRANCH  20  21
ENDBRANCH   1  20
TORSDOF 8
ENDMDL
MODEL 2
REMARK VINA RESULT:    -8.940      1.268      1.671
REMARK INTER + INTRA:         -13.803
REMARK INTER:                 -12.811
REMARK INTRA:                  -0.992
REMARK UNBOUND:                -0.943
REMARK  Name = 
REMARK  8 active torsions:
REMARK  status: ('A' for Active; 'I' for Inactive)
REMARK    1  A    between atoms: C_2  and  C_4
REMARK    2  A    between atoms: C_7  and  O_8
REMARK    3  A    between atoms: O_8  and  C_9
REMARK    4  A    between atoms: C_9  and  C_10
REMARK    5  A    between atoms: C_10  and  C_13
REMARK    6  A    between atoms: C_15  and  C_16
REMARK    7  A    between atoms: CA_19  and  C_20
REMARK    8  A    between atoms: C_20  and  OXT_22
REMARK                            x       y       z     vdW  Elec       q    Type
REMARK                         _______ _______ _______ _____ _____    ______ ____
ROOT
ATOM      1  C   UNL     1      43.809   4.370  12.321  0.00  0.00    +0.000 C 
ATOM      2  F   UNL     1      42.790   5.069  12.910  0.00  0.00    +0.000 F 
ATOM      3  F   UNL     1      43.677   3.089  12.782  0.00  0.00    +0.000 F 
ENDROOT
BRANCH   1   4
ATOM      4  C   UNL     1      45.175   4.957  12.694  0.00  0.00    +0.000 A 
ATOM      5  C   UNL     1      45.723   4.679  13.951  0.00  0.00    +0.000 A 
ATOM      6  C   UNL     1      46.975   5.210  14.317  0.00  0.00    +0.000 A 
ATOM      7  C   UNL     1      47.626   6.007  13.364  0.00  0.00    +0.000 A 
ATOM      8  C   UNL     1      47.025   6.240  12.141  0.00  0.00    +0.000 A 
ATOM      9  N   UNL     1      45.825   5.737  11.793  0.00  0.00    +0.000 NA
BRANCH   6  10
ATOM     10  C   UNL     1      47.576   4.955  15.649  0.00  0.00    +0.000 A 
ATOM     11  C   UNL     1      48.561   5.791  16.199  0.00  0.00    +0.000 A 
ATOM     12  C   UNL     1      49.090   5.541  17.466  0.00  0.00    +0.000 A 
ATOM     13  CA  UNL     1      48.613   4.449  18.173  0.00  0.00    +0.000 A 
ATOM     14  N   UNL     1      47.671   3.590  17.697  0.00  0.00    +0.000 NA
ATOM     15  C   UNL     1      47.193   3.870  16.453  0.00  0.00    +0.000 A 
BRANCH  13  16
ATOM     16  C   UNL     1      49.120   4.169  19.547  0.00  0.00    +0.000 C 
ATOM     17  O   UNL     1      50.127   4.665  20.025  0.00  0.00    +0.000 OA
BRANCH  16  18
ATOM     18  OXT UNL     1      48.326   3.290  20.206  0.00  0.00    +0.000 OA
ATOM     19  HXT UNL     1      47.471   3.733  20.433  0.00  0.00    +0.000 HD
ENDBRANCH  16  18
ENDBRANCH  13  16
ENDBRANCH   6  10
ENDBRANCH   1   4
BRANCH   1  20
ATOM     20  C   UNL     1      43.600   4.378  10.801  0.00  0.00    +0.000 C 
BRANCH  20  21
ATOM     21  O   UNL     1      43.554   3.050  10.236  0.00  0.00    +0.000 OA
BRANCH  21  25
ATOM     22  C   UNL     1      46.523   2.553   7.413  0.00  0.00    +0.000 A 
ATOM     23  C   UNL     1      45.934   3.808   7.576  0.00  0.00    +0.000 A 
ATOM     24  C   UNL     1      44.930   3.974   8.536  0.00  0.00    +0.000 A 
ATOM     25  C   UNL     1      44.557   2.877   9.297  0.00  0.00    +0.000 A 
ATOM     26  N   UNL     1      45.117   1.655   9.157  0.00  0.00    +0.000 NA
ATOM     27  C   UNL     1      46.076   1.515   8.214  0.00  0.00    +0.000 A 
BRANCH  22  29
ATOM     28  N   UNL     1      47.623   3.077   5.313  0.00  0.00    +0.000 N 
ATOM     29  C   UNL     1      47.567   2.264   6.409  0.00  0.00    +0.000 C 
ATOM     30  O   UNL     1      48.371   1.356   6.567  0.00  0.00    +0.000 OA
ATOM     31  H   UNL     1      48.402   2.927   4.684  0.00  0.00    +0.000 HD
ATOM     32  H   UNL     1      47.160   3.975   5.276  0.00  0.00    +0.000 HD
ENDBRANCH  22  29
ENDBRANCH  21  25
ENDBRANCH  20  21
ENDBRANCH   1  20
TORSDOF 8
ENDMDL
MODEL 3
REMARK VINA RESULT:    -8.267      2.104      2.641
REMARK INTER + INTRA:         -12.835
REMARK INTER:                 -11.992
REMARK INTRA:                  -0.843
REMARK UNBOUND:                -0.943
REMARK  Name = 
REMARK  8 active torsions:
REMARK  status: ('A' for Active; 'I' for Inactive)
REMARK    1  A    between atoms: C_2  and  C_4
REMARK    2  A    between atoms: C_7  and  O_8
REMARK    3  A    between atoms: O_8  and  C_9
REMARK    4  A    between atoms: C_9  and  C_10
REMARK    5  A    between atoms: C_10  and  C_13
REMARK    6  A    between atoms: C_15  and  C_16
REMARK    7  A    between atoms: CA_19  and  C_20
REMARK    8  A    between atoms: C_20  and  OXT_22
REMARK                            x       y       z     vdW  Elec       q    Type
REMARK                         _______ _______ _______ _____ _____    ______ ____
ROOT
ATOM      1  C   UNL     1      43.182   5.064  12.247  0.00  0.00    +0.000 C 
ATOM      2  F   UNL     1      41.881   5.416  12.006  0.00  0.00    +0.000 F 
ATOM      3  F   UNL     1      43.178   4.519  13.503  0.00  0.00    +0.000 F 
ENDROOT
BRANCH   1   4
ATOM      4  C   UNL     1      44.111   6.281  12.173  0.00  0.00    +0.000 A 
ATOM      5  C   UNL     1      45.315   6.271  12.885  0.00  0.00    +0.000 A 
ATOM      6  C   UNL     1      46.183   7.380  12.834  0.00  0.00    +0.000 A 
ATOM      7  C   UNL     1      45.779   8.462  12.039  0.00  0.00    +0.000 A 
ATOM      8  C   UNL     1      44.574   8.403  11.363  0.00  0.00    +0.000 A 
ATOM      9  N   UNL     1      43.742   7.346  11.416  0.00  0.00    +0.000 NA
BRANCH   6  10
ATOM     10  C   UNL     1      47.457   7.414  13.594  0.00  0.00    +0.000 A 
ATOM     11  C   UNL     1      48.237   8.577  13.696  0.00  0.00    +0.000 A 
ATOM     12  C   UNL     1      49.419   8.586  14.439  0.00  0.00    +0.000 A 
ATOM     13  CA  UNL     1      49.801   7.418  15.080  0.00  0.00    +0.000 A 
ATOM     14  N   UNL     1      49.101   6.252  15.013  0.00  0.00    +0.000 NA
ATOM     15  C   UNL     1      47.962   6.291  14.269  0.00  0.00    +0.000 A 
BRANCH  13  16
ATOM     16  C   UNL     1      51.034   7.395  15.918  0.00  0.00    +0.000 C 
ATOM     17  O   UNL     1      51.062   7.651  17.110  0.00  0.00    +0.000 OA
BRANCH  16  18
ATOM     18  OXT UNL     1      52.128   7.055  15.193  0.00  0.00    +0.000 OA
ATOM     19  HXT UNL     1      52.917   7.031  15.787  0.00  0.00    +0.000 HD
ENDBRANCH  16  18
ENDBRANCH  13  16
ENDBRANCH   6  10
ENDBRANCH   1   4
BRANCH   1  20
ATOM     20  C   UNL     1      43.599   3.987  11.237  0.00  0.00    +0.000 C 
BRANCH  20  21
ATOM     21  O   UNL     1      43.625   4.474   9.879  0.00  0.00    +0.000 OA
BRANCH  21  25
ATOM     22  C   UNL     1      46.452   2.435   7.670  0.00  0.00    +0.000 A 
ATOM     23  C   UNL     1      45.638   1.732   8.561  0.00  0.00    +0.000 A 
ATOM     24  C   UNL     1      44.680   2.426   9.307  0.00  0.00    +0.000 A 
ATOM     25  C   UNL     1      44.570   3.796   9.128  0.00  0.00    +0.000 A 
ATOM     26  N   UNL     1      45.345   4.494   8.268  0.00  0.00    +0.000 NA
ATOM     27  C   UNL     1      46.274   3.804   7.569  0.00  0.00    +0.000 A 
BRANCH  22  29
ATOM     28  N   UNL     1      48.580   2.583   6.511  0.00  0.00    +0.000 N 
ATOM     29  C   UNL     1      47.514   1.804   6.861  0.00  0.00    +0.000 C 
ATOM     30  O   UNL     1      47.461   0.623   6.547  0.00  0.00    +0.000 OA
ATOM     31  H   UNL     1      49.343   2.112   6.040  0.00  0.00    +0.000 HD
ATOM     32  H   UNL     1      48.784   3.464   6.963  0.00  0.00    +0.000 HD
ENDBRANCH  22  29
ENDBRANCH  21  25
ENDBRANCH  20  21
ENDBRANCH   1  20
TORSDOF 8
ENDMDL
MODEL 4
REMARK VINA RESULT:    -8.253      3.019      3.983
REMARK INTER + INTRA:         -12.816
REMARK INTER:                 -11.748
REMARK INTRA:                  -1.067
REMARK UNBOUND:                -0.943
REMARK  Name = 
REMARK  8 active torsions:
REMARK  status: ('A' for Active; 'I' for Inactive)
REMARK    1  A    between atoms: C_2  and  C_4
REMARK    2  A    between atoms: C_7  and  O_8
REMARK    3  A    between atoms: O_8  and  C_9
REMARK    4  A    between atoms: C_9  and  C_10
REMARK    5  A    between atoms: C_10  and  C_13
REMARK    6  A    between atoms: C_15  and  C_16
REMARK    7  A    between atoms: CA_19  and  C_20
REMARK    8  A    between atoms: C_20  and  OXT_22
REMARK                            x       y       z     vdW  Elec       q    Type
REMARK                         _______ _______ _______ _____ _____    ______ ____
ROOT
ATOM      1  C   UNL     1      43.570   5.640  11.965  0.00  0.00    +0.000 C 
ATOM      2  F   UNL     1      43.553   6.889  11.405  0.00  0.00    +0.000 F 
ATOM      3  F   UNL     1      42.574   5.655  12.903  0.00  0.00    +0.000 F 
ENDROOT
BRANCH   1   4
ATOM      4  C   UNL     1      44.929   5.335  12.603  0.00  0.00    +0.000 A 
ATOM      5  C   UNL     1      45.987   6.235  12.433  0.00  0.00    +0.000 A 
ATOM      6  C   UNL     1      47.246   5.973  13.008  0.00  0.00    +0.000 A 
ATOM      7  C   UNL     1      47.368   4.789  13.750  0.00  0.00    +0.000 A 
ATOM      8  C   UNL     1      46.280   3.945  13.876  0.00  0.00    +0.000 A 
ATOM      9  N   UNL     1      45.078   4.192  13.322  0.00  0.00    +0.000 NA
BRANCH   6  10
ATOM     10  C   UNL     1      48.396   6.894  12.830  0.00  0.00    +0.000 A 
ATOM     11  C   UNL     1      48.670   7.520  11.604  0.00  0.00    +0.000 A 
ATOM     12  C   UNL     1      49.745   8.402  11.472  0.00  0.00    +0.000 A 
ATOM     13  CA  UNL     1      50.531   8.649  12.586  0.00  0.00    +0.000 A 
ATOM     14  N   UNL     1      50.332   8.067  13.800  0.00  0.00    +0.000 NA
ATOM     15  C   UNL     1      49.278   7.208  13.875  0.00  0.00    +0.000 A 
BRANCH  13  16
ATOM     16  C   UNL     1      51.664   9.615  12.501  0.00  0.00    +0.000 C 
ATOM     17  O   UNL     1      51.567  10.755  12.078  0.00  0.00    +0.000 OA
BRANCH  16  18
ATOM     18  OXT UNL     1      52.822   9.073  12.951  0.00  0.00    +0.000 OA
ATOM     19  HXT UNL     1      53.453   9.798  13.181  0.00  0.00    +0.000 HD
ENDBRANCH  16  18
ENDBRANCH  13  16
ENDBRANCH   6  10
ENDBRANCH   1   4
BRANCH   1  20
ATOM     20  C   UNL     1      43.222   4.609  10.883  0.00  0.00    +0.000 C 
BRANCH  20  21
ATOM     21  O   UNL     1      43.703   4.985   9.576  0.00  0.00    +0.000 OA
BRANCH  21  25
ATOM     22  C   UNL     1      46.154   2.045   8.035  0.00  0.00    +0.000 A 
ATOM     23  C   UNL     1      45.259   1.726   9.058  0.00  0.00    +0.000 A 
ATOM     24  C   UNL     1      44.427   2.725   9.576  0.00  0.00    +0.000 A 
ATOM     25  C   UNL     1      44.523   4.003   9.047  0.00  0.00    +0.000 A 
ATOM     26  N   UNL     1      45.380   4.331   8.055  0.00  0.00    +0.000 NA
ATOM     27  C   UNL     1      46.184   3.352   7.579  0.00  0.00    +0.000 A 
BRANCH  22  29
ATOM     28  N   UNL     1      46.821  -0.253   7.617  0.00  0.00    +0.000 N 
ATOM     29  C   UNL     1      47.096   1.074   7.442  0.00  0.00    +0.000 C 
ATOM     30  O   UNL     1      48.064   1.441   6.790  0.00  0.00    +0.000 OA
ATOM     31  H   UNL     1      47.420  -0.902   7.124  0.00  0.00    +0.000 HD
ATOM     32  H   UNL     1      45.914  -0.587   7.913  0.00  0.00    +0.000 HD
ENDBRANCH  22  29
ENDBRANCH  21  25
ENDBRANCH  20  21
ENDBRANCH   1  20
TORSDOF 8
ENDMDL
MODEL 5
REMARK VINA RESULT:    -8.237      3.341      4.579
REMARK INTER + INTRA:         -12.792
REMARK INTER:                 -11.796
REMARK INTRA:                  -0.997
REMARK UNBOUND:                -0.943
REMARK  Name = 
REMARK  8 active torsions:
REMARK  status: ('A' for Active; 'I' for Inactive)
REMARK    1  A    between atoms: C_2  and  C_4
REMARK    2  A    between atoms: C_7  and  O_8
REMARK    3  A    between atoms: O_8  and  C_9
REMARK    4  A    between atoms: C_9  and  C_10
REMARK    5  A    between atoms: C_10  and  C_13
REMARK    6  A    between atoms: C_15  and  C_16
REMARK    7  A    between atoms: CA_19  and  C_20
REMARK    8  A    between atoms: C_20  and  OXT_22
REMARK                            x       y       z     vdW  Elec       q    Type
REMARK                         _______ _______ _______ _____ _____    ______ ____
ROOT
ATOM      1  C   UNL     1      43.531   5.302  12.257  0.00  0.00    +0.000 C 
ATOM      2  F   UNL     1      43.159   6.484  11.676  0.00  0.00    +0.000 F 
ATOM      3  F   UNL     1      42.622   5.093  13.258  0.00  0.00    +0.000 F 
ENDROOT
BRANCH   1   4
ATOM      4  C   UNL     1      44.958   5.379  12.811  0.00  0.00    +0.000 A 
ATOM      5  C   UNL     1      45.773   6.462  12.465  0.00  0.00    +0.000 A 
ATOM      6  C   UNL     1      47.089   6.552  12.959  0.00  0.00    +0.000 A 
ATOM      7  C   UNL     1      47.518   5.519  13.805  0.00  0.00    +0.000 A 
ATOM      8  C   UNL     1      46.659   4.478  14.104  0.00  0.00    +0.000 A 
ATOM      9  N   UNL     1      45.402   4.389  13.627  0.00  0.00    +0.000 NA
BRANCH   6  10
ATOM     10  C   UNL     1      47.988   7.675  12.595  0.00  0.00    +0.000 A 
ATOM     11  C   UNL     1      47.775   8.984  13.056  0.00  0.00    +0.000 A 
ATOM     12  C   UNL     1      48.653  10.016  12.718  0.00  0.00    +0.000 A 
ATOM     13  CA  UNL     1      49.745   9.714  11.921  0.00  0.00    +0.000 A 
ATOM     14  N   UNL     1      50.006   8.471  11.428  0.00  0.00    +0.000 NA
ATOM     15  C   UNL     1      49.116   7.502  11.777  0.00  0.00    +0.000 A 
BRANCH  13  16
ATOM     16  C   UNL     1      50.731  10.777  11.570  0.00  0.00    +0.000 C 
ATOM     17  O   UNL     1      51.265  11.516  12.380  0.00  0.00    +0.000 OA
BRANCH  16  18
ATOM     18  OXT UNL     1      50.963  10.825  10.235  0.00  0.00    +0.000 OA
ATOM     19  HXT UNL     1      50.855  11.757   9.921  0.00  0.00    +0.000 HD
ENDBRANCH  16  18
ENDBRANCH  13  16
ENDBRANCH   6  10
ENDBRANCH   1   4
BRANCH   1  20
ATOM     20  C   UNL     1      43.400   4.178  11.221  0.00  0.00    +0.000 C 
BRANCH  20  21
ATOM     21  O   UNL     1      43.603   4.638   9.868  0.00  0.00    +0.000 OA
BRANCH  21  25
ATOM     22  C   UNL     1      46.356   2.299   7.874  0.00  0.00    +0.000 A 
ATOM     23  C   UNL     1      46.357   3.681   7.675  0.00  0.00    +0.000 A 
ATOM     24  C   UNL     1      45.424   4.472   8.354  0.00  0.00    +0.000 A 
ATOM     25  C   UNL     1      44.528   3.847   9.209  0.00  0.00    +0.000 A 
ATOM     26  N   UNL     1      44.514   2.512   9.419  0.00  0.00    +0.000 NA
ATOM     27  C   UNL     1      45.417   1.767   8.741  0.00  0.00    +0.000 A 
BRANCH  22  29
ATOM     28  N   UNL     1      48.274   1.927   6.431  0.00  0.00    +0.000 N 
ATOM     29  C   UNL     1      47.277   1.373   7.183  0.00  0.00    +0.000 C 
ATOM     30  O   UNL     1      47.173   0.161   7.306  0.00  0.00    +0.000 OA
ATOM     31  H   UNL     1      48.952   1.283   6.044  0.00  0.00    +0.000 HD
ATOM     32  H   UNL     1      48.547   2.897   6.517  0.00  0.00    +0.000 HD
ENDBRANCH  22  29
ENDBRANCH  21  25
ENDBRANCH  20  21
ENDBRANCH   1  20
TORSDOF 8
ENDMDL
MODEL 6
REMARK VINA RESULT:    -8.108      2.999      3.814
REMARK INTER + INTRA:         -12.606
REMARK INTER:                 -11.951
REMARK INTRA:                  -0.655
REMARK UNBOUND:                -0.943
REMARK  Name = 
REMARK  8 active torsions:
REMARK  status: ('A' for Active; 'I' for Inactive)
REMARK    1  A    between atoms: C_2  and  C_4
REMARK    2  A    between atoms: C_7  and  O_8
REMARK    3  A    between atoms: O_8  and  C_9
REMARK    4  A    between atoms: C_9  and  C_10
REMARK    5  A    between atoms: C_10  and  C_13
REMARK    6  A    between atoms: C_15  and  C_16
REMARK    7  A    between atoms: CA_19  and  C_20
REMARK    8  A    between atoms: C_20  and  OXT_22
REMARK                            x       y       z     vdW  Elec       q    Type
REMARK                         _______ _______ _______ _____ _____    ______ ____
ROOT
ATOM      1  C   UNL     1      44.276   3.625  12.496  0.00  0.00    +0.000 C 
ATOM      2  F   UNL     1      43.401   3.548  13.546  0.00  0.00    +0.000 F 
ATOM      3  F   UNL     1      45.342   2.849  12.861  0.00  0.00    +0.000 F 
ENDROOT
BRANCH   1   4
ATOM      4  C   UNL     1      44.707   5.073  12.236  0.00  0.00    +0.000 A 
ATOM      5  C   UNL     1      46.042   5.440  12.434  0.00  0.00    +0.000 A 
ATOM      6  C   UNL     1      46.459   6.766  12.204  0.00  0.00    +0.000 A 
ATOM      7  C   UNL     1      45.480   7.669  11.767  0.00  0.00    +0.000 A 
ATOM      8  C   UNL     1      44.178   7.237  11.592  0.00  0.00    +0.000 A 
ATOM      9  N   UNL     1      43.778   5.972  11.817  0.00  0.00    +0.000 NA
BRANCH   6  10
ATOM     10  C   UNL     1      47.862   7.196  12.426  0.00  0.00    +0.000 A 
ATOM     11  C   UNL     1      48.658   7.716  11.393  0.00  0.00    +0.000 A 
ATOM     12  C   UNL     1      49.966   8.137  11.637  0.00  0.00    +0.000 A 
ATOM     13  CA  UNL     1      50.459   8.034  12.928  0.00  0.00    +0.000 A 
ATOM     14  N   UNL     1      49.749   7.528  13.973  0.00  0.00    +0.000 NA
ATOM     15  C   UNL     1      48.482   7.122  13.683  0.00  0.00    +0.000 A 
BRANCH  13  16
ATOM     16  C   UNL     1      51.837   8.510  13.241  0.00  0.00    +0.000 C 
ATOM     17  O   UNL     1      52.339   9.522  12.780  0.00  0.00    +0.000 OA
BRANCH  16  18
ATOM     18  OXT UNL     1      52.471   7.678  14.104  0.00  0.00    +0.000 OA
ATOM     19  HXT UNL     1      52.153   7.859  15.022  0.00  0.00    +0.000 HD
ENDBRANCH  16  18
ENDBRANCH  13  16
ENDBRANCH   6  10
ENDBRANCH   1   4
BRANCH   1  20
ATOM     20  C   UNL     1      43.614   3.013  11.255  0.00  0.00    +0.000 C 
BRANCH  20  21
ATOM     21  O   UNL     1      43.698   3.869  10.096  0.00  0.00    +0.000 OA
BRANCH  21  25
ATOM     22  C   UNL     1      46.667   2.628   7.513  0.00  0.00    +0.000 A 
ATOM     23  C   UNL     1      46.358   3.986   7.601  0.00  0.00    +0.000 A 
ATOM     24  C   UNL     1      45.352   4.404   8.479  0.00  0.00    +0.000 A 
ATOM     25  C   UNL     1      44.699   3.445   9.238  0.00  0.00    +0.000 A 
ATOM     26  N   UNL     1      44.986   2.126   9.170  0.00  0.00    +0.000 NA
ATOM     27  C   UNL     1      45.952   1.744   8.304  0.00  0.00    +0.000 A 
BRANCH  22  29
ATOM     28  N   UNL     1      48.006   2.825   5.497  0.00  0.00    +0.000 N 
ATOM     29  C   UNL     1      47.687   2.079   6.596  0.00  0.00    +0.000 C 
ATOM     30  O   UNL     1      48.249   1.018   6.828  0.00  0.00    +0.000 OA
ATOM     31  H   UNL     1      48.773   2.483   4.931  0.00  0.00    +0.000 HD
ATOM     32  H   UNL     1      47.764   3.803   5.412  0.00  0.00    +0.000 HD
ENDBRANCH  22  29
ENDBRANCH  21  25
ENDBRANCH  20  21
ENDBRANCH   1  20
TORSDOF 8
ENDMDL
MODEL 7
REMARK VINA RESULT:    -7.954      2.226      7.873
REMARK INTER + INTRA:         -12.385
REMARK INTER:                 -11.225
REMARK INTRA:                  -1.160
REMARK UNBOUND:                -0.943
REMARK  Name = 
REMARK  8 active torsions:
REMARK  status: ('A' for Active; 'I' for Inactive)
REMARK    1  A    between atoms: C_2  and  C_4
REMARK    2  A    between atoms: C_7  and  O_8
REMARK    3  A    between atoms: O_8  and  C_9
REMARK    4  A    between atoms: C_9  and  C_10
REMARK    5  A    between atoms: C_10  and  C_13
REMARK    6  A    between atoms: C_15  and  C_16
REMARK    7  A    between atoms: CA_19  and  C_20
REMARK    8  A    between atoms: C_20  and  OXT_22
REMARK                            x       y       z     vdW  Elec       q    Type
REMARK                         _______ _______ _______ _____ _____    ______ ____
ROOT
ATOM      1  C   UNL     1      45.370   8.230  11.958  0.00  0.00    +0.000 C 
ATOM      2  F   UNL     1      44.466   9.246  12.115  0.00  0.00    +0.000 F 
ATOM      3  F   UNL     1      46.241   8.671  10.999  0.00  0.00    +0.000 F 
ENDROOT
BRANCH   1   4
ATOM      4  C   UNL     1      44.679   6.932  11.526  0.00  0.00    +0.000 A 
ATOM      5  C   UNL     1      45.333   6.065  10.645  0.00  0.00    +0.000 A 
ATOM      6  C   UNL     1      44.715   4.868  10.231  0.00  0.00    +0.000 A 
ATOM      7  C   UNL     1      43.440   4.604  10.751  0.00  0.00    +0.000 A 
ATOM      8  C   UNL     1      42.852   5.507  11.617  0.00  0.00    +0.000 A 
ATOM      9  N   UNL     1      43.440   6.653  12.009  0.00  0.00    +0.000 NA
BRANCH   6  10
ATOM     10  C   UNL     1      45.370   3.935   9.281  0.00  0.00    +0.000 A 
ATOM     11  C   UNL     1      46.093   4.388   8.166  0.00  0.00    +0.000 A 
ATOM     12  C   UNL     1      46.720   3.488   7.303  0.00  0.00    +0.000 A 
ATOM     13  CA  UNL     1      46.617   2.134   7.578  0.00  0.00    +0.000 A 
ATOM     14  N   UNL     1      45.922   1.624   8.632  0.00  0.00    +0.000 NA
ATOM     15  C   UNL     1      45.320   2.541   9.438  0.00  0.00    +0.000 A 
BRANCH  13  16
ATOM     16  C   UNL     1      47.306   1.139   6.706  0.00  0.00    +0.000 C 
ATOM     17  O   UNL     1      48.172   1.419   5.893  0.00  0.00    +0.000 OA
BRANCH  16  18
ATOM     18  OXT UNL     1      46.852  -0.119   6.924  0.00  0.00    +0.000 OA
ATOM     19  HXT UNL     1      47.373  -0.530   7.656  0.00  0.00    +0.000 HD
ENDBRANCH  16  18
ENDBRANCH  13  16
ENDBRANCH   6  10
ENDBRANCH   1   4
BRANCH   1  20
ATOM     20  C   UNL     1      46.133   8.039  13.276  0.00  0.00    +0.000 C 
BRANCH  20  21
ATOM     21  O   UNL     1      47.357   7.292  13.110  0.00  0.00    +0.000 OA
BRANCH  21  25
ATOM     22  C   UNL     1      47.618   4.294  15.933  0.00  0.00    +0.000 A 
ATOM     23  C   UNL     1      46.804   4.113  14.812  0.00  0.00    +0.000 A 
ATOM     24  C   UNL     1      46.720   5.131  13.856  0.00  0.00    +0.000 A 
ATOM     25  C   UNL     1      47.457   6.288  14.057  0.00  0.00    +0.000 A 
ATOM     26  N   UNL     1      48.253   6.480  15.132  0.00  0.00    +0.000 NA
ATOM     27  C   UNL     1      48.308   5.488  16.050  0.00  0.00    +0.000 A 
BRANCH  22  29
ATOM     28  N   UNL     1      49.013   3.039  17.475  0.00  0.00    +0.000 N 
ATOM     29  C   UNL     1      47.753   3.297  17.015  0.00  0.00    +0.000 C 
ATOM     30  O   UNL     1      46.774   2.751  17.504  0.00  0.00    +0.000 OA
ATOM     31  H   UNL     1      49.079   2.428  18.279  0.00  0.00    +0.000 HD
ATOM     32  H   UNL     1      49.798   3.647  17.285  0.00  0.00    +0.000 HD
ENDBRANCH  22  29
ENDBRANCH  21  25
ENDBRANCH  20  21
ENDBRANCH   1  20
TORSDOF 8
ENDMDL
MODEL 8
REMARK VINA RESULT:    -7.426      3.688      4.462
REMARK INTER + INTRA:         -11.625
REMARK INTER:                 -10.740
REMARK INTRA:                  -0.885
REMARK UNBOUND:                -0.943
REMARK  Name = 
REMARK  8 active torsions:
REMARK  status: ('A' for Active; 'I' for Inactive)
REMARK    1  A    between atoms: C_2  and  C_4
REMARK    2  A    between atoms: C_7  and  O_8
REMARK    3  A    between atoms: O_8  and  C_9
REMARK    4  A    between atoms: C_9  and  C_10
REMARK    5  A    between atoms: C_10  and  C_13
REMARK    6  A    between atoms: C_15  and  C_16
REMARK    7  A    between atoms: CA_19  and  C_20
REMARK    8  A    between atoms: C_20  and  OXT_22
REMARK                            x       y       z     vdW  Elec       q    Type
REMARK                         _______ _______ _______ _____ _____    ______ ____
ROOT
ATOM      1  C   UNL     1      45.030   5.687  12.071  0.00  0.00    +0.000 C 
ATOM      2  F   UNL     1      44.080   5.627  13.055  0.00  0.00    +0.000 F 
ATOM      3  F   UNL     1      45.866   4.632  12.317  0.00  0.00    +0.000 F 
ENDROOT
BRANCH   1   4
ATOM      4  C   UNL     1      45.790   7.018  12.111  0.00  0.00    +0.000 A 
ATOM      5  C   UNL     1      47.188   7.014  12.082  0.00  0.00    +0.000 A 
ATOM      6  C   UNL     1      47.907   8.225  12.121  0.00  0.00    +0.000 A 
ATOM      7  C   UNL     1      47.152   9.405  12.182  0.00  0.00    +0.000 A 
ATOM      8  C   UNL     1      45.772   9.335  12.208  0.00  0.00    +0.000 A 
ATOM      9  N   UNL     1      45.085   8.177  12.176  0.00  0.00    +0.000 NA
BRANCH   6  10
ATOM     10  C   UNL     1      49.390   8.257  12.114  0.00  0.00    +0.000 A 
ATOM     11  C   UNL     1      50.145   7.779  11.030  0.00  0.00    +0.000 A 
ATOM     12  C   UNL     1      51.539   7.845  11.041  0.00  0.00    +0.000 A 
ATOM     13  CA  UNL     1      52.161   8.402  12.147  0.00  0.00    +0.000 A 
ATOM     14  N   UNL     1      51.495   8.871  13.237  0.00  0.00    +0.000 NA
ATOM     15  C   UNL     1      50.138   8.775  13.183  0.00  0.00    +0.000 A 
BRANCH  13  16
ATOM     16  C   UNL     1      53.647   8.530  12.183  0.00  0.00    +0.000 C 
ATOM     17  O   UNL     1      54.397   7.716  12.694  0.00  0.00    +0.000 OA
BRANCH  16  18
ATOM     18  OXT UNL     1      54.067   9.668  11.576  0.00  0.00    +0.000 OA
ATOM     19  HXT UNL     1      54.018   9.550  10.596  0.00  0.00    +0.000 HD
ENDBRANCH  16  18
ENDBRANCH  13  16
ENDBRANCH   6  10
ENDBRANCH   1   4
BRANCH   1  20
ATOM     20  C   UNL     1      44.350   5.479  10.712  0.00  0.00    +0.000 C 
BRANCH  20  21
ATOM     21  O   UNL     1      44.072   4.091  10.432  0.00  0.00    +0.000 OA
BRANCH  21  25
ATOM     22  C   UNL     1      46.558   2.643   7.473  0.00  0.00    +0.000 A 
ATOM     23  C   UNL     1      45.977   1.753   8.378  0.00  0.00    +0.000 A 
ATOM     24  C   UNL     1      45.133   2.246   9.379  0.00  0.00    +0.000 A 
ATOM     25  C   UNL     1      44.900   3.613   9.431  0.00  0.00    +0.000 A 
ATOM     26  N   UNL     1      45.451   4.490   8.563  0.00  0.00    +0.000 NA
ATOM     27  C   UNL     1      46.274   3.991   7.613  0.00  0.00    +0.000 A 
BRANCH  22  29
ATOM     28  N   UNL     1      47.708   3.118   5.388  0.00  0.00    +0.000 N 
ATOM     29  C   UNL     1      47.487   2.229   6.402  0.00  0.00    +0.000 C 
ATOM     30  O   UNL     1      48.063   1.151   6.439  0.00  0.00    +0.000 OA
ATOM     31  H   UNL     1      48.418   2.860   4.714  0.00  0.00    +0.000 HD
ATOM     32  H   UNL     1      47.464   4.096   5.457  0.00  0.00    +0.000 HD
ENDBRANCH  22  29
ENDBRANCH  21  25
ENDBRANCH  20  21
ENDBRANCH   1  20
TORSDOF 8
ENDMDL
MODEL 9
REMARK VINA RESULT:    -7.230      3.722      8.021
REMARK INTER + INTRA:         -11.343
REMARK INTER:                  -9.913
REMARK INTRA:                  -1.431
REMARK UNBOUND:                -0.943
REMARK  Name = 
REMARK  8 active torsions:
REMARK  status: ('A' for Active; 'I' for Inactive)
REMARK    1  A    between atoms: C_2  and  C_4
REMARK    2  A    between atoms: C_7  and  O_8
REMARK    3  A    between atoms: O_8  and  C_9
REMARK    4  A    between atoms: C_9  and  C_10
REMARK    5  A    between atoms: C_10  and  C_13
REMARK    6  A    between atoms: C_15  and  C_16
REMARK    7  A    between atoms: CA_19  and  C_20
REMARK    8  A    between atoms: C_20  and  OXT_22
REMARK                            x       y       z     vdW  Elec       q    Type
REMARK                         _______ _______ _______ _____ _____    ______ ____
ROOT
ATOM      1  C   UNL     1      48.858   9.180  16.323  0.00  0.00    +0.000 C 
ATOM      2  F   UNL     1      47.547   9.367  16.670  0.00  0.00    +0.000 F 
ATOM      3  F   UNL     1      49.385  10.439  16.230  0.00  0.00    +0.000 F 
ENDROOT
BRANCH   1   4
ATOM      4  C   UNL     1      48.980   8.427  14.993  0.00  0.00    +0.000 A 
ATOM      5  C   UNL     1      47.941   7.587  14.581  0.00  0.00    +0.000 A 
ATOM      6  C   UNL     1      48.033   6.882  13.364  0.00  0.00    +0.000 A 
ATOM      7  C   UNL     1      49.198   7.077  12.608  0.00  0.00    +0.000 A 
ATOM      8  C   UNL     1      50.186   7.923  13.078  0.00  0.00    +0.000 A 
ATOM      9  N   UNL     1      50.101   8.592  14.243  0.00  0.00    +0.000 NA
BRANCH   6  10
ATOM     10  C   UNL     1      46.961   5.965  12.906  0.00  0.00    +0.000 A 
ATOM     11  C   UNL     1      46.315   6.126  11.669  0.00  0.00    +0.000 A 
ATOM     12  C   UNL     1      45.327   5.232  11.253  0.00  0.00    +0.000 A 
ATOM     13  CA  UNL     1      45.003   4.176  12.089  0.00  0.00    +0.000 A 
ATOM     14  N   UNL     1      45.577   3.967  13.306  0.00  0.00    +0.000 NA
ATOM     15  C   UNL     1      46.528   4.871  13.671  0.00  0.00    +0.000 A 
BRANCH  13  16
ATOM     16  C   UNL     1      43.983   3.174  11.666  0.00  0.00    +0.000 C 
ATOM     17  O   UNL     1      43.422   3.177  10.583  0.00  0.00    +0.000 OA
BRANCH  16  18
ATOM     18  OXT UNL     1      43.750   2.255  12.635  0.00  0.00    +0.000 OA
ATOM     19  HXT UNL     1      44.394   1.511  12.538  0.00  0.00    +0.000 HD
ENDBRANCH  16  18
ENDBRANCH  13  16
ENDBRANCH   6  10
ENDBRANCH   1   4
BRANCH   1  20
ATOM     20  C   UNL     1      49.567   8.424  17.454  0.00  0.00    +0.000 C 
BRANCH  20  21
ATOM     21  O   UNL     1      48.700   7.491  18.132  0.00  0.00    +0.000 OA
BRANCH  21  25
ATOM     22  C   UNL     1      49.714   3.586  17.266  0.00  0.00    +0.000 A 
ATOM     23  C   UNL     1      48.409   4.024  17.033  0.00  0.00    +0.000 A 
ATOM     24  C   UNL     1      48.069   5.349  17.326  0.00  0.00    +0.000 A 
ATOM     25  C   UNL     1      49.051   6.185  17.836  0.00  0.00    +0.000 A 
ATOM     26  N   UNL     1      50.320   5.781  18.065  0.00  0.00    +0.000 NA
ATOM     27  C   UNL     1      50.622   4.492  17.787  0.00  0.00    +0.000 A 
BRANCH  22  29
ATOM     28  N   UNL     1      51.090   1.683  17.886  0.00  0.00    +0.000 N 
ATOM     29  C   UNL     1      50.168   2.201  17.021  0.00  0.00    +0.000 C 
ATOM     30  O   UNL     1      49.711   1.533  16.105  0.00  0.00    +0.000 OA
ATOM     31  H   UNL     1      51.317   0.704  17.763  0.00  0.00    +0.000 HD
ATOM     32  H   UNL     1      51.287   2.099  18.786  0.00  0.00    +0.000 HD
ENDBRANCH  22  29
ENDBRANCH  21  25
ENDBRANCH  20  21
ENDBRANCH   1  20
TORSDOF 8
ENDMDL
