MODEL 1
REMARK VINA RESULT:    -9.114      0.000      0.000
REMARK INTER + INTRA:         -13.619
REMARK INTER:                 -12.311
REMARK INTRA:                  -1.308
REMARK UNBOUND:                -1.308
REMARK  Name = 
REMARK  7 active torsions:
REMARK  status: ('A' for Active; 'I' for Inactive)
REMARK    1  A    between atoms: C_1  and  C_2
REMARK    2  A    between atoms: C_4  and  C_5
REMARK    3  A    between atoms: C_5  and  N_6
REMARK    4  A    between atoms: C_7  and  C_9
REMARK    5  A    between atoms: C_21  and  C_22
REMARK    6  A    between atoms: C_22  and  N_23
REMARK    7  A    between atoms: C_24  and  C_26
REMARK                            x       y       z     vdW  Elec       q    Type
REMARK                         _______ _______ _______ _____ _____    ______ ____
ROOT
ATOM      1  C   UNL     1      42.994   5.174  12.806  0.00  0.00    +0.000 C 
ATOM      2  C   UNL     1      44.268   5.736  12.235  0.00  0.00    +0.000 A 
ATOM      3  C   UNL     1      45.006   6.628  13.047  0.00  0.00    +0.000 A 
ATOM      4  C   UNL     1      46.205   7.206  12.613  0.00  0.00    +0.000 A 
ATOM      5  C   UNL     1      46.687   6.857  11.350  0.00  0.00    +0.000 A 
ATOM      6  C   UNL     1      45.965   5.981  10.529  0.00  0.00    +0.000 A 
ATOM      7  C   UNL     1      44.741   5.419  10.943  0.00  0.00    +0.000 A 
ENDROOT
BRANCH   4   8
ATOM      8  C   UNL     1      46.976   8.144  13.512  0.00  0.00    +0.000 C 
BRANCH   8   9
ATOM      9  N   UNL     1      47.468   7.456  14.679  0.00  0.00    +0.000 N 
ATOM     10  C   UNL     1      48.694   6.837  14.698  0.00  0.00    +0.000 C 
ATOM     11  O   UNL     1      49.454   6.862  13.737  0.00  0.00    +0.000 OA
ATOM     12  H   UNL     1      46.780   7.208  15.382  0.00  0.00    +0.000 HD
BRANCH  10  13
ATOM     13  C   UNL     1      49.073   6.196  15.963  0.00  0.00    +0.000 A 
ATOM     14  C   UNL     1      50.153   6.683  16.694  0.00  0.00    +0.000 A 
ATOM     15  S   UNL     1      50.428   5.843  18.152  0.00  0.00    +0.000 S 
ATOM     16  C   UNL     1      49.152   4.764  17.837  0.00  0.00    +0.000 A 
ATOM     17  N   UNL     1      48.862   3.751  18.699  0.00  0.00    +0.000 NA
ATOM     18  C   UNL     1      47.889   2.990  18.321  0.00  0.00    +0.000 A 
ATOM     19  N   UNL     1      47.174   3.156  17.162  0.00  0.00    +0.000 N 
ATOM     20  C   UNL     1      47.406   4.185  16.284  0.00  0.00    +0.000 A 
ATOM     21  O   UNL     1      46.704   4.340  15.290  0.00  0.00    +0.000 OA
ATOM     22  C   UNL     1      48.507   5.056  16.649  0.00  0.00    +0.000 A 
ATOM     23  H   UNL     1      46.412   2.535  16.933  0.00  0.00    +0.000 HD
ENDBRANCH  10  13
ENDBRANCH   8   9
ENDBRANCH   4   8
BRANCH   7  24
ATOM     24  C   UNL     1      44.027   4.491   9.976  0.00  0.00    +0.000 C 
BRANCH  24  25
ATOM     25  N   UNL     1      44.890   4.082   8.888  0.00  0.00    +0.000 N 
ATOM     26  C   UNL     1      45.331   2.782   8.740  0.00  0.00    +0.000 C 
ATOM     27  O   UNL     1      45.029   1.862   9.496  0.00  0.00    +0.000 OA
ATOM     28  H   UNL     1      44.914   4.687   8.076  0.00  0.00    +0.000 HD
BRANCH  26  29
ATOM     29  C   UNL     1      46.205   2.538   7.566  0.00  0.00    +0.000 A 
ATOM     30  C   UNL     1      46.221   3.414   6.476  0.00  0.00    +0.000 A 
ATOM     31  C   UNL     1      47.055   3.152   5.391  0.00  0.00    +0.000 A 
ATOM     32  C   UNL     1      47.855   2.023   5.434  0.00  0.00    +0.000 A 
ATOM     33  N   UNL     1      47.878   1.162   6.478  0.00  0.00    +0.000 NA
ATOM     34  C   UNL     1      47.061   1.444   7.528  0.00  0.00    +0.000 A 
ENDBRANCH  26  29
ENDBRANCH  24  25
ENDBRANCH   7  24
TORSDOF 6
ENDMDL
MODEL 2
REMARK VINA RESULT:    -7.992      2.021      2.420
REMARK INTER + INTRA:         -12.102
REMARK INTER:                 -11.085
REMARK INTRA:                  -1.017
REMARK UNBOUND:                -1.308
REMARK  Name = 
REMARK  7 active torsions:
REMARK  status: ('A' for Active; 'I' for Inactive)
REMARK    1  A    between atoms: C_1  and  C_2
REMARK    2  A    between atoms: C_4  and  C_5
REMARK    3  A    between atoms: C_5  and  N_6
REMARK    4  A    between atoms: C_7  and  C_9
REMARK    5  A    between atoms: C_21  and  C_22
REMARK    6  A    between atoms: C_22  and  N_23
REMARK    7  A    between atoms: C_24  and  C_26
REMARK                            x       y       z     vdW  Elec       q    Type
REMARK                         _______ _______ _______ _____ _____    ______ ____
ROOT
ATOM      1  C   UNL     1      46.622   3.821  13.363  0.00  0.00    +0.000 C 
ATOM      2  C   UNL     1      45.959   5.025  12.751  0.00  0.00    +0.000 A 
ATOM      3  C   UNL     1      46.414   6.298  13.164  0.00  0.00    +0.000 A 
ATOM      4  C   UNL     1      45.866   7.483  12.656  0.00  0.00    +0.000 A 
ATOM      5  C   UNL     1      44.862   7.384  11.690  0.00  0.00    +0.000 A 
ATOM      6  C   UNL     1      44.394   6.131  11.275  0.00  0.00    +0.000 A 
ATOM      7  C   UNL     1      44.915   4.934  11.804  0.00  0.00    +0.000 A 
ENDROOT
BRANCH   4   8
ATOM      8  C   UNL     1      46.386   8.827  13.108  0.00  0.00    +0.000 C 
BRANCH   8   9
ATOM      9  N   UNL     1      46.931   8.750  14.440  0.00  0.00    +0.000 N 
ATOM     10  C   UNL     1      48.202   9.181  14.734  0.00  0.00    +0.000 C 
ATOM     11  O   UNL     1      48.933   9.686  13.890  0.00  0.00    +0.000 OA
ATOM     12  H   UNL     1      46.461   8.126  15.087  0.00  0.00    +0.000 HD
BRANCH  10  13
ATOM     13  C   UNL     1      48.613   9.064  16.138  0.00  0.00    +0.000 A 
ATOM     14  C   UNL     1      48.688  10.200  16.940  0.00  0.00    +0.000 A 
ATOM     15  S   UNL     1      49.147   9.873  18.549  0.00  0.00    +0.000 S 
ATOM     16  C   UNL     1      49.317   8.213  18.224  0.00  0.00    +0.000 A 
ATOM     17  N   UNL     1      49.726   7.348  19.192  0.00  0.00    +0.000 NA
ATOM     18  C   UNL     1      49.842   6.123  18.799  0.00  0.00    +0.000 A 
ATOM     19  N   UNL     1      49.577   5.683  17.527  0.00  0.00    +0.000 N 
ATOM     20  C   UNL     1      49.126   6.513  16.531  0.00  0.00    +0.000 A 
ATOM     21  O   UNL     1      48.838   6.073  15.422  0.00  0.00    +0.000 OA
ATOM     22  C   UNL     1      49.003   7.907  16.913  0.00  0.00    +0.000 A 
ATOM     23  H   UNL     1      49.672   4.707  17.289  0.00  0.00    +0.000 HD
ENDBRANCH  10  13
ENDBRANCH   8   9
ENDBRANCH   4   8
BRANCH   7  24
ATOM     24  C   UNL     1      44.332   3.625  11.299  0.00  0.00    +0.000 C 
BRANCH  24  25
ATOM     25  N   UNL     1      45.126   3.062  10.227  0.00  0.00    +0.000 N 
ATOM     26  C   UNL     1      44.951   3.422   8.906  0.00  0.00    +0.000 C 
ATOM     27  O   UNL     1      44.128   4.250   8.522  0.00  0.00    +0.000 OA
ATOM     28  H   UNL     1      46.006   2.635  10.491  0.00  0.00    +0.000 HD
BRANCH  26  29
ATOM     29  C   UNL     1      45.853   2.749   7.940  0.00  0.00    +0.000 A 
ATOM     30  C   UNL     1      46.320   3.409   6.800  0.00  0.00    +0.000 A 
ATOM     31  C   UNL     1      47.167   2.744   5.914  0.00  0.00    +0.000 A 
ATOM     32  C   UNL     1      47.525   1.439   6.202  0.00  0.00    +0.000 A 
ATOM     33  N   UNL     1      47.105   0.774   7.303  0.00  0.00    +0.000 NA
ATOM     34  C   UNL     1      46.287   1.447   8.156  0.00  0.00    +0.000 A 
ENDBRANCH  26  29
ENDBRANCH  24  25
ENDBRANCH   7  24
TORSDOF 6
ENDMDL
MODEL 3
REMARK VINA RESULT:    -7.892      2.289      2.766
REMARK INTER + INTRA:         -11.968
REMARK INTER:                 -11.149
REMARK INTRA:                  -0.819
REMARK UNBOUND:                -1.308
REMARK  Name = 
REMARK  7 active torsions:
REMARK  status: ('A' for Active; 'I' for Inactive)
REMARK    1  A    between atoms: C_1  and  C_2
REMARK    2  A    between atoms: C_4  and  C_5
REMARK    3  A    between atoms: C_5  and  N_6
REMARK    4  A    between atoms: C_7  and  C_9
REMARK    5  A    between atoms: C_21  and  C_22
REMARK    6  A    between atoms: C_22  and  N_23
REMARK    7  A    between atoms: C_24  and  C_26
REMARK                            x       y       z     vdW  Elec       q    Type
REMARK                         _______ _______ _______ _____ _____    ______ ____
ROOT
ATOM      1  C   UNL     1      45.654   6.364  11.006  0.00  0.00    +0.000 C 
ATOM      2  C   UNL     1      46.177   5.760  12.281  0.00  0.00    +0.000 A 
ATOM      3  C   UNL     1      47.043   6.552  13.069  0.00  0.00    +0.000 A 
ATOM      4  C   UNL     1      47.585   6.086  14.273  0.00  0.00    +0.000 A 
ATOM      5  C   UNL     1      47.224   4.810  14.709  0.00  0.00    +0.000 A 
ATOM      6  C   UNL     1      46.374   4.008  13.937  0.00  0.00    +0.000 A 
ATOM      7  C   UNL     1      45.849   4.455  12.708  0.00  0.00    +0.000 A 
ENDROOT
BRANCH   4   8
ATOM      8  C   UNL     1      48.496   6.965  15.098  0.00  0.00    +0.000 C 
BRANCH   8   9
ATOM      9  N   UNL     1      49.577   6.201  15.669  0.00  0.00    +0.000 N 
ATOM     10  C   UNL     1      49.609   5.867  17.001  0.00  0.00    +0.000 C 
ATOM     11  O   UNL     1      48.707   6.170  17.773  0.00  0.00    +0.000 OA
ATOM     12  H   UNL     1      50.433   6.155  15.128  0.00  0.00    +0.000 HD
BRANCH  10  13
ATOM     13  C   UNL     1      50.759   5.066  17.436  0.00  0.00    +0.000 A 
ATOM     14  C   UNL     1      51.899   5.695  17.930  0.00  0.00    +0.000 A 
ATOM     15  S   UNL     1      53.121   4.611  18.422  0.00  0.00    +0.000 S 
ATOM     16  C   UNL     1      52.197   3.265  17.944  0.00  0.00    +0.000 A 
ATOM     17  N   UNL     1      52.686   2.001  18.068  0.00  0.00    +0.000 NA
ATOM     18  C   UNL     1      51.893   1.077  17.639  0.00  0.00    +0.000 A 
ATOM     19  N   UNL     1      50.649   1.303  17.104  0.00  0.00    +0.000 N 
ATOM     20  C   UNL     1      50.101   2.557  16.996  0.00  0.00    +0.000 A 
ATOM     21  O   UNL     1      48.961   2.715  16.572  0.00  0.00    +0.000 OA
ATOM     22  C   UNL     1      50.964   3.635  17.441  0.00  0.00    +0.000 A 
ATOM     23  H   UNL     1      50.071   0.533  16.802  0.00  0.00    +0.000 HD
ENDBRANCH  10  13
ENDBRANCH   8   9
ENDBRANCH   4   8
BRANCH   7  24
ATOM     24  C   UNL     1      44.946   3.506  11.939  0.00  0.00    +0.000 C 
BRANCH  24  25
ATOM     25  N   UNL     1      45.563   3.056  10.709  0.00  0.00    +0.000 N 
ATOM     26  C   UNL     1      44.999   3.282   9.470  0.00  0.00    +0.000 C 
ATOM     27  O   UNL     1      43.944   3.887   9.294  0.00  0.00    +0.000 OA
ATOM     28  H   UNL     1      46.554   2.847  10.749  0.00  0.00    +0.000 HD
BRANCH  26  29
ATOM     29  C   UNL     1      45.769   2.756   8.316  0.00  0.00    +0.000 A 
ATOM     30  C   UNL     1      46.109   3.574   7.235  0.00  0.00    +0.000 A 
ATOM     31  C   UNL     1      46.833   3.044   6.168  0.00  0.00    +0.000 A 
ATOM     32  C   UNL     1      47.201   1.710   6.221  0.00  0.00    +0.000 A 
ATOM     33  N   UNL     1      46.904   0.893   7.258  0.00  0.00    +0.000 NA
ATOM     34  C   UNL     1      46.203   1.436   8.290  0.00  0.00    +0.000 A 
ENDBRANCH  26  29
ENDBRANCH  24  25
ENDBRANCH   7  24
TORSDOF 6
ENDMDL
MODEL 4
REMARK VINA RESULT:    -7.738      3.542      4.777
REMARK INTER + INTRA:         -11.760
REMARK INTER:                 -10.601
REMARK INTRA:                  -1.158
REMARK UNBOUND:                -1.308
REMARK  Name = 
REMARK  7 active torsions:
REMARK  status: ('A' for Active; 'I' for Inactive)
REMARK    1  A    between atoms: C_1  and  C_2
REMARK    2  A    between atoms: C_4  and  C_5
REMARK    3  A    between atoms: C_5  and  N_6
REMARK    4  A    between atoms: C_7  and  C_9
REMARK    5  A    between atoms: C_21  and  C_22
REMARK    6  A    between atoms: C_22  and  N_23
REMARK    7  A    between atoms: C_24  and  C_26
REMARK                            x       y       z     vdW  Elec       q    Type
REMARK                         _______ _______ _______ _____ _____    ______ ____
ROOT
ATOM      1  C   UNL     1      46.722   3.797  13.407  0.00  0.00    +0.000 C 
ATOM      2  C   UNL     1      45.903   4.911  12.811  0.00  0.00    +0.000 A 
ATOM      3  C   UNL     1      46.206   6.230  13.218  0.00  0.00    +0.000 A 
ATOM      4  C   UNL     1      45.506   7.338  12.723  0.00  0.00    +0.000 A 
ATOM      5  C   UNL     1      44.504   7.116  11.778  0.00  0.00    +0.000 A 
ATOM      6  C   UNL     1      44.185   5.815  11.370  0.00  0.00    +0.000 A 
ATOM      7  C   UNL     1      44.860   4.691  11.885  0.00  0.00    +0.000 A 
ENDROOT
BRANCH   4   8
ATOM      8  C   UNL     1      45.866   8.736  13.169  0.00  0.00    +0.000 C 
BRANCH   8   9
ATOM      9  N   UNL     1      47.254   9.022  12.909  0.00  0.00    +0.000 N 
ATOM     10  C   UNL     1      47.645  10.008  12.036  0.00  0.00    +0.000 C 
ATOM     11  O   UNL     1      46.838  10.724  11.454  0.00  0.00    +0.000 OA
ATOM     12  H   UNL     1      47.921   8.304  13.171  0.00  0.00    +0.000 HD
BRANCH  10  13
ATOM     13  C   UNL     1      49.092  10.203  11.889  0.00  0.00    +0.000 A 
ATOM     14  C   UNL     1      49.638  11.479  11.997  0.00  0.00    +0.000 A 
ATOM     15  S   UNL     1      51.336  11.514  11.835  0.00  0.00    +0.000 S 
ATOM     16  C   UNL     1      51.400   9.836  11.561  0.00  0.00    +0.000 A 
ATOM     17  N   UNL     1      52.585   9.213  11.315  0.00  0.00    +0.000 NA
ATOM     18  C   UNL     1      52.484   7.944  11.094  0.00  0.00    +0.000 A 
ATOM     19  N   UNL     1      51.306   7.241  11.106  0.00  0.00    +0.000 N 
ATOM     20  C   UNL     1      50.095   7.822  11.387  0.00  0.00    +0.000 A 
ATOM     21  O   UNL     1      49.070   7.150  11.452  0.00  0.00    +0.000 OA
ATOM     22  C   UNL     1      50.148   9.253  11.618  0.00  0.00    +0.000 A 
ATOM     23  H   UNL     1      51.299   6.245  10.942  0.00  0.00    +0.000 HD
ENDBRANCH  10  13
ENDBRANCH   8   9
ENDBRANCH   4   8
BRANCH   7  24
ATOM     24  C   UNL     1      44.433   3.320  11.389  0.00  0.00    +0.000 C 
BRANCH  24  25
ATOM     25  N   UNL     1      45.245   2.875  10.276  0.00  0.00    +0.000 N 
ATOM     26  C   UNL     1      44.990   3.254   8.974  0.00  0.00    +0.000 C 
ATOM     27  O   UNL     1      44.075   4.003   8.641  0.00  0.00    +0.000 OA
ATOM     28  H   UNL     1      46.173   2.535  10.499  0.00  0.00    +0.000 HD
BRANCH  26  29
ATOM     29  C   UNL     1      45.925   2.708   7.959  0.00  0.00    +0.000 A 
ATOM     30  C   UNL     1      46.350   3.477   6.872  0.00  0.00    +0.000 A 
ATOM     31  C   UNL     1      47.229   2.930   5.939  0.00  0.00    +0.000 A 
ATOM     32  C   UNL     1      47.661   1.628   6.128  0.00  0.00    +0.000 A 
ATOM     33  N   UNL     1      47.284   0.860   7.176  0.00  0.00    +0.000 NA
ATOM     34  C   UNL     1      46.432   1.420   8.077  0.00  0.00    +0.000 A 
ENDBRANCH  26  29
ENDBRANCH  24  25
ENDBRANCH   7  24
TORSDOF 6
ENDMDL
MODEL 5
REMARK VINA RESULT:    -7.603      1.750      2.391
REMARK INTER + INTRA:         -11.577
REMARK INTER:                 -10.638
REMARK INTRA:                  -0.939
REMARK UNBOUND:                -1.308
REMARK  Name = 
REMARK  7 active torsions:
REMARK  status: ('A' for Active; 'I' for Inactive)
REMARK    1  A    between atoms: C_1  and  C_2
REMARK    2  A    between atoms: C_4  and  C_5
REMARK    3  A    between atoms: C_5  and  N_6
REMARK    4  A    between atoms: C_7  and  C_9
REMARK    5  A    between atoms: C_21  and  C_22
REMARK    6  A    between atoms: C_22  and  N_23
REMARK    7  A    between atoms: C_24  and  C_26
REMARK                            x       y       z     vdW  Elec       q    Type
REMARK                         _______ _______ _______ _____ _____    ______ ____
ROOT
ATOM      1  C   UNL     1      44.057   3.720  12.836  0.00  0.00    +0.000 C 
ATOM      2  C   UNL     1      44.889   4.880  12.359  0.00  0.00    +0.000 A 
ATOM      3  C   UNL     1      45.710   5.527  13.311  0.00  0.00    +0.000 A 
ATOM      4  C   UNL     1      46.523   6.615  12.972  0.00  0.00    +0.000 A 
ATOM      5  C   UNL     1      46.535   7.041  11.643  0.00  0.00    +0.000 A 
ATOM      6  C   UNL     1      45.722   6.417  10.688  0.00  0.00    +0.000 A 
ATOM      7  C   UNL     1      44.875   5.342  11.025  0.00  0.00    +0.000 A 
ENDROOT
BRANCH   4   8
ATOM      8  C   UNL     1      47.399   7.273  14.012  0.00  0.00    +0.000 C 
BRANCH   8   9
ATOM      9  N   UNL     1      48.020   6.291  14.864  0.00  0.00    +0.000 N 
ATOM     10  C   UNL     1      48.676   6.639  16.020  0.00  0.00    +0.000 C 
ATOM     11  O   UNL     1      48.743   7.798  16.411  0.00  0.00    +0.000 OA
ATOM     12  H   UNL     1      48.195   5.381  14.454  0.00  0.00    +0.000 HD
BRANCH  10  13
ATOM     13  C   UNL     1      49.238   5.530  16.801  0.00  0.00    +0.000 A 
ATOM     14  C   UNL     1      48.392   4.592  17.386  0.00  0.00    +0.000 A 
ATOM     15  S   UNL     1      49.216   3.355  18.224  0.00  0.00    +0.000 S 
ATOM     16  C   UNL     1      50.729   4.055  17.883  0.00  0.00    +0.000 A 
ATOM     17  N   UNL     1      51.879   3.497  18.348  0.00  0.00    +0.000 NA
ATOM     18  C   UNL     1      52.952   4.148  18.042  0.00  0.00    +0.000 A 
ATOM     19  N   UNL     1      52.977   5.304  17.303  0.00  0.00    +0.000 N 
ATOM     20  C   UNL     1      51.846   5.881  16.782  0.00  0.00    +0.000 A 
ATOM     21  O   UNL     1      51.913   6.879  16.072  0.00  0.00    +0.000 OA
ATOM     22  C   UNL     1      50.609   5.201  17.119  0.00  0.00    +0.000 A 
ATOM     23  H   UNL     1      53.852   5.756  17.083  0.00  0.00    +0.000 HD
ENDBRANCH  10  13
ENDBRANCH   8   9
ENDBRANCH   4   8
BRANCH   7  24
ATOM     24  C   UNL     1      44.022   4.741   9.921  0.00  0.00    +0.000 C 
BRANCH  24  25
ATOM     25  N   UNL     1      44.831   4.244   8.829  0.00  0.00    +0.000 N 
ATOM     26  C   UNL     1      45.469   3.020   8.875  0.00  0.00    +0.000 C 
ATOM     27  O   UNL     1      45.402   2.245   9.826  0.00  0.00    +0.000 OA
ATOM     28  H   UNL     1      44.673   4.663   7.920  0.00  0.00    +0.000 HD
BRANCH  26  29
ATOM     29  C   UNL     1      46.252   2.666   7.665  0.00  0.00    +0.000 A 
ATOM     30  C   UNL     1      46.333   3.533   6.572  0.00  0.00    +0.000 A 
ATOM     31  C   UNL     1      47.078   3.166   5.452  0.00  0.00    +0.000 A 
ATOM     32  C   UNL     1      47.726   1.943   5.467  0.00  0.00    +0.000 A 
ATOM     33  N   UNL     1      47.684   1.086   6.513  0.00  0.00    +0.000 NA
ATOM     34  C   UNL     1      46.956   1.471   7.596  0.00  0.00    +0.000 A 
ENDBRANCH  26  29
ENDBRANCH  24  25
ENDBRANCH   7  24
TORSDOF 6
ENDMDL
MODEL 6
REMARK VINA RESULT:    -7.256      2.043      2.390
REMARK INTER + INTRA:         -11.109
REMARK INTER:                 -10.088
REMARK INTRA:                  -1.020
REMARK UNBOUND:                -1.308
REMARK  Name = 
REMARK  7 active torsions:
REMARK  status: ('A' for Active; 'I' for Inactive)
REMARK    1  A    between atoms: C_1  and  C_2
REMARK    2  A    between atoms: C_4  and  C_5
REMARK    3  A    between atoms: C_5  and  N_6
REMARK    4  A    between atoms: C_7  and  C_9
REMARK    5  A    between atoms: C_21  and  C_22
REMARK    6  A    between atoms: C_22  and  N_23
REMARK    7  A    between atoms: C_24  and  C_26
REMARK                            x       y       z     vdW  Elec       q    Type
REMARK                         _______ _______ _______ _____ _____    ______ ____
ROOT
ATOM      1  C   UNL     1      44.317   6.688  10.936  0.00  0.00    +0.000 C 
ATOM      2  C   UNL     1      45.269   6.068  11.923  0.00  0.00    +0.000 A 
ATOM      3  C   UNL     1      46.112   6.941  12.650  0.00  0.00    +0.000 A 
ATOM      4  C   UNL     1      47.033   6.468  13.593  0.00  0.00    +0.000 A 
ATOM      5  C   UNL     1      47.084   5.094  13.833  0.00  0.00    +0.000 A 
ATOM      6  C   UNL     1      46.262   4.214  13.117  0.00  0.00    +0.000 A 
ATOM      7  C   UNL     1      45.356   4.677  12.143  0.00  0.00    +0.000 A 
ENDROOT
BRANCH   4   8
ATOM      8  C   UNL     1      47.909   7.429  14.362  0.00  0.00    +0.000 C 
BRANCH   8   9
ATOM      9  N   UNL     1      48.350   6.849  15.605  0.00  0.00    +0.000 N 
ATOM     10  C   UNL     1      49.680   6.666  15.893  0.00  0.00    +0.000 C 
ATOM     11  O   UNL     1      50.570   7.016  15.126  0.00  0.00    +0.000 OA
ATOM     12  H   UNL     1      47.656   6.334  16.135  0.00  0.00    +0.000 HD
BRANCH  10  13
ATOM     13  C   UNL     1      49.981   6.085  17.207  0.00  0.00    +0.000 A 
ATOM     14  C   UNL     1      50.955   5.097  17.325  0.00  0.00    +0.000 A 
ATOM     15  S   UNL     1      51.198   4.563  18.927  0.00  0.00    +0.000 S 
ATOM     16  C   UNL     1      49.977   5.590  19.514  0.00  0.00    +0.000 A 
ATOM     17  N   UNL     1      49.648   5.603  20.835  0.00  0.00    +0.000 NA
ATOM     18  C   UNL     1      48.683   6.407  21.138  0.00  0.00    +0.000 A 
ATOM     19  N   UNL     1      48.022   7.205  20.239  0.00  0.00    +0.000 N 
ATOM     20  C   UNL     1      48.346   7.253  18.906  0.00  0.00    +0.000 A 
ATOM     21  O   UNL     1      47.777   8.027  18.143  0.00  0.00    +0.000 OA
ATOM     22  C   UNL     1      49.409   6.349  18.508  0.00  0.00    +0.000 A 
ATOM     23  H   UNL     1      47.286   7.825  20.544  0.00  0.00    +0.000 HD
ENDBRANCH  10  13
ENDBRANCH   8   9
ENDBRANCH   4   8
BRANCH   7  24
ATOM     24  C   UNL     1      44.517   3.643  11.411  0.00  0.00    +0.000 C 
BRANCH  24  25
ATOM     25  N   UNL     1      45.241   3.047  10.308  0.00  0.00    +0.000 N 
ATOM     26  C   UNL     1      45.034   3.422   8.996  0.00  0.00    +0.000 C 
ATOM     27  O   UNL     1      44.239   4.291   8.645  0.00  0.00    +0.000 OA
ATOM     28  H   UNL     1      46.109   2.577  10.536  0.00  0.00    +0.000 HD
BRANCH  26  29
ATOM     29  C   UNL     1      45.866   2.711   7.994  0.00  0.00    +0.000 A 
ATOM     30  C   UNL     1      46.244   3.324   6.796  0.00  0.00    +0.000 A 
ATOM     31  C   UNL     1      47.025   2.624   5.877  0.00  0.00    +0.000 A 
ATOM     32  C   UNL     1      47.410   1.332   6.193  0.00  0.00    +0.000 A 
ATOM     33  N   UNL     1      47.077   0.713   7.348  0.00  0.00    +0.000 NA
ATOM     34  C   UNL     1      46.320   1.420   8.231  0.00  0.00    +0.000 A 
ENDBRANCH  26  29
ENDBRANCH  24  25
ENDBRANCH   7  24
TORSDOF 6
ENDMDL
MODEL 7
REMARK VINA RESULT:    -7.126      2.211      3.621
REMARK INTER + INTRA:         -10.933
REMARK INTER:                  -9.767
REMARK INTRA:                  -1.166
REMARK UNBOUND:                -1.308
REMARK  Name = 
REMARK  7 active torsions:
REMARK  status: ('A' for Active; 'I' for Inactive)
REMARK    1  A    between atoms: C_1  and  C_2
REMARK    2  A    between atoms: C_4  and  C_5
REMARK    3  A    between atoms: C_5  and  N_6
REMARK    4  A    between atoms: C_7  and  C_9
REMARK    5  A    between atoms: C_21  and  C_22
REMARK    6  A    between atoms: C_22  and  N_23
REMARK    7  A    between atoms: C_24  and  C_26
REMARK                            x       y       z     vdW  Elec       q    Type
REMARK                         _______ _______ _______ _____ _____    ______ ____
ROOT
ATOM      1  C   UNL     1      43.417   4.153  12.628  0.00  0.00    +0.000 C 
ATOM      2  C   UNL     1      44.799   4.744  12.705  0.00  0.00    +0.000 A 
ATOM      3  C   UNL     1      45.488   4.628  13.934  0.00  0.00    +0.000 A 
ATOM      4  C   UNL     1      46.779   5.142  14.111  0.00  0.00    +0.000 A 
ATOM      5  C   UNL     1      47.401   5.755  13.022  0.00  0.00    +0.000 A 
ATOM      6  C   UNL     1      46.729   5.885  11.800  0.00  0.00    +0.000 A 
ATOM      7  C   UNL     1      45.418   5.402  11.620  0.00  0.00    +0.000 A 
ENDROOT
BRANCH   4   8
ATOM      8  C   UNL     1      47.492   4.988  15.434  0.00  0.00    +0.000 C 
BRANCH   8   9
ATOM      9  N   UNL     1      48.170   6.205  15.802  0.00  0.00    +0.000 N 
ATOM     10  C   UNL     1      49.383   6.198  16.447  0.00  0.00    +0.000 C 
ATOM     11  O   UNL     1      49.975   5.159  16.717  0.00  0.00    +0.000 OA
ATOM     12  H   UNL     1      47.608   7.049  15.820  0.00  0.00    +0.000 HD
BRANCH  10  13
ATOM     13  C   UNL     1      49.966   7.513  16.738  0.00  0.00    +0.000 A 
ATOM     14  C   UNL     1      50.091   7.943  18.056  0.00  0.00    +0.000 A 
ATOM     15  S   UNL     1      50.821   9.477  18.210  0.00  0.00    +0.000 S 
ATOM     16  C   UNL     1      50.947   9.649  16.522  0.00  0.00    +0.000 A 
ATOM     17  N   UNL     1      51.468  10.778  15.971  0.00  0.00    +0.000 NA
ATOM     18  C   UNL     1      51.476  10.788  14.679  0.00  0.00    +0.000 A 
ATOM     19  N   UNL     1      51.015   9.765  13.889  0.00  0.00    +0.000 N 
ATOM     20  C   UNL     1      50.518   8.593  14.402  0.00  0.00    +0.000 A 
ATOM     21  O   UNL     1      50.175   7.674  13.666  0.00  0.00    +0.000 OA
ATOM     22  C   UNL     1      50.464   8.541  15.851  0.00  0.00    +0.000 A 
ATOM     23  H   UNL     1      51.065   9.828  12.883  0.00  0.00    +0.000 HD
ENDBRANCH  10  13
ENDBRANCH   8   9
ENDBRANCH   4   8
BRANCH   7  24
ATOM     24  C   UNL     1      44.771   5.603  10.261  0.00  0.00    +0.000 C 
BRANCH  24  25
ATOM     25  N   UNL     1      45.446   4.845   9.227  0.00  0.00    +0.000 N 
ATOM     26  C   UNL     1      45.185   3.509   8.997  0.00  0.00    +0.000 C 
ATOM     27  O   UNL     1      44.362   2.850   9.628  0.00  0.00    +0.000 OA
ATOM     28  H   UNL     1      45.880   5.379   8.484  0.00  0.00    +0.000 HD
BRANCH  26  29
ATOM     29  C   UNL     1      45.964   2.891   7.896  0.00  0.00    +0.000 A 
ATOM     30  C   UNL     1      46.258   3.599   6.727  0.00  0.00    +0.000 A 
ATOM     31  C   UNL     1      46.992   2.985   5.713  0.00  0.00    +0.000 A 
ATOM     32  C   UNL     1      47.416   1.681   5.907  0.00  0.00    +0.000 A 
ATOM     33  N   UNL     1      47.164   0.971   7.030  0.00  0.00    +0.000 NA
ATOM     34  C   UNL     1      46.453   1.595   8.008  0.00  0.00    +0.000 A 
ENDBRANCH  26  29
ENDBRANCH  24  25
ENDBRANCH   7  24
TORSDOF 6
ENDMDL
MODEL 8
REMARK VINA RESULT:    -7.010      4.802      7.470
REMARK INTER + INTRA:         -10.777
REMARK INTER:                  -9.810
REMARK INTRA:                  -0.967
REMARK UNBOUND:                -1.308
REMARK  Name = 
REMARK  7 active torsions:
REMARK  status: ('A' for Active; 'I' for Inactive)
REMARK    1  A    between atoms: C_1  and  C_2
REMARK    2  A    between atoms: C_4  and  C_5
REMARK    3  A    between atoms: C_5  and  N_6
REMARK    4  A    between atoms: C_7  and  C_9
REMARK    5  A    between atoms: C_21  and  C_22
REMARK    6  A    between atoms: C_22  and  N_23
REMARK    7  A    between atoms: C_24  and  C_26
REMARK                            x       y       z     vdW  Elec       q    Type
REMARK                         _______ _______ _______ _____ _____    ______ ____
ROOT
ATOM      1  C   UNL     1      49.722  11.219  10.959  0.00  0.00    +0.000 C 
ATOM      2  C   UNL     1      49.415   9.834  11.464  0.00  0.00    +0.000 A 
ATOM      3  C   UNL     1      48.105   9.590  11.936  0.00  0.00    +0.000 A 
ATOM      4  C   UNL     1      47.715   8.338  12.427  0.00  0.00    +0.000 A 
ATOM      5  C   UNL     1      48.652   7.303  12.412  0.00  0.00    +0.000 A 
ATOM      6  C   UNL     1      49.956   7.529  11.955  0.00  0.00    +0.000 A 
ATOM      7  C   UNL     1      50.369   8.794  11.491  0.00  0.00    +0.000 A 
ENDROOT
BRANCH   4   8
ATOM      8  C   UNL     1      46.302   8.107  12.910  0.00  0.00    +0.000 C 
BRANCH   8   9
ATOM      9  N   UNL     1      45.845   6.785  12.564  0.00  0.00    +0.000 N 
ATOM     10  C   UNL     1      44.829   6.577  11.664  0.00  0.00    +0.000 C 
ATOM     11  O   UNL     1      44.275   7.500  11.078  0.00  0.00    +0.000 OA
ATOM     12  H   UNL     1      46.102   6.037  13.199  0.00  0.00    +0.000 HD
BRANCH  10  13
ATOM     13  C   UNL     1      44.486   5.176  11.391  0.00  0.00    +0.000 A 
ATOM     14  C   UNL     1      43.730   4.453  12.309  0.00  0.00    +0.000 A 
ATOM     15  S   UNL     1      43.396   2.855  11.815  0.00  0.00    +0.000 S 
ATOM     16  C   UNL     1      44.293   3.051  10.383  0.00  0.00    +0.000 A 
ATOM     17  N   UNL     1      44.439   2.024   9.502  0.00  0.00    +0.000 NA
ATOM     18  C   UNL     1      45.170   2.301   8.474  0.00  0.00    +0.000 A 
ATOM     19  N   UNL     1      45.763   3.517   8.244  0.00  0.00    +0.000 N 
ATOM     20  C   UNL     1      45.612   4.591   9.086  0.00  0.00    +0.000 A 
ATOM     21  O   UNL     1      46.104   5.682   8.816  0.00  0.00    +0.000 OA
ATOM     22  C   UNL     1      44.819   4.325  10.271  0.00  0.00    +0.000 A 
ATOM     23  H   UNL     1      46.310   3.674   7.411  0.00  0.00    +0.000 HD
ENDBRANCH  10  13
ENDBRANCH   8   9
ENDBRANCH   4   8
BRANCH   7  24
ATOM     24  C   UNL     1      51.808   8.942  11.028  0.00  0.00    +0.000 C 
BRANCH  24  25
ATOM     25  N   UNL     1      52.227   7.823  10.211  0.00  0.00    +0.000 N 
ATOM     26  C   UNL     1      52.900   7.988   9.017  0.00  0.00    +0.000 C 
ATOM     27  O   UNL     1      53.213   9.079   8.548  0.00  0.00    +0.000 OA
ATOM     28  H   UNL     1      52.292   6.923  10.672  0.00  0.00    +0.000 HD
BRANCH  26  29
ATOM     29  C   UNL     1      53.258   6.732   8.311  0.00  0.00    +0.000 A 
ATOM     30  C   UNL     1      54.372   5.977   8.690  0.00  0.00    +0.000 A 
ATOM     31  C   UNL     1      54.677   4.803   8.003  0.00  0.00    +0.000 A 
ATOM     32  C   UNL     1      53.850   4.418   6.961  0.00  0.00    +0.000 A 
ATOM     33  N   UNL     1      52.755   5.114   6.578  0.00  0.00    +0.000 NA
ATOM     34  C   UNL     1      52.475   6.252   7.269  0.00  0.00    +0.000 A 
ENDBRANCH  26  29
ENDBRANCH  24  25
ENDBRANCH   7  24
TORSDOF 6
ENDMDL
