MODEL 1
REMARK VINA RESULT:    -9.504      0.000      0.000
REMARK INTER + INTRA:         -12.798
REMARK INTER:                 -12.282
REMARK INTRA:                  -0.517
REMARK UNBOUND:                -0.517
REMARK  Name = 
REMARK  6 active torsions:
REMARK  status: ('A' for Active; 'I' for Inactive)
REMARK    1  A    between atoms: C_1  and  C_2
REMARK    2  A    between atoms: C_2  and  N_3
REMARK    3  A    between atoms: C_2  and  C_16
REMARK    4  A    between atoms: C_4  and  C_6
REMARK    5  A    between atoms: C_19  and  O_20
REMARK    6  A    between atoms: O_20  and  C_21
REMARK                            x       y       z     vdW  Elec       q    Type
REMARK                         _______ _______ _______ _____ _____    ______ ____
ROOT
ATOM      1  C   UNL     1      43.100   5.138  13.268  0.00  0.00    +0.000 C 
ATOM      2  C   UNL     1      44.412   4.398  12.983  0.00  0.00    +0.000 C 
ENDROOT
BRANCH   2   3
ATOM      3  C   UNL     1      44.722   4.243  11.505  0.00  0.00    +0.000 A 
ATOM      4  C   UNL     1      44.309   3.076  10.844  0.00  0.00    +0.000 A 
ATOM      5  C   UNL     1      44.520   2.919   9.474  0.00  0.00    +0.000 A 
ATOM      6  C   UNL     1      45.091   3.955   8.733  0.00  0.00    +0.000 A 
ATOM      7  C   UNL     1      45.603   5.069   9.393  0.00  0.00    +0.000 A 
ATOM      8  C   UNL     1      45.434   5.205  10.772  0.00  0.00    +0.000 A 
BRANCH   6   9
ATOM      9  O   UNL     1      45.228   3.940   7.364  0.00  0.00    +0.000 OA
BRANCH   9  10
ATOM     10  C   UNL     1      46.250   3.216   6.792  0.00  0.00    +0.000 A 
ATOM     11  C   UNL     1      46.769   3.436   5.517  0.00  0.00    +0.000 A 
ATOM     12  C   UNL     1      47.744   2.572   5.053  0.00  0.00    +0.000 A 
ATOM     13  N   UNL     1      48.267   1.568   5.787  0.00  0.00    +0.000 NA
ATOM     14  C   UNL     1      47.800   1.429   7.046  0.00  0.00    +0.000 A 
ATOM     15  C   UNL     1      46.805   2.221   7.590  0.00  0.00    +0.000 A 
ENDBRANCH   9  10
ENDBRANCH   6   9
ENDBRANCH   2   3
BRANCH   2  16
ATOM     16  N   UNL     1      45.516   5.069  13.631  0.00  0.00    +0.000 N 
ATOM     17  C   UNL     1      46.616   4.397  14.090  0.00  0.00    +0.000 C 
ATOM     18  O   UNL     1      46.863   3.238  13.782  0.00  0.00    +0.000 OA
ATOM     19  H   UNL     1      45.299   5.986  14.017  0.00  0.00    +0.000 HD
BRANCH  17  20
ATOM     20  C   UNL     1      47.503   5.161  14.974  0.00  0.00    +0.000 A 
ATOM     21  C   UNL     1      48.211   6.249  14.486  0.00  0.00    +0.000 A 
ATOM     22  S   UNL     1      49.248   6.954  15.645  0.00  0.00    +0.000 S 
ATOM     23  C   UNL     1      48.823   5.793  16.815  0.00  0.00    +0.000 A 
ATOM     24  N   UNL     1      49.427   5.768  18.034  0.00  0.00    +0.000 NA
ATOM     25  C   UNL     1      49.038   4.805  18.802  0.00  0.00    +0.000 A 
ATOM     26  N   UNL     1      48.077   3.884  18.477  0.00  0.00    +0.000 N 
ATOM     27  C   UNL     1      47.384   3.919  17.291  0.00  0.00    +0.000 A 
ATOM     28  O   UNL     1      46.436   3.169  17.090  0.00  0.00    +0.000 OA
ATOM     29  C   UNL     1      47.845   4.929  16.355  0.00  0.00    +0.000 A 
ATOM     30  H   UNL     1      47.783   3.187  19.144  0.00  0.00    +0.000 HD
ENDBRANCH  17  20
ENDBRANCH   2  16
TORSDOF 5
ENDMDL
MODEL 2
REMARK VINA RESULT:    -8.841      1.553      2.789
REMARK INTER + INTRA:         -11.942
REMARK INTER:                 -10.994
REMARK INTRA:                  -0.948
REMARK UNBOUND:                -0.517
REMARK  Name = 
REMARK  6 active torsions:
REMARK  status: ('A' for Active; 'I' for Inactive)
REMARK    1  A    between atoms: C_1  and  C_2
REMARK    2  A    between atoms: C_2  and  N_3
REMARK    3  A    between atoms: C_2  and  C_16
REMARK    4  A    between atoms: C_4  and  C_6
REMARK    5  A    between atoms: C_19  and  O_20
REMARK    6  A    between atoms: O_20  and  C_21
REMARK                            x       y       z     vdW  Elec       q    Type
REMARK                         _______ _______ _______ _____ _____    ______ ____
ROOT
ATOM      1  C   UNL     1      43.069   5.099  13.401  0.00  0.00    +0.000 C 
ATOM      2  C   UNL     1      44.354   4.398  12.945  0.00  0.00    +0.000 C 
ENDROOT
BRANCH   2   3
ATOM      3  C   UNL     1      44.525   4.347  11.437  0.00  0.00    +0.000 A 
ATOM      4  C   UNL     1      45.306   5.329  10.809  0.00  0.00    +0.000 A 
ATOM      5  C   UNL     1      45.538   5.284   9.434  0.00  0.00    +0.000 A 
ATOM      6  C   UNL     1      45.043   4.222   8.677  0.00  0.00    +0.000 A 
ATOM      7  C   UNL     1      44.177   3.304   9.267  0.00  0.00    +0.000 A 
ATOM      8  C   UNL     1      43.907   3.375  10.635  0.00  0.00    +0.000 A 
BRANCH   6   9
ATOM      9  O   UNL     1      45.320   4.029   7.344  0.00  0.00    +0.000 OA
BRANCH   9  10
ATOM     10  C   UNL     1      46.276   3.108   6.976  0.00  0.00    +0.000 A 
ATOM     11  C   UNL     1      46.604   1.964   7.703  0.00  0.00    +0.000 A 
ATOM     12  C   UNL     1      47.643   1.175   7.242  0.00  0.00    +0.000 A 
ATOM     13  N   UNL     1      48.315   1.415   6.097  0.00  0.00    +0.000 NA
ATOM     14  C   UNL     1      47.922   2.487   5.375  0.00  0.00    +0.000 A 
ATOM     15  C   UNL     1      46.917   3.353   5.767  0.00  0.00    +0.000 A 
ENDBRANCH   9  10
ENDBRANCH   6   9
ENDBRANCH   2   3
BRANCH   2  16
ATOM     16  N   UNL     1      45.508   5.040  13.532  0.00  0.00    +0.000 N 
ATOM     17  C   UNL     1      46.591   4.333  13.981  0.00  0.00    +0.000 C 
ATOM     18  O   UNL     1      46.773   3.154  13.710  0.00  0.00    +0.000 OA
ATOM     19  H   UNL     1      45.348   5.980  13.888  0.00  0.00    +0.000 HD
BRANCH  17  20
ATOM     20  C   UNL     1      47.541   5.086  14.807  0.00  0.00    +0.000 A 
ATOM     21  C   UNL     1      47.777   4.713  16.121  0.00  0.00    +0.000 A 
ATOM     22  S   UNL     1      48.849   5.760  16.939  0.00  0.00    +0.000 S 
ATOM     23  C   UNL     1      48.987   6.773  15.578  0.00  0.00    +0.000 A 
ATOM     24  N   UNL     1      49.704   7.928  15.631  0.00  0.00    +0.000 NA
ATOM     25  C   UNL     1      49.683   8.618  14.539  0.00  0.00    +0.000 A 
ATOM     26  N   UNL     1      49.039   8.244  13.389  0.00  0.00    +0.000 N 
ATOM     27  C   UNL     1      48.371   7.051  13.265  0.00  0.00    +0.000 A 
ATOM     28  O   UNL     1      47.927   6.683  12.183  0.00  0.00    +0.000 OA
ATOM     29  C   UNL     1      48.290   6.278  14.491  0.00  0.00    +0.000 A 
ATOM     30  H   UNL     1      49.105   8.807  12.554  0.00  0.00    +0.000 HD
ENDBRANCH  17  20
ENDBRANCH   2  16
TORSDOF 5
ENDMDL
MODEL 3
REMARK VINA RESULT:    -8.343      1.736      2.532
REMARK INTER + INTRA:         -11.298
REMARK INTER:                 -10.680
REMARK INTRA:                  -0.618
REMARK UNBOUND:                -0.517
REMARK  Name = 
REMARK  6 active torsions:
REMARK  status: ('A' for Active; 'I' for Inactive)
REMARK    1  A    between atoms: C_1  and  C_2
REMARK    2  A    between atoms: C_2  and  N_3
REMARK    3  A    between atoms: C_2  and  C_16
REMARK    4  A    between atoms: C_4  and  C_6
REMARK    5  A    between atoms: C_19  and  O_20
REMARK    6  A    between atoms: O_20  and  C_21
REMARK                            x       y       z     vdW  Elec       q    Type
REMARK                         _______ _______ _______ _____ _____    ______ ____
ROOT
ATOM      1  C   UNL     1      44.776   8.114  12.448  0.00  0.00    +0.000 C 
ATOM      2  C   UNL     1      44.875   6.597  12.647  0.00  0.00    +0.000 C 
ENDROOT
BRANCH   2   3
ATOM      3  C   UNL     1      44.955   5.810  11.351  0.00  0.00    +0.000 A 
ATOM      4  C   UNL     1      43.936   4.893  11.050  0.00  0.00    +0.000 A 
ATOM      5  C   UNL     1      43.940   4.194   9.842  0.00  0.00    +0.000 A 
ATOM      6  C   UNL     1      44.930   4.448   8.893  0.00  0.00    +0.000 A 
ATOM      7  C   UNL     1      46.004   5.270   9.224  0.00  0.00    +0.000 A 
ATOM      8  C   UNL     1      46.025   5.935  10.452  0.00  0.00    +0.000 A 
BRANCH   6   9
ATOM      9  O   UNL     1      44.949   3.899   7.632  0.00  0.00    +0.000 OA
BRANCH   9  10
ATOM     10  C   UNL     1      45.913   2.969   7.311  0.00  0.00    +0.000 A 
ATOM     11  C   UNL     1      46.137   1.779   8.002  0.00  0.00    +0.000 A 
ATOM     12  C   UNL     1      47.197   0.984   7.604  0.00  0.00    +0.000 A 
ATOM     13  N   UNL     1      47.986   1.263   6.546  0.00  0.00    +0.000 NA
ATOM     14  C   UNL     1      47.696   2.382   5.849  0.00  0.00    +0.000 A 
ATOM     15  C   UNL     1      46.678   3.257   6.186  0.00  0.00    +0.000 A 
ENDBRANCH   9  10
ENDBRANCH   6   9
ENDBRANCH   2   3
BRANCH   2  16
ATOM     16  N   UNL     1      46.018   6.274  13.470  0.00  0.00    +0.000 N 
ATOM     17  C   UNL     1      46.163   5.058  14.081  0.00  0.00    +0.000 C 
ATOM     18  O   UNL     1      45.478   4.085  13.794  0.00  0.00    +0.000 OA
ATOM     19  H   UNL     1      46.530   7.075  13.834  0.00  0.00    +0.000 HD
BRANCH  17  20
ATOM     20  C   UNL     1      47.210   4.984  15.106  0.00  0.00    +0.000 A 
ATOM     21  C   UNL     1      47.081   4.115  16.179  0.00  0.00    +0.000 A 
ATOM     22  S   UNL     1      48.360   4.234  17.302  0.00  0.00    +0.000 S 
ATOM     23  C   UNL     1      49.097   5.488  16.416  0.00  0.00    +0.000 A 
ATOM     24  N   UNL     1      50.210   6.117  16.880  0.00  0.00    +0.000 NA
ATOM     25  C   UNL     1      50.632   7.078  16.127  0.00  0.00    +0.000 A 
ATOM     26  N   UNL     1      50.062   7.447  14.936  0.00  0.00    +0.000 N 
ATOM     27  C   UNL     1      48.987   6.789  14.390  0.00  0.00    +0.000 A 
ATOM     28  O   UNL     1      48.590   7.052  13.261  0.00  0.00    +0.000 OA
ATOM     29  C   UNL     1      48.420   5.757  15.240  0.00  0.00    +0.000 A 
ATOM     30  H   UNL     1      50.473   8.174  14.370  0.00  0.00    +0.000 HD
ENDBRANCH  17  20
ENDBRANCH   2  16
TORSDOF 5
ENDMDL
MODEL 4
REMARK VINA RESULT:    -8.100      2.597      3.651
REMARK INTER + INTRA:         -10.984
REMARK INTER:                  -9.986
REMARK INTRA:                  -0.999
REMARK UNBOUND:                -0.517
REMARK  Name = 
REMARK  6 active torsions:
REMARK  status: ('A' for Active; 'I' for Inactive)
REMARK    1  A    between atoms: C_1  and  C_2
REMARK    2  A    between atoms: C_2  and  N_3
REMARK    3  A    between atoms: C_2  and  C_16
REMARK    4  A    between atoms: C_4  and  C_6
REMARK    5  A    between atoms: C_19  and  O_20
REMARK    6  A    between atoms: O_20  and  C_21
REMARK                            x       y       z     vdW  Elec       q    Type
REMARK                         _______ _______ _______ _____ _____    ______ ____
ROOT
ATOM      1  C   UNL     1      44.585   8.436  12.112  0.00  0.00    +0.000 C 
ATOM      2  C   UNL     1      45.188   7.060  12.419  0.00  0.00    +0.000 C 
ENDROOT
BRANCH   2   3
ATOM      3  C   UNL     1      45.121   6.086  11.255  0.00  0.00    +0.000 A 
ATOM      4  C   UNL     1      44.065   5.164  11.202  0.00  0.00    +0.000 A 
ATOM      5  C   UNL     1      43.932   4.293  10.120  0.00  0.00    +0.000 A 
ATOM      6  C   UNL     1      44.820   4.373   9.047  0.00  0.00    +0.000 A 
ATOM      7  C   UNL     1      45.933   5.205   9.138  0.00  0.00    +0.000 A 
ATOM      8  C   UNL     1      46.092   6.045  10.243  0.00  0.00    +0.000 A 
BRANCH   6   9
ATOM      9  O   UNL     1      44.698   3.642   7.889  0.00  0.00    +0.000 OA
BRANCH   9  10
ATOM     10  C   UNL     1      45.740   2.837   7.482  0.00  0.00    +0.000 A 
ATOM     11  C   UNL     1      46.107   1.638   8.091  0.00  0.00    +0.000 A 
ATOM     12  C   UNL     1      47.227   0.981   7.613  0.00  0.00    +0.000 A 
ATOM     13  N   UNL     1      47.947   1.402   6.552  0.00  0.00    +0.000 NA
ATOM     14  C   UNL     1      47.520   2.525   5.935  0.00  0.00    +0.000 A 
ATOM     15  C   UNL     1      46.432   3.268   6.356  0.00  0.00    +0.000 A 
ENDBRANCH   9  10
ENDBRANCH   6   9
ENDBRANCH   2   3
BRANCH   2  16
ATOM     16  N   UNL     1      46.562   7.199  12.843  0.00  0.00    +0.000 N 
ATOM     17  C   UNL     1      47.180   6.276  13.642  0.00  0.00    +0.000 C 
ATOM     18  O   UNL     1      46.713   5.166  13.860  0.00  0.00    +0.000 OA
ATOM     19  H   UNL     1      46.936   8.145  12.798  0.00  0.00    +0.000 HD
BRANCH  17  20
ATOM     20  C   UNL     1      48.461   6.696  14.221  0.00  0.00    +0.000 A 
ATOM     21  C   UNL     1      48.729   6.476  15.564  0.00  0.00    +0.000 A 
ATOM     22  S   UNL     1      50.234   7.107  16.065  0.00  0.00    +0.000 S 
ATOM     23  C   UNL     1      50.547   7.742  14.517  0.00  0.00    +0.000 A 
ATOM     24  N   UNL     1      51.655   8.493  14.275  0.00  0.00    +0.000 NA
ATOM     25  C   UNL     1      51.739   8.945  13.068  0.00  0.00    +0.000 A 
ATOM     26  N   UNL     1      50.835   8.689  12.071  0.00  0.00    +0.000 N 
ATOM     27  C   UNL     1      49.746   7.870  12.247  0.00  0.00    +0.000 A 
ATOM     28  O   UNL     1      49.036   7.549  11.302  0.00  0.00    +0.000 OA
ATOM     29  C   UNL     1      49.556   7.408  13.611  0.00  0.00    +0.000 A 
ATOM     30  H   UNL     1      50.987   9.032  11.135  0.00  0.00    +0.000 HD
ENDBRANCH  17  20
ENDBRANCH   2  16
TORSDOF 5
ENDMDL
MODEL 5
REMARK VINA RESULT:    -7.809      2.336      3.562
REMARK INTER + INTRA:         -10.609
REMARK INTER:                  -9.354
REMARK INTRA:                  -1.255
REMARK UNBOUND:                -0.517
REMARK  Name = 
REMARK  6 active torsions:
REMARK  status: ('A' for Active; 'I' for Inactive)
REMARK    1  A    between atoms: C_1  and  C_2
REMARK    2  A    between atoms: C_2  and  N_3
REMARK    3  A    between atoms: C_2  and  C_16
REMARK    4  A    between atoms: C_4  and  C_6
REMARK    5  A    between atoms: C_19  and  O_20
REMARK    6  A    between atoms: O_20  and  C_21
REMARK                            x       y       z     vdW  Elec       q    Type
REMARK                         _______ _______ _______ _____ _____    ______ ____
ROOT
ATOM      1  C   UNL     1      48.457   8.557  12.798  0.00  0.00    +0.000 C 
ATOM      2  C   UNL     1      47.450   7.796  13.667  0.00  0.00    +0.000 C 
ENDROOT
BRANCH   2   3
ATOM      3  C   UNL     1      46.467   6.953  12.874  0.00  0.00    +0.000 A 
ATOM      4  C   UNL     1      45.522   7.597  12.062  0.00  0.00    +0.000 A 
ATOM      5  C   UNL     1      44.640   6.859  11.270  0.00  0.00    +0.000 A 
ATOM      6  C   UNL     1      44.733   5.468  11.235  0.00  0.00    +0.000 A 
ATOM      7  C   UNL     1      45.589   4.814  12.117  0.00  0.00    +0.000 A 
ATOM      8  C   UNL     1      46.440   5.551  12.943  0.00  0.00    +0.000 A 
BRANCH   6   9
ATOM      9  O   UNL     1      43.991   4.666  10.398  0.00  0.00    +0.000 OA
BRANCH   9  10
ATOM     10  C   UNL     1      44.635   3.794   9.548  0.00  0.00    +0.000 A 
ATOM     11  C   UNL     1      44.571   2.404   9.632  0.00  0.00    +0.000 A 
ATOM     12  C   UNL     1      45.338   1.663   8.750  0.00  0.00    +0.000 A 
ATOM     13  N   UNL     1      46.094   2.207   7.774  0.00  0.00    +0.000 NA
ATOM     14  C   UNL     1      46.073   3.553   7.668  0.00  0.00    +0.000 A 
ATOM     15  C   UNL     1      45.365   4.381   8.521  0.00  0.00    +0.000 A 
ENDBRANCH   9  10
ENDBRANCH   6   9
ENDBRANCH   2   3
BRANCH   2  16
ATOM     16  N   UNL     1      48.143   6.952  14.614  0.00  0.00    +0.000 N 
ATOM     17  C   UNL     1      48.640   7.430  15.796  0.00  0.00    +0.000 C 
ATOM     18  O   UNL     1      48.336   8.525  16.250  0.00  0.00    +0.000 OA
ATOM     19  H   UNL     1      48.525   6.091  14.228  0.00  0.00    +0.000 HD
BRANCH  17  20
ATOM     20  C   UNL     1      49.561   6.536  16.505  0.00  0.00    +0.000 A 
ATOM     21  C   UNL     1      50.823   6.978  16.873  0.00  0.00    +0.000 A 
ATOM     22  S   UNL     1      51.773   5.767  17.612  0.00  0.00    +0.000 S 
ATOM     23  C   UNL     1      50.548   4.603  17.412  0.00  0.00    +0.000 A 
ATOM     24  N   UNL     1      50.748   3.303  17.760  0.00  0.00    +0.000 NA
ATOM     25  C   UNL     1      49.749   2.524  17.509  0.00  0.00    +0.000 A 
ATOM     26  N   UNL     1      48.555   2.931  16.974  0.00  0.00    +0.000 N 
ATOM     27  C   UNL     1      48.279   4.244  16.682  0.00  0.00    +0.000 A 
ATOM     28  O   UNL     1      47.156   4.594  16.337  0.00  0.00    +0.000 OA
ATOM     29  C   UNL     1      49.401   5.148  16.863  0.00  0.00    +0.000 A 
ATOM     30  H   UNL     1      47.795   2.278  16.850  0.00  0.00    +0.000 HD
ENDBRANCH  17  20
ENDBRANCH   2  16
TORSDOF 5
ENDMDL
MODEL 6
REMARK VINA RESULT:    -7.440      2.543      4.056
REMARK INTER + INTRA:         -10.131
REMARK INTER:                  -8.832
REMARK INTRA:                  -1.299
REMARK UNBOUND:                -0.517
REMARK  Name = 
REMARK  6 active torsions:
REMARK  status: ('A' for Active; 'I' for Inactive)
REMARK    1  A    between atoms: C_1  and  C_2
REMARK    2  A    between atoms: C_2  and  N_3
REMARK    3  A    between atoms: C_2  and  C_16
REMARK    4  A    between atoms: C_4  and  C_6
REMARK    5  A    between atoms: C_19  and  O_20
REMARK    6  A    between atoms: O_20  and  C_21
REMARK                            x       y       z     vdW  Elec       q    Type
REMARK                         _______ _______ _______ _____ _____    ______ ____
ROOT
ATOM      1  C   UNL     1      49.266   8.131  13.561  0.00  0.00    +0.000 C 
ATOM      2  C   UNL     1      48.316   7.319  14.449  0.00  0.00    +0.000 C 
ENDROOT
BRANCH   2   3
ATOM      3  C   UNL     1      47.215   6.608  13.683  0.00  0.00    +0.000 A 
ATOM      4  C   UNL     1      46.305   7.372  12.936  0.00  0.00    +0.000 A 
ATOM      5  C   UNL     1      45.316   6.754  12.169  0.00  0.00    +0.000 A 
ATOM      6  C   UNL     1      45.262   5.362  12.091  0.00  0.00    +0.000 A 
ATOM      7  C   UNL     1      46.085   4.596  12.911  0.00  0.00    +0.000 A 
ATOM      8  C   UNL     1      47.045   5.215  13.715  0.00  0.00    +0.000 A 
BRANCH   6   9
ATOM      9  O   UNL     1      44.403   4.669  11.270  0.00  0.00    +0.000 OA
BRANCH   9  10
ATOM     10  C   UNL     1      44.891   4.066  10.132  0.00  0.00    +0.000 A 
ATOM     11  C   UNL     1      45.568   4.726   9.107  0.00  0.00    +0.000 A 
ATOM     12  C   UNL     1      45.928   3.995   7.989  0.00  0.00    +0.000 A 
ATOM     13  N   UNL     1      45.718   2.668   7.861  0.00  0.00    +0.000 NA
ATOM     14  C   UNL     1      45.131   2.043   8.904  0.00  0.00    +0.000 A 
ATOM     15  C   UNL     1      44.706   2.691  10.050  0.00  0.00    +0.000 A 
ENDBRANCH   9  10
ENDBRANCH   6   9
ENDBRANCH   2   3
BRANCH   2  16
ATOM     16  N   UNL     1      49.060   6.350  15.222  0.00  0.00    +0.000 N 
ATOM     17  C   UNL     1      49.161   6.421  16.585  0.00  0.00    +0.000 C 
ATOM     18  O   UNL     1      48.452   7.148  17.267  0.00  0.00    +0.000 OA
ATOM     19  H   UNL     1      49.755   5.821  14.700  0.00  0.00    +0.000 HD
BRANCH  17  20
ATOM     20  C   UNL     1      50.176   5.552  17.190  0.00  0.00    +0.000 A 
ATOM     21  C   UNL     1      51.299   6.099  17.792  0.00  0.00    +0.000 A 
ATOM     22  S   UNL     1      52.399   4.925  18.363  0.00  0.00    +0.000 S 
ATOM     23  C   UNL     1      51.434   3.652  17.774  0.00  0.00    +0.000 A 
ATOM     24  N   UNL     1      51.847   2.359  17.858  0.00  0.00    +0.000 NA
ATOM     25  C   UNL     1      51.035   1.505  17.330  0.00  0.00    +0.000 A 
ATOM     26  N   UNL     1      49.832   1.820  16.756  0.00  0.00    +0.000 N 
ATOM     27  C   UNL     1      49.337   3.101  16.721  0.00  0.00    +0.000 A 
ATOM     28  O   UNL     1      48.200   3.331  16.328  0.00  0.00    +0.000 OA
ATOM     29  C   UNL     1      50.252   4.112  17.222  0.00  0.00    +0.000 A 
ATOM     30  H   UNL     1      49.221   1.098  16.406  0.00  0.00    +0.000 HD
ENDBRANCH  17  20
ENDBRANCH   2  16
TORSDOF 5
ENDMDL
MODEL 7
REMARK VINA RESULT:    -7.338      2.494      3.905
REMARK INTER + INTRA:         -10.000
REMARK INTER:                  -9.064
REMARK INTRA:                  -0.935
REMARK UNBOUND:                -0.517
REMARK  Name = 
REMARK  6 active torsions:
REMARK  status: ('A' for Active; 'I' for Inactive)
REMARK    1  A    between atoms: C_1  and  C_2
REMARK    2  A    between atoms: C_2  and  N_3
REMARK    3  A    between atoms: C_2  and  C_16
REMARK    4  A    between atoms: C_4  and  C_6
REMARK    5  A    between atoms: C_19  and  O_20
REMARK    6  A    between atoms: O_20  and  C_21
REMARK                            x       y       z     vdW  Elec       q    Type
REMARK                         _______ _______ _______ _____ _____    ______ ____
ROOT
ATOM      1  C   UNL     1      49.363   7.587  13.164  0.00  0.00    +0.000 C 
ATOM      2  C   UNL     1      48.045   7.385  13.921  0.00  0.00    +0.000 C 
ENDROOT
BRANCH   2   3
ATOM      3  C   UNL     1      46.966   6.695  13.104  0.00  0.00    +0.000 A 
ATOM      4  C   UNL     1      46.274   7.435  12.133  0.00  0.00    +0.000 A 
ATOM      5  C   UNL     1      45.319   6.825  11.320  0.00  0.00    +0.000 A 
ATOM      6  C   UNL     1      45.086   5.453  11.425  0.00  0.00    +0.000 A 
ATOM      7  C   UNL     1      45.684   4.733  12.456  0.00  0.00    +0.000 A 
ATOM      8  C   UNL     1      46.606   5.353  13.301  0.00  0.00    +0.000 A 
BRANCH   6   9
ATOM      9  O   UNL     1      44.254   4.745  10.589  0.00  0.00    +0.000 OA
BRANCH   9  10
ATOM     10  C   UNL     1      44.798   3.874   9.670  0.00  0.00    +0.000 A 
ATOM     11  C   UNL     1      44.656   2.488   9.703  0.00  0.00    +0.000 A 
ATOM     12  C   UNL     1      45.328   1.742   8.752  0.00  0.00    +0.000 A 
ATOM     13  N   UNL     1      46.062   2.282   7.757  0.00  0.00    +0.000 NA
ATOM     14  C   UNL     1      46.116   3.630   7.705  0.00  0.00    +0.000 A 
ATOM     15  C   UNL     1      45.506   4.461   8.627  0.00  0.00    +0.000 A 
ENDBRANCH   9  10
ENDBRANCH   6   9
ENDBRANCH   2   3
BRANCH   2  16
ATOM     16  N   UNL     1      48.275   6.634  15.134  0.00  0.00    +0.000 N 
ATOM     17  C   UNL     1      48.735   7.219  16.283  0.00  0.00    +0.000 C 
ATOM     18  O   UNL     1      48.758   8.431  16.448  0.00  0.00    +0.000 OA
ATOM     19  H   UNL     1      48.394   5.631  15.007  0.00  0.00    +0.000 HD
BRANCH  17  20
ATOM     20  C   UNL     1      49.193   6.294  17.325  0.00  0.00    +0.000 A 
ATOM     21  C   UNL     1      50.191   5.371  17.053  0.00  0.00    +0.000 A 
ATOM     22  S   UNL     1      50.526   4.332  18.367  0.00  0.00    +0.000 S 
ATOM     23  C   UNL     1      49.310   5.050  19.317  0.00  0.00    +0.000 A 
ATOM     24  N   UNL     1      49.006   4.567  20.552  0.00  0.00    +0.000 NA
ATOM     25  C   UNL     1      48.032   5.180  21.139  0.00  0.00    +0.000 A 
ATOM     26  N   UNL     1      47.356   6.253  20.620  0.00  0.00    +0.000 N 
ATOM     27  C   UNL     1      47.682   6.825  19.414  0.00  0.00    +0.000 A 
ATOM     28  O   UNL     1      47.153   7.866  19.043  0.00  0.00    +0.000 OA
ATOM     29  C   UNL     1      48.712   6.118  18.673  0.00  0.00    +0.000 A 
ATOM     30  H   UNL     1      46.638   6.719  21.153  0.00  0.00    +0.000 HD
ENDBRANCH  17  20
ENDBRANCH   2  16
TORSDOF 5
ENDMDL
MODEL 8
REMARK VINA RESULT:    -7.290      2.704      4.054
REMARK INTER + INTRA:          -9.937
REMARK INTER:                  -8.793
REMARK INTRA:                  -1.144
REMARK UNBOUND:                -0.517
REMARK  Name = 
REMARK  6 active torsions:
REMARK  status: ('A' for Active; 'I' for Inactive)
REMARK    1  A    between atoms: C_1  and  C_2
REMARK    2  A    between atoms: C_2  and  N_3
REMARK    3  A    between atoms: C_2  and  C_16
REMARK    4  A    between atoms: C_4  and  C_6
REMARK    5  A    between atoms: C_19  and  O_20
REMARK    6  A    between atoms: O_20  and  C_21
REMARK                            x       y       z     vdW  Elec       q    Type
REMARK                         _______ _______ _______ _____ _____    ______ ____
ROOT
ATOM      1  C   UNL     1      49.516   7.387  13.316  0.00  0.00    +0.000 C 
ATOM      2  C   UNL     1      48.092   7.807  13.698  0.00  0.00    +0.000 C 
ENDROOT
BRANCH   2   3
ATOM      3  C   UNL     1      47.007   7.009  12.996  0.00  0.00    +0.000 A 
ATOM      4  C   UNL     1      46.141   7.672  12.113  0.00  0.00    +0.000 A 
ATOM      5  C   UNL     1      45.170   6.966  11.402  0.00  0.00    +0.000 A 
ATOM      6  C   UNL     1      45.091   5.578  11.519  0.00  0.00    +0.000 A 
ATOM      7  C   UNL     1      45.867   4.924  12.473  0.00  0.00    +0.000 A 
ATOM      8  C   UNL     1      46.808   5.637  13.218  0.00  0.00    +0.000 A 
BRANCH   6   9
ATOM      9  O   UNL     1      44.250   4.787  10.771  0.00  0.00    +0.000 OA
BRANCH   9  10
ATOM     10  C   UNL     1      44.780   3.936   9.827  0.00  0.00    +0.000 A 
ATOM     11  C   UNL     1      44.619   2.551   9.820  0.00  0.00    +0.000 A 
ATOM     12  C   UNL     1      45.280   1.823   8.847  0.00  0.00    +0.000 A 
ATOM     13  N   UNL     1      46.021   2.382   7.867  0.00  0.00    +0.000 NA
ATOM     14  C   UNL     1      46.094   3.730   7.855  0.00  0.00    +0.000 A 
ATOM     15  C   UNL     1      45.496   4.543   8.802  0.00  0.00    +0.000 A 
ENDBRANCH   9  10
ENDBRANCH   6   9
ENDBRANCH   2   3
BRANCH   2  16
ATOM     16  N   UNL     1      47.907   7.705  15.127  0.00  0.00    +0.000 N 
ATOM     17  C   UNL     1      48.460   8.598  16.004  0.00  0.00    +0.000 C 
ATOM     18  O   UNL     1      48.940   9.667  15.650  0.00  0.00    +0.000 OA
ATOM     19  H   UNL     1      47.635   6.783  15.465  0.00  0.00    +0.000 HD
BRANCH  17  20
ATOM     20  C   UNL     1      48.431   8.202  17.416  0.00  0.00    +0.000 A 
ATOM     21  C   UNL     1      47.980   9.087  18.384  0.00  0.00    +0.000 A 
ATOM     22  S   UNL     1      48.101   8.471  19.971  0.00  0.00    +0.000 S 
ATOM     23  C   UNL     1      48.809   7.026  19.417  0.00  0.00    +0.000 A 
ATOM     24  N   UNL     1      49.246   6.077  20.289  0.00  0.00    +0.000 NA
ATOM     25  C   UNL     1      49.803   5.055  19.729  0.00  0.00    +0.000 A 
ATOM     26  N   UNL     1      49.933   4.878  18.377  0.00  0.00    +0.000 N 
ATOM     27  C   UNL     1      49.436   5.770  17.458  0.00  0.00    +0.000 A 
ATOM     28  O   UNL     1      49.444   5.515  16.259  0.00  0.00    +0.000 OA
ATOM     29  C   UNL     1      48.879   6.980  18.037  0.00  0.00    +0.000 A 
ATOM     30  H   UNL     1      50.334   4.030  18.003  0.00  0.00    +0.000 HD
ENDBRANCH  17  20
ENDBRANCH   2  16
TORSDOF 5
ENDMDL
MODEL 9
REMARK VINA RESULT:    -7.274      2.622      3.874
REMARK INTER + INTRA:          -9.917
REMARK INTER:                  -9.017
REMARK INTRA:                  -0.901
REMARK UNBOUND:                -0.517
REMARK  Name = 
REMARK  6 active torsions:
REMARK  status: ('A' for Active; 'I' for Inactive)
REMARK    1  A    between atoms: C_1  and  C_2
REMARK    2  A    between atoms: C_2  and  N_3
REMARK    3  A    between atoms: C_2  and  C_16
REMARK    4  A    between atoms: C_4  and  C_6
REMARK    5  A    between atoms: C_19  and  O_20
REMARK    6  A    between atoms: O_20  and  C_21
REMARK                            x       y       z     vdW  Elec       q    Type
REMARK                         _______ _______ _______ _____ _____    ______ ____
ROOT
ATOM      1  C   UNL     1      48.996   7.566  13.117  0.00  0.00    +0.000 C 
ATOM      2  C   UNL     1      47.711   7.102  13.811  0.00  0.00    +0.000 C 
ENDROOT
BRANCH   2   3
ATOM      3  C   UNL     1      46.747   6.368  12.895  0.00  0.00    +0.000 A 
ATOM      4  C   UNL     1      46.117   7.080  11.863  0.00  0.00    +0.000 A 
ATOM      5  C   UNL     1      45.272   6.431  10.961  0.00  0.00    +0.000 A 
ATOM      6  C   UNL     1      45.094   5.050  11.043  0.00  0.00    +0.000 A 
ATOM      7  C   UNL     1      45.624   4.352  12.125  0.00  0.00    +0.000 A 
ATOM      8  C   UNL     1      46.433   5.010  13.054  0.00  0.00    +0.000 A 
BRANCH   6   9
ATOM      9  O   UNL     1      44.379   4.309  10.130  0.00  0.00    +0.000 OA
BRANCH   9  10
ATOM     10  C   UNL     1      45.051   3.527   9.217  0.00  0.00    +0.000 A 
ATOM     11  C   UNL     1      45.072   2.132   9.222  0.00  0.00    +0.000 A 
ATOM     12  C   UNL     1      45.858   1.490   8.282  0.00  0.00    +0.000 A 
ATOM     13  N   UNL     1      46.556   2.133   7.323  0.00  0.00    +0.000 NA
ATOM     14  C   UNL     1      46.453   3.479   7.296  0.00  0.00    +0.000 A 
ATOM     15  C   UNL     1      45.720   4.213   8.210  0.00  0.00    +0.000 A 
ENDBRANCH   9  10
ENDBRANCH   6   9
ENDBRANCH   2   3
BRANCH   2  16
ATOM     16  N   UNL     1      48.029   6.258  14.940  0.00  0.00    +0.000 N 
ATOM     17  C   UNL     1      48.652   6.736  16.060  0.00  0.00    +0.000 C 
ATOM     18  O   UNL     1      48.770   7.931  16.297  0.00  0.00    +0.000 OA
ATOM     19  H   UNL     1      48.069   5.261  14.738  0.00  0.00    +0.000 HD
BRANCH  17  20
ATOM     20  C   UNL     1      49.166   5.717  16.983  0.00  0.00    +0.000 A 
ATOM     21  C   UNL     1      48.291   4.907  17.690  0.00  0.00    +0.000 A 
ATOM     22  S   UNL     1      49.078   3.844  18.770  0.00  0.00    +0.000 S 
ATOM     23  C   UNL     1      50.607   4.474  18.365  0.00  0.00    +0.000 A 
ATOM     24  N   UNL     1      51.732   4.056  19.004  0.00  0.00    +0.000 NA
ATOM     25  C   UNL     1      52.813   4.653  18.626  0.00  0.00    +0.000 A 
ATOM     26  N   UNL     1      52.878   5.606  17.644  0.00  0.00    +0.000 N 
ATOM     27  C   UNL     1      51.781   6.001  16.916  0.00  0.00    +0.000 A 
ATOM     28  O   UNL     1      51.897   6.750  15.953  0.00  0.00    +0.000 OA
ATOM     29  C   UNL     1      50.526   5.425  17.363  0.00  0.00    +0.000 A 
ATOM     30  H   UNL     1      53.764   5.997  17.361  0.00  0.00    +0.000 HD
ENDBRANCH  17  20
ENDBRANCH   2  16
TORSDOF 5
ENDMDL
