MODEL 1
REMARK VINA RESULT:    -9.122      0.000      0.000
REMARK INTER + INTRA:         -13.085
REMARK INTER:                 -12.322
REMARK INTRA:                  -0.763
REMARK UNBOUND:                -0.763
REMARK  Name = 
REMARK  7 active torsions:
REMARK  status: ('A' for Active; 'I' for Inactive)
REMARK    1  A    between atoms: C_1  and  C_2
REMARK    2  A    between atoms: C_2  and  C_3
REMARK    3  A    between atoms: C_2  and  C_14
REMARK    4  A    between atoms: C_3  and  N_4
REMARK    5  A    between atoms: C_8  and  C_9
REMARK    6  A    between atoms: C_19  and  O_20
REMARK    7  A    between atoms: O_20  and  C_21
REMARK                            x       y       z     vdW  Elec       q    Type
REMARK                         _______ _______ _______ _____ _____    ______ ____
ROOT
ATOM      1  C   UNL     1      42.698   5.672  12.224  0.00  0.00    +0.000 C 
ATOM      2  C   UNL     1      43.628   4.493  12.533  0.00  0.00    +0.000 C 
ENDROOT
BRANCH   2   3
ATOM      3  C   UNL     1      45.049   4.999  12.749  0.00  0.00    +0.000 A 
ATOM      4  C   UNL     1      45.613   5.998  11.943  0.00  0.00    +0.000 A 
ATOM      5  C   UNL     1      46.892   6.479  12.217  0.00  0.00    +0.000 A 
ATOM      6  F   UNL     1      47.408   7.443  11.442  0.00  0.00    +0.000 F 
ATOM      7  C   UNL     1      47.629   5.994  13.288  0.00  0.00    +0.000 A 
ATOM      8  C   UNL     1      47.084   5.001  14.098  0.00  0.00    +0.000 A 
ATOM      9  C   UNL     1      45.814   4.488  13.813  0.00  0.00    +0.000 A 
BRANCH   8  10
ATOM     10  O   UNL     1      47.863   4.585  15.150  0.00  0.00    +0.000 OA
BRANCH  10  11
ATOM     11  C   UNL     1      47.204   3.968  16.282  0.00  0.00    +0.000 C 
ATOM     12  C   UNL     1      47.253   4.708  17.635  0.00  0.00    +0.000 C 
ATOM     13  N   UNL     1      47.724   3.486  18.303  0.00  0.00    +0.000 NA
ATOM     14  C   UNL     1      48.003   2.861  17.000  0.00  0.00    +0.000 C 
ATOM     15  H   UNL     1      47.009   3.008  18.850  0.00  0.00    +0.000 HD
ENDBRANCH  10  11
ENDBRANCH   8  10
ENDBRANCH   2   3
BRANCH   2  16
ATOM     16  C   UNL     1      43.567   3.393  11.453  0.00  0.00    +0.000 C 
BRANCH  16  17
ATOM     17  N   UNL     1      43.678   3.960  10.112  0.00  0.00    +0.000 N 
ATOM     18  C   UNL     1      44.675   3.497   9.268  0.00  0.00    +0.000 A 
ATOM     19  C   UNL     1      45.069   2.164   9.222  0.00  0.00    +0.000 A 
ATOM     20  C   UNL     1      46.044   1.764   8.308  0.00  0.00    +0.000 A 
ATOM     21  C   UNL     1      46.592   2.692   7.426  0.00  0.00    +0.000 A 
ATOM     22  C   UNL     1      46.137   3.996   7.532  0.00  0.00    +0.000 A 
ATOM     23  N   UNL     1      45.202   4.411   8.432  0.00  0.00    +0.000 NA
ATOM     24  H   UNL     1      43.707   4.976  10.051  0.00  0.00    +0.000 HD
BRANCH  21  25
ATOM     25  C   UNL     1      47.605   2.228   6.448  0.00  0.00    +0.000 C 
ATOM     26  N   UNL     1      47.784   2.925   5.284  0.00  0.00    +0.000 N 
ATOM     27  O   UNL     1      48.278   1.226   6.664  0.00  0.00    +0.000 OA
ATOM     28  H   UNL     1      47.254   3.726   4.987  0.00  0.00    +0.000 HD
ATOM     29  H   UNL     1      48.471   2.549   4.640  0.00  0.00    +0.000 HD
ENDBRANCH  21  25
ENDBRANCH  16  17
ENDBRANCH   2  16
TORSDOF 6
ENDMDL
MODEL 2
REMARK VINA RESULT:    -8.492      2.592      3.326
REMARK INTER + INTRA:         -12.235
REMARK INTER:                 -11.262
REMARK INTRA:                  -0.972
REMARK UNBOUND:                -0.763
REMARK  Name = 
REMARK  7 active torsions:
REMARK  status: ('A' for Active; 'I' for Inactive)
REMARK    1  A    between atoms: C_1  and  C_2
REMARK    2  A    between atoms: C_2  and  C_3
REMARK    3  A    between atoms: C_2  and  C_14
REMARK    4  A    between atoms: C_3  and  N_4
REMARK    5  A    between atoms: C_8  and  C_9
REMARK    6  A    between atoms: C_19  and  O_20
REMARK    7  A    between atoms: O_20  and  C_21
REMARK                            x       y       z     vdW  Elec       q    Type
REMARK                         _______ _______ _______ _____ _____    ______ ____
ROOT
ATOM      1  C   UNL     1      43.721   7.170  11.132  0.00  0.00    +0.000 C 
ATOM      2  C   UNL     1      43.715   5.867  11.939  0.00  0.00    +0.000 C 
ENDROOT
BRANCH   2   3
ATOM      3  C   UNL     1      45.045   5.705  12.667  0.00  0.00    +0.000 A 
ATOM      4  C   UNL     1      45.502   4.455  13.110  0.00  0.00    +0.000 A 
ATOM      5  C   UNL     1      46.754   4.341  13.712  0.00  0.00    +0.000 A 
ATOM      6  F   UNL     1      47.177   3.136  14.118  0.00  0.00    +0.000 F 
ATOM      7  C   UNL     1      47.575   5.447  13.879  0.00  0.00    +0.000 A 
ATOM      8  C   UNL     1      47.136   6.695  13.445  0.00  0.00    +0.000 A 
ATOM      9  C   UNL     1      45.868   6.827  12.868  0.00  0.00    +0.000 A 
BRANCH   8  10
ATOM     10  O   UNL     1      48.011   7.738  13.625  0.00  0.00    +0.000 OA
BRANCH  10  11
ATOM     11  C   UNL     1      49.390   7.547  13.224  0.00  0.00    +0.000 C 
ATOM     12  C   UNL     1      50.336   8.764  13.296  0.00  0.00    +0.000 C 
ATOM     13  N   UNL     1      50.771   8.526  11.912  0.00  0.00    +0.000 NA
ATOM     14  C   UNL     1      49.657   7.586  11.706  0.00  0.00    +0.000 C 
ATOM     15  H   UNL     1      51.694   8.101  11.833  0.00  0.00    +0.000 HD
ENDBRANCH  10  11
ENDBRANCH   8  10
ENDBRANCH   2   3
BRANCH   2  16
ATOM     16  C   UNL     1      43.382   4.635  11.072  0.00  0.00    +0.000 C 
BRANCH  16  17
ATOM     17  N   UNL     1      43.757   4.852   9.677  0.00  0.00    +0.000 N 
ATOM     18  C   UNL     1      44.673   3.994   9.088  0.00  0.00    +0.000 A 
ATOM     19  C   UNL     1      44.709   2.629   9.353  0.00  0.00    +0.000 A 
ATOM     20  C   UNL     1      45.627   1.821   8.681  0.00  0.00    +0.000 A 
ATOM     21  C   UNL     1      46.474   2.377   7.726  0.00  0.00    +0.000 A 
ATOM     22  C   UNL     1      46.365   3.742   7.516  0.00  0.00    +0.000 A 
ATOM     23  N   UNL     1      45.492   4.552   8.177  0.00  0.00    +0.000 NA
ATOM     24  H   UNL     1      44.054   5.794   9.429  0.00  0.00    +0.000 HD
BRANCH  21  25
ATOM     25  C   UNL     1      47.416   1.485   7.009  0.00  0.00    +0.000 C 
ATOM     26  N   UNL     1      48.553   2.011   6.458  0.00  0.00    +0.000 N 
ATOM     27  O   UNL     1      47.188   0.285   6.897  0.00  0.00    +0.000 OA
ATOM     28  H   UNL     1      48.811   2.983   6.448  0.00  0.00    +0.000 HD
ATOM     29  H   UNL     1      49.148   1.361   5.957  0.00  0.00    +0.000 HD
ENDBRANCH  21  25
ENDBRANCH  16  17
ENDBRANCH   2  16
TORSDOF 6
ENDMDL
MODEL 3
REMARK VINA RESULT:    -8.233      2.696      3.236
REMARK INTER + INTRA:         -11.884
REMARK INTER:                 -11.090
REMARK INTRA:                  -0.794
REMARK UNBOUND:                -0.763
REMARK  Name = 
REMARK  7 active torsions:
REMARK  status: ('A' for Active; 'I' for Inactive)
REMARK    1  A    between atoms: C_1  and  C_2
REMARK    2  A    between atoms: C_2  and  C_3
REMARK    3  A    between atoms: C_2  and  C_14
REMARK    4  A    between atoms: C_3  and  N_4
REMARK    5  A    between atoms: C_8  and  C_9
REMARK    6  A    between atoms: C_19  and  O_20
REMARK    7  A    between atoms: O_20  and  C_21
REMARK                            x       y       z     vdW  Elec       q    Type
REMARK                         _______ _______ _______ _____ _____    ______ ____
ROOT
ATOM      1  C   UNL     1      44.514   4.336  13.331  0.00  0.00    +0.000 C 
ATOM      2  C   UNL     1      44.814   4.841  11.916  0.00  0.00    +0.000 C 
ENDROOT
BRANCH   2   3
ATOM      3  C   UNL     1      45.466   6.217  11.985  0.00  0.00    +0.000 A 
ATOM      4  C   UNL     1      44.726   7.377  12.257  0.00  0.00    +0.000 A 
ATOM      5  C   UNL     1      45.371   8.606  12.378  0.00  0.00    +0.000 A 
ATOM      6  F   UNL     1      44.648   9.701  12.649  0.00  0.00    +0.000 F 
ATOM      7  C   UNL     1      46.748   8.712  12.243  0.00  0.00    +0.000 A 
ATOM      8  C   UNL     1      47.497   7.570  11.973  0.00  0.00    +0.000 A 
ATOM      9  C   UNL     1      46.857   6.335  11.818  0.00  0.00    +0.000 A 
BRANCH   8  10
ATOM     10  O   UNL     1      48.856   7.749  11.873  0.00  0.00    +0.000 OA
BRANCH  10  11
ATOM     11  C   UNL     1      49.550   8.329  13.005  0.00  0.00    +0.000 C 
ATOM     12  C   UNL     1      51.088   8.433  12.929  0.00  0.00    +0.000 C 
ATOM     13  N   UNL     1      51.210   7.789  14.245  0.00  0.00    +0.000 NA
ATOM     14  C   UNL     1      49.796   7.382  14.197  0.00  0.00    +0.000 C 
ATOM     15  H   UNL     1      51.432   8.433  15.005  0.00  0.00    +0.000 HD
ENDBRANCH  10  11
ENDBRANCH   8  10
ENDBRANCH   2   3
BRANCH   2  16
ATOM     16  C   UNL     1      43.564   4.842  11.011  0.00  0.00    +0.000 C 
BRANCH  16  17
ATOM     17  N   UNL     1      43.929   4.990   9.604  0.00  0.00    +0.000 N 
ATOM     18  C   UNL     1      44.789   4.065   9.034  0.00  0.00    +0.000 A 
ATOM     19  C   UNL     1      44.758   2.711   9.346  0.00  0.00    +0.000 A 
ATOM     20  C   UNL     1      45.622   1.832   8.690  0.00  0.00    +0.000 A 
ATOM     21  C   UNL     1      46.482   2.310   7.705  0.00  0.00    +0.000 A 
ATOM     22  C   UNL     1      46.441   3.671   7.448  0.00  0.00    +0.000 A 
ATOM     23  N   UNL     1      45.622   4.548   8.092  0.00  0.00    +0.000 NA
ATOM     24  H   UNL     1      44.271   5.906   9.319  0.00  0.00    +0.000 HD
BRANCH  21  25
ATOM     25  C   UNL     1      47.365   1.345   7.006  0.00  0.00    +0.000 C 
ATOM     26  N   UNL     1      48.466   1.805   6.336  0.00  0.00    +0.000 N 
ATOM     27  O   UNL     1      47.119   0.144   7.016  0.00  0.00    +0.000 OA
ATOM     28  H   UNL     1      48.731   2.768   6.224  0.00  0.00    +0.000 HD
ATOM     29  H   UNL     1      49.020   1.105   5.856  0.00  0.00    +0.000 HD
ENDBRANCH  21  25
ENDBRANCH  16  17
ENDBRANCH   2  16
TORSDOF 6
ENDMDL
MODEL 4
REMARK VINA RESULT:    -8.219      2.672      4.058
REMARK INTER + INTRA:         -11.865
REMARK INTER:                 -11.387
REMARK INTRA:                  -0.478
REMARK UNBOUND:                -0.763
REMARK  Name = 
REMARK  7 active torsions:
REMARK  status: ('A' for Active; 'I' for Inactive)
REMARK    1  A    between atoms: C_1  and  C_2
REMARK    2  A    between atoms: C_2  and  C_3
REMARK    3  A    between atoms: C_2  and  C_14
REMARK    4  A    between atoms: C_3  and  N_4
REMARK    5  A    between atoms: C_8  and  C_9
REMARK    6  A    between atoms: C_19  and  O_20
REMARK    7  A    between atoms: O_20  and  C_21
REMARK                            x       y       z     vdW  Elec       q    Type
REMARK                         _______ _______ _______ _____ _____    ______ ____
ROOT
ATOM      1  C   UNL     1      42.183   5.729  11.813  0.00  0.00    +0.000 C 
ATOM      2  C   UNL     1      43.149   4.644  12.302  0.00  0.00    +0.000 C 
ENDROOT
BRANCH   2   3
ATOM      3  C   UNL     1      44.467   5.280  12.731  0.00  0.00    +0.000 A 
ATOM      4  C   UNL     1      45.480   4.540  13.359  0.00  0.00    +0.000 A 
ATOM      5  C   UNL     1      46.695   5.145  13.673  0.00  0.00    +0.000 A 
ATOM      6  F   UNL     1      47.654   4.418  14.263  0.00  0.00    +0.000 F 
ATOM      7  C   UNL     1      46.936   6.477  13.368  0.00  0.00    +0.000 A 
ATOM      8  C   UNL     1      45.942   7.225  12.744  0.00  0.00    +0.000 A 
ATOM      9  C   UNL     1      44.705   6.638  12.453  0.00  0.00    +0.000 A 
BRANCH   8  10
ATOM     10  O   UNL     1      46.259   8.530  12.455  0.00  0.00    +0.000 OA
BRANCH  10  11
ATOM     11  C   UNL     1      45.174   9.475  12.293  0.00  0.00    +0.000 C 
ATOM     12  C   UNL     1      44.329   9.387  11.005  0.00  0.00    +0.000 C 
ATOM     13  N   UNL     1      44.512  10.827  10.771  0.00  0.00    +0.000 NA
ATOM     14  C   UNL     1      45.575  10.875  11.788  0.00  0.00    +0.000 C 
ATOM     15  H   UNL     1      43.694  11.393  10.996  0.00  0.00    +0.000 HD
ENDBRANCH  10  11
ENDBRANCH   8  10
ENDBRANCH   2   3
BRANCH   2  16
ATOM     16  C   UNL     1      43.363   3.527  11.260  0.00  0.00    +0.000 C 
BRANCH  16  17
ATOM     17  N   UNL     1      43.595   4.082   9.929  0.00  0.00    +0.000 N 
ATOM     18  C   UNL     1      44.626   3.567   9.158  0.00  0.00    +0.000 A 
ATOM     19  C   UNL     1      44.955   2.216   9.141  0.00  0.00    +0.000 A 
ATOM     20  C   UNL     1      45.972   1.765   8.299  0.00  0.00    +0.000 A 
ATOM     21  C   UNL     1      46.625   2.661   7.457  0.00  0.00    +0.000 A 
ATOM     22  C   UNL     1      46.228   3.987   7.529  0.00  0.00    +0.000 A 
ATOM     23  N   UNL     1      45.254   4.451   8.360  0.00  0.00    +0.000 NA
ATOM     24  H   UNL     1      43.679   5.096   9.869  0.00  0.00    +0.000 HD
BRANCH  21  25
ATOM     25  C   UNL     1      47.680   2.144   6.553  0.00  0.00    +0.000 C 
ATOM     26  N   UNL     1      47.998   2.843   5.420  0.00  0.00    +0.000 N 
ATOM     27  O   UNL     1      48.267   1.097   6.802  0.00  0.00    +0.000 OA
ATOM     28  H   UNL     1      47.547   3.682   5.097  0.00  0.00    +0.000 HD
ATOM     29  H   UNL     1      48.708   2.432   4.826  0.00  0.00    +0.000 HD
ENDBRANCH  21  25
ENDBRANCH  16  17
ENDBRANCH   2  16
TORSDOF 6
ENDMDL
MODEL 5
REMARK VINA RESULT:    -8.086      3.075      5.058
REMARK INTER + INTRA:         -11.686
REMARK INTER:                 -11.031
REMARK INTRA:                  -0.655
REMARK UNBOUND:                -0.763
REMARK  Name = 
REMARK  7 active torsions:
REMARK  status: ('A' for Active; 'I' for Inactive)
REMARK    1  A    between atoms: C_1  and  C_2
REMARK    2  A    between atoms: C_2  and  C_3
REMARK    3  A    between atoms: C_2  and  C_14
REMARK    4  A    between atoms: C_3  and  N_4
REMARK    5  A    between atoms: C_8  and  C_9
REMARK    6  A    between atoms: C_19  and  O_20
REMARK    7  A    between atoms: O_20  and  C_21
REMARK                            x       y       z     vdW  Elec       q    Type
REMARK                         _______ _______ _______ _____ _____    ______ ____
ROOT
ATOM      1  C   UNL     1      45.019   4.406  13.302  0.00  0.00    +0.000 C 
ATOM      2  C   UNL     1      45.151   5.030  11.908  0.00  0.00    +0.000 C 
ENDROOT
BRANCH   2   3
ATOM      3  C   UNL     1      45.628   6.473  12.031  0.00  0.00    +0.000 A 
ATOM      4  C   UNL     1      46.970   6.793  12.283  0.00  0.00    +0.000 A 
ATOM      5  C   UNL     1      47.376   8.125  12.321  0.00  0.00    +0.000 A 
ATOM      6  F   UNL     1      48.665   8.410  12.552  0.00  0.00    +0.000 F 
ATOM      7  C   UNL     1      46.476   9.158  12.104  0.00  0.00    +0.000 A 
ATOM      8  C   UNL     1      45.140   8.858  11.853  0.00  0.00    +0.000 A 
ATOM      9  C   UNL     1      44.714   7.525  11.844  0.00  0.00    +0.000 A 
BRANCH   8  10
ATOM     10  O   UNL     1      44.312   9.931  11.628  0.00  0.00    +0.000 OA
BRANCH  10  11
ATOM     11  C   UNL     1      43.248   9.777  10.657  0.00  0.00    +0.000 C 
ATOM     12  C   UNL     1      43.351  10.581   9.344  0.00  0.00    +0.000 C 
ATOM     13  N   UNL     1      41.982  11.084   9.529  0.00  0.00    +0.000 NA
ATOM     14  C   UNL     1      41.976  10.607  10.921  0.00  0.00    +0.000 C 
ATOM     15  H   UNL     1      41.288  10.634   8.932  0.00  0.00    +0.000 HD
ENDBRANCH  10  11
ENDBRANCH   8  10
ENDBRANCH   2   3
BRANCH   2  16
ATOM     16  C   UNL     1      43.850   4.924  11.086  0.00  0.00    +0.000 C 
BRANCH  16  17
ATOM     17  N   UNL     1      44.113   5.075   9.657  0.00  0.00    +0.000 N 
ATOM     18  C   UNL     1      44.938   4.157   9.026  0.00  0.00    +0.000 A 
ATOM     19  C   UNL     1      44.942   2.802   9.339  0.00  0.00    +0.000 A 
ATOM     20  C   UNL     1      45.764   1.932   8.624  0.00  0.00    +0.000 A 
ATOM     21  C   UNL     1      46.548   2.416   7.580  0.00  0.00    +0.000 A 
ATOM     22  C   UNL     1      46.477   3.777   7.328  0.00  0.00    +0.000 A 
ATOM     23  N   UNL     1      45.698   4.647   8.029  0.00  0.00    +0.000 NA
ATOM     24  H   UNL     1      44.426   5.994   9.349  0.00  0.00    +0.000 HD
BRANCH  21  25
ATOM     25  C   UNL     1      47.388   1.459   6.821  0.00  0.00    +0.000 C 
ATOM     26  N   UNL     1      48.445   1.926   6.088  0.00  0.00    +0.000 N 
ATOM     27  O   UNL     1      47.144   0.258   6.835  0.00  0.00    +0.000 OA
ATOM     28  H   UNL     1      48.702   2.891   5.968  0.00  0.00    +0.000 HD
ATOM     29  H   UNL     1      48.969   1.232   5.568  0.00  0.00    +0.000 HD
ENDBRANCH  21  25
ENDBRANCH  16  17
ENDBRANCH   2  16
TORSDOF 6
ENDMDL
MODEL 6
REMARK VINA RESULT:    -7.911      2.552      8.344
REMARK INTER + INTRA:         -11.449
REMARK INTER:                 -10.845
REMARK INTRA:                  -0.604
REMARK UNBOUND:                -0.763
REMARK  Name = 
REMARK  7 active torsions:
REMARK  status: ('A' for Active; 'I' for Inactive)
REMARK    1  A    between atoms: C_1  and  C_2
REMARK    2  A    between atoms: C_2  and  C_3
REMARK    3  A    between atoms: C_2  and  C_14
REMARK    4  A    between atoms: C_3  and  N_4
REMARK    5  A    between atoms: C_8  and  C_9
REMARK    6  A    between atoms: C_19  and  O_20
REMARK    7  A    between atoms: O_20  and  C_21
REMARK                            x       y       z     vdW  Elec       q    Type
REMARK                         _______ _______ _______ _____ _____    ______ ____
ROOT
ATOM      1  C   UNL     1      44.593   7.361  11.379  0.00  0.00    +0.000 C 
ATOM      2  C   UNL     1      45.699   6.312  11.550  0.00  0.00    +0.000 C 
ENDROOT
BRANCH   2   3
ATOM      3  C   UNL     1      45.439   5.132  10.622  0.00  0.00    +0.000 A 
ATOM      4  C   UNL     1      44.657   4.035  11.015  0.00  0.00    +0.000 A 
ATOM      5  C   UNL     1      44.389   3.008  10.112  0.00  0.00    +0.000 A 
ATOM      6  F   UNL     1      43.630   1.975  10.504  0.00  0.00    +0.000 F 
ATOM      7  C   UNL     1      44.874   3.047   8.813  0.00  0.00    +0.000 A 
ATOM      8  C   UNL     1      45.652   4.127   8.407  0.00  0.00    +0.000 A 
ATOM      9  C   UNL     1      45.955   5.149   9.314  0.00  0.00    +0.000 A 
BRANCH   8  10
ATOM     10  O   UNL     1      46.080   4.106   7.102  0.00  0.00    +0.000 OA
BRANCH  10  11
ATOM     11  C   UNL     1      46.559   2.850   6.563  0.00  0.00    +0.000 C 
ATOM     12  C   UNL     1      47.991   2.408   6.931  0.00  0.00    +0.000 C 
ATOM     13  N   UNL     1      48.300   2.179   5.512  0.00  0.00    +0.000 NA
ATOM     14  C   UNL     1      47.080   2.898   5.112  0.00  0.00    +0.000 C 
ATOM     15  H   UNL     1      48.311   1.196   5.241  0.00  0.00    +0.000 HD
ENDBRANCH  10  11
ENDBRANCH   8  10
ENDBRANCH   2   3
BRANCH   2  16
ATOM     16  C   UNL     1      45.868   5.864  13.016  0.00  0.00    +0.000 C 
BRANCH  16  17
ATOM     17  N   UNL     1      47.263   5.958  13.441  0.00  0.00    +0.000 N 
ATOM     18  C   UNL     1      47.617   5.472  14.690  0.00  0.00    +0.000 A 
ATOM     19  C   UNL     1      47.059   4.323  15.241  0.00  0.00    +0.000 A 
ATOM     20  C   UNL     1      47.506   3.867  16.482  0.00  0.00    +0.000 A 
ATOM     21  C   UNL     1      48.528   4.542  17.143  0.00  0.00    +0.000 A 
ATOM     22  C   UNL     1      49.035   5.672  16.520  0.00  0.00    +0.000 A 
ATOM     23  N   UNL     1      48.598   6.146  15.320  0.00  0.00    +0.000 NA
ATOM     24  H   UNL     1      47.699   6.875  13.362  0.00  0.00    +0.000 HD
BRANCH  21  25
ATOM     25  C   UNL     1      48.999   4.014  18.446  0.00  0.00    +0.000 C 
ATOM     26  N   UNL     1      48.236   3.099  19.117  0.00  0.00    +0.000 N 
ATOM     27  O   UNL     1      50.060   4.392  18.932  0.00  0.00    +0.000 OA
ATOM     28  H   UNL     1      47.332   2.761  18.833  0.00  0.00    +0.000 HD
ATOM     29  H   UNL     1      48.594   2.790  20.013  0.00  0.00    +0.000 HD
ENDBRANCH  21  25
ENDBRANCH  16  17
ENDBRANCH   2  16
TORSDOF 6
ENDMDL
MODEL 7
REMARK VINA RESULT:    -7.224      2.462      8.180
REMARK INTER + INTRA:         -10.522
REMARK INTER:                 -10.054
REMARK INTRA:                  -0.468
REMARK UNBOUND:                -0.763
REMARK  Name = 
REMARK  7 active torsions:
REMARK  status: ('A' for Active; 'I' for Inactive)
REMARK    1  A    between atoms: C_1  and  C_2
REMARK    2  A    between atoms: C_2  and  C_3
REMARK    3  A    between atoms: C_2  and  C_14
REMARK    4  A    between atoms: C_3  and  N_4
REMARK    5  A    between atoms: C_8  and  C_9
REMARK    6  A    between atoms: C_19  and  O_20
REMARK    7  A    between atoms: O_20  and  C_21
REMARK                            x       y       z     vdW  Elec       q    Type
REMARK                         _______ _______ _______ _____ _____    ______ ____
ROOT
ATOM      1  C   UNL     1      45.829   8.195  12.362  0.00  0.00    +0.000 C 
ATOM      2  C   UNL     1      46.585   7.024  11.724  0.00  0.00    +0.000 C 
ENDROOT
BRANCH   2   3
ATOM      3  C   UNL     1      45.596   6.062  11.075  0.00  0.00    +0.000 A 
ATOM      4  C   UNL     1      44.354   5.770  11.657  0.00  0.00    +0.000 A 
ATOM      5  C   UNL     1      43.451   4.937  10.997  0.00  0.00    +0.000 A 
ATOM      6  F   UNL     1      42.265   4.679  11.565  0.00  0.00    +0.000 F 
ATOM      7  C   UNL     1      43.751   4.389   9.759  0.00  0.00    +0.000 A 
ATOM      8  C   UNL     1      44.980   4.669   9.168  0.00  0.00    +0.000 A 
ATOM      9  C   UNL     1      45.907   5.478   9.834  0.00  0.00    +0.000 A 
BRANCH   8  10
ATOM     10  O   UNL     1      45.198   4.108   7.933  0.00  0.00    +0.000 OA
BRANCH  10  11
ATOM     11  C   UNL     1      46.442   3.397   7.718  0.00  0.00    +0.000 C 
ATOM     12  C   UNL     1      46.818   3.026   6.269  0.00  0.00    +0.000 C 
ATOM     13  N   UNL     1      47.055   1.632   6.672  0.00  0.00    +0.000 NA
ATOM     14  C   UNL     1      46.393   1.875   7.964  0.00  0.00    +0.000 C 
ATOM     15  H   UNL     1      48.041   1.383   6.750  0.00  0.00    +0.000 HD
ENDBRANCH  10  11
ENDBRANCH   8  10
ENDBRANCH   2   3
BRANCH   2  16
ATOM     16  C   UNL     1      47.515   6.305  12.722  0.00  0.00    +0.000 C 
BRANCH  16  17
ATOM     17  N   UNL     1      46.750   5.628  13.766  0.00  0.00    +0.000 N 
ATOM     18  C   UNL     1      47.396   5.250  14.933  0.00  0.00    +0.000 A 
ATOM     19  C   UNL     1      48.384   6.022  15.534  0.00  0.00    +0.000 A 
ATOM     20  C   UNL     1      48.952   5.600  16.737  0.00  0.00    +0.000 A 
ATOM     21  C   UNL     1      48.502   4.431  17.345  0.00  0.00    +0.000 A 
ATOM     22  C   UNL     1      47.507   3.728  16.684  0.00  0.00    +0.000 A 
ATOM     23  N   UNL     1      46.956   4.111  15.499  0.00  0.00    +0.000 NA
ATOM     24  H   UNL     1      46.201   4.821  13.474  0.00  0.00    +0.000 HD
BRANCH  21  25
ATOM     25  C   UNL     1      49.105   4.026  18.638  0.00  0.00    +0.000 C 
ATOM     26  N   UNL     1      48.379   3.261  19.508  0.00  0.00    +0.000 N 
ATOM     27  O   UNL     1      50.242   4.375  18.939  0.00  0.00    +0.000 OA
ATOM     28  H   UNL     1      47.427   2.964  19.382  0.00  0.00    +0.000 HD
ATOM     29  H   UNL     1      48.830   3.035  20.387  0.00  0.00    +0.000 HD
ENDBRANCH  21  25
ENDBRANCH  16  17
ENDBRANCH   2  16
TORSDOF 6
ENDMDL
MODEL 8
REMARK VINA RESULT:    -7.143      3.151      8.478
REMARK INTER + INTRA:         -10.412
REMARK INTER:                  -9.696
REMARK INTRA:                  -0.716
REMARK UNBOUND:                -0.763
REMARK  Name = 
REMARK  7 active torsions:
REMARK  status: ('A' for Active; 'I' for Inactive)
REMARK    1  A    between atoms: C_1  and  C_2
REMARK    2  A    between atoms: C_2  and  C_3
REMARK    3  A    between atoms: C_2  and  C_14
REMARK    4  A    between atoms: C_3  and  N_4
REMARK    5  A    between atoms: C_8  and  C_9
REMARK    6  A    between atoms: C_19  and  O_20
REMARK    7  A    between atoms: O_20  and  C_21
REMARK                            x       y       z     vdW  Elec       q    Type
REMARK                         _______ _______ _______ _____ _____    ______ ____
ROOT
ATOM      1  C   UNL     1      44.572   6.842  12.057  0.00  0.00    +0.000 C 
ATOM      2  C   UNL     1      45.583   6.440  10.977  0.00  0.00    +0.000 C 
ENDROOT
BRANCH   2   3
ATOM      3  C   UNL     1      45.226   5.067  10.419  0.00  0.00    +0.000 A 
ATOM      4  C   UNL     1      44.470   4.141  11.152  0.00  0.00    +0.000 A 
ATOM      5  C   UNL     1      44.109   2.923  10.579  0.00  0.00    +0.000 A 
ATOM      6  F   UNL     1      43.376   2.057  11.292  0.00  0.00    +0.000 F 
ATOM      7  C   UNL     1      44.475   2.602   9.280  0.00  0.00    +0.000 A 
ATOM      8  C   UNL     1      45.226   3.510   8.539  0.00  0.00    +0.000 A 
ATOM      9  C   UNL     1      45.622   4.723   9.114  0.00  0.00    +0.000 A 
BRANCH   8  10
ATOM     10  O   UNL     1      45.534   3.132   7.255  0.00  0.00    +0.000 OA
BRANCH  10  11
ATOM     11  C   UNL     1      46.933   3.046   6.888  0.00  0.00    +0.000 C 
ATOM     12  C   UNL     1      47.274   2.823   5.400  0.00  0.00    +0.000 C 
ATOM     13  N   UNL     1      48.156   1.701   5.756  0.00  0.00    +0.000 NA
ATOM     14  C   UNL     1      47.602   1.676   7.119  0.00  0.00    +0.000 C 
ATOM     15  H   UNL     1      49.151   1.924   5.715  0.00  0.00    +0.000 HD
ENDBRANCH  10  11
ENDBRANCH   8  10
ENDBRANCH   2   3
BRANCH   2  16
ATOM     16  C   UNL     1      47.040   6.494  11.480  0.00  0.00    +0.000 C 
BRANCH  16  17
ATOM     17  N   UNL     1      47.153   5.958  12.834  0.00  0.00    +0.000 N 
ATOM     18  C   UNL     1      47.765   6.728  13.811  0.00  0.00    +0.000 A 
ATOM     19  C   UNL     1      47.616   8.108  13.889  0.00  0.00    +0.000 A 
ATOM     20  C   UNL     1      48.221   8.808  14.934  0.00  0.00    +0.000 A 
ATOM     21  C   UNL     1      48.938   8.120  15.908  0.00  0.00    +0.000 A 
ATOM     22  C   UNL     1      49.028   6.745  15.761  0.00  0.00    +0.000 A 
ATOM     23  N   UNL     1      48.464   6.046  14.737  0.00  0.00    +0.000 NA
ATOM     24  H   UNL     1      47.553   5.025  12.919  0.00  0.00    +0.000 HD
BRANCH  21  25
ATOM     25  C   UNL     1      49.543   8.891  17.021  0.00  0.00    +0.000 C 
ATOM     26  N   UNL     1      50.663   8.409  17.642  0.00  0.00    +0.000 N 
ATOM     27  O   UNL     1      49.050   9.949  17.396  0.00  0.00    +0.000 OA
ATOM     28  H   UNL     1      51.117   7.533  17.447  0.00  0.00    +0.000 HD
ATOM     29  H   UNL     1      51.020   8.963  18.412  0.00  0.00    +0.000 HD
ENDBRANCH  21  25
ENDBRANCH  16  17
ENDBRANCH   2  16
TORSDOF 6
ENDMDL
MODEL 9
REMARK VINA RESULT:    -7.023      3.922      7.769
REMARK INTER + INTRA:         -10.250
REMARK INTER:                  -9.594
REMARK INTRA:                  -0.656
REMARK UNBOUND:                -0.763
REMARK  Name = 
REMARK  7 active torsions:
REMARK  status: ('A' for Active; 'I' for Inactive)
REMARK    1  A    between atoms: C_1  and  C_2
REMARK    2  A    between atoms: C_2  and  C_3
REMARK    3  A    between atoms: C_2  and  C_14
REMARK    4  A    between atoms: C_3  and  N_4
REMARK    5  A    between atoms: C_8  and  C_9
REMARK    6  A    between atoms: C_19  and  O_20
REMARK    7  A    between atoms: O_20  and  C_21
REMARK                            x       y       z     vdW  Elec       q    Type
REMARK                         _______ _______ _______ _____ _____    ______ ____
ROOT
ATOM      1  C   UNL     1      44.189   7.111  11.329  0.00  0.00    +0.000 C 
ATOM      2  C   UNL     1      45.486   6.327  11.103  0.00  0.00    +0.000 C 
ENDROOT
BRANCH   2   3
ATOM      3  C   UNL     1      45.174   4.991  10.438  0.00  0.00    +0.000 A 
ATOM      4  C   UNL     1      44.415   4.002  11.079  0.00  0.00    +0.000 A 
ATOM      5  C   UNL     1      44.096   2.822  10.410  0.00  0.00    +0.000 A 
ATOM      6  F   UNL     1      43.360   1.894  11.036  0.00  0.00    +0.000 F 
ATOM      7  C   UNL     1      44.509   2.601   9.104  0.00  0.00    +0.000 A 
ATOM      8  C   UNL     1      45.264   3.573   8.453  0.00  0.00    +0.000 A 
ATOM      9  C   UNL     1      45.617   4.749   9.126  0.00  0.00    +0.000 A 
BRANCH   8  10
ATOM     10  O   UNL     1      45.619   3.294   7.156  0.00  0.00    +0.000 OA
BRANCH  10  11
ATOM     11  C   UNL     1      47.028   3.160   6.850  0.00  0.00    +0.000 C 
ATOM     12  C   UNL     1      47.424   2.888   5.383  0.00  0.00    +0.000 C 
ATOM     13  N   UNL     1      48.258   1.753   5.804  0.00  0.00    +0.000 NA
ATOM     14  C   UNL     1      47.648   1.779   7.143  0.00  0.00    +0.000 C 
ATOM     15  H   UNL     1      49.260   1.948   5.799  0.00  0.00    +0.000 HD
ENDBRANCH  10  11
ENDBRANCH   8  10
ENDBRANCH   2   3
BRANCH   2  16
ATOM     16  C   UNL     1      46.302   6.147  12.400  0.00  0.00    +0.000 C 
BRANCH  16  17
ATOM     17  N   UNL     1      46.802   7.427  12.895  0.00  0.00    +0.000 N 
ATOM     18  C   UNL     1      48.148   7.722  12.750  0.00  0.00    +0.000 A 
ATOM     19  C   UNL     1      48.886   7.358  11.629  0.00  0.00    +0.000 A 
ATOM     20  C   UNL     1      50.226   7.737  11.532  0.00  0.00    +0.000 A 
ATOM     21  C   UNL     1      50.805   8.504  12.539  0.00  0.00    +0.000 A 
ATOM     22  C   UNL     1      49.996   8.832  13.616  0.00  0.00    +0.000 A 
ATOM     23  N   UNL     1      48.694   8.453  13.740  0.00  0.00    +0.000 NA
ATOM     24  H   UNL     1      46.563   7.665  13.855  0.00  0.00    +0.000 HD
BRANCH  21  25
ATOM     25  C   UNL     1      52.222   8.915  12.392  0.00  0.00    +0.000 C 
ATOM     26  N   UNL     1      53.179   7.963  12.170  0.00  0.00    +0.000 N 
ATOM     27  O   UNL     1      52.547  10.095  12.472  0.00  0.00    +0.000 OA
ATOM     28  H   UNL     1      53.028   6.970  12.136  0.00  0.00    +0.000 HD
ATOM     29  H   UNL     1      54.133   8.297  12.102  0.00  0.00    +0.000 HD
ENDBRANCH  21  25
ENDBRANCH  16  17
ENDBRANCH   2  16
TORSDOF 6
ENDMDL
