MODEL 1
REMARK VINA RESULT:    -9.196      0.000      0.000
REMARK INTER + INTRA:         -12.912
REMARK INTER:                 -11.884
REMARK INTRA:                  -1.027
REMARK UNBOUND:                -1.027
REMARK  Name = 
REMARK  5 active torsions:
REMARK  status: ('A' for Active; 'I' for Inactive)
REMARK    1  A    between atoms: C_2  and  C_3
REMARK    2  A    between atoms: C_6  and  C_7
REMARK    3  A    between atoms: C_11  and  C_12
REMARK    4  A    between atoms: C_12  and  N_13
REMARK    5  A    between atoms: C_17  and  C_18
REMARK                            x       y       z     vdW  Elec       q    Type
REMARK                         _______ _______ _______ _____ _____    ______ ____
ROOT
ATOM      1  C   UNL     1      43.902   5.144  11.151  0.00  0.00    +0.000 C 
ATOM      2  C   UNL     1      42.634   5.864  11.593  0.00  0.00    +0.000 C 
ATOM      3  C   UNL     1      42.701   4.378  11.684  0.00  0.00    +0.000 C 
ENDROOT
BRANCH   1   4
ATOM      4  N   UNL     1      44.219   5.136   9.711  0.00  0.00    +0.000 N 
ATOM      5  C   UNL     1      45.014   4.158   9.095  0.00  0.00    +0.000 A 
ATOM      6  C   UNL     1      44.967   2.810   9.437  0.00  0.00    +0.000 A 
ATOM      7  C   UNL     1      45.716   1.877   8.716  0.00  0.00    +0.000 A 
ATOM      8  C   UNL     1      46.514   2.315   7.666  0.00  0.00    +0.000 A 
ATOM      9  C   UNL     1      46.504   3.671   7.378  0.00  0.00    +0.000 A 
ATOM     10  N   UNL     1      45.779   4.591   8.070  0.00  0.00    +0.000 NA
ATOM     11  H   UNL     1      44.526   6.023   9.315  0.00  0.00    +0.000 HD
BRANCH   8  12
ATOM     12  C   UNL     1      47.330   1.403   6.836  0.00  0.00    +0.000 C 
ATOM     13  N   UNL     1      48.363   1.953   6.127  0.00  0.00    +0.000 N 
ATOM     14  O   UNL     1      47.079   0.209   6.762  0.00  0.00    +0.000 OA
ATOM     15  H   UNL     1      48.471   2.946   5.983  0.00  0.00    +0.000 HD
ATOM     16  H   UNL     1      48.858   1.333   5.498  0.00  0.00    +0.000 HD
ENDBRANCH   8  12
ENDBRANCH   1   4
BRANCH   1  21
ATOM     17  C   UNL     1      47.212   6.549  12.560  0.00  0.00    +0.000 A 
ATOM     18  C   UNL     1      47.418   5.692  13.652  0.00  0.00    +0.000 A 
ATOM     19  C   UNL     1      46.502   4.683  13.953  0.00  0.00    +0.000 A 
ATOM     20  C   UNL     1      45.369   4.502  13.158  0.00  0.00    +0.000 A 
ATOM     21  C   UNL     1      45.123   5.323  12.047  0.00  0.00    +0.000 A 
ATOM     22  C   UNL     1      46.052   6.346  11.788  0.00  0.00    +0.000 A 
BRANCH  17  26
ATOM     23  C   UNL     1      49.970   9.582  11.462  0.00  0.00    +0.000 A 
ATOM     24  C   UNL     1      48.630   9.929  11.563  0.00  0.00    +0.000 A 
ATOM     25  C   UNL     1      47.715   8.944  11.945  0.00  0.00    +0.000 A 
ATOM     26  C   UNL     1      48.147   7.640  12.220  0.00  0.00    +0.000 A 
ATOM     27  C   UNL     1      49.524   7.421  12.111  0.00  0.00    +0.000 A 
ATOM     28  N   UNL     1      50.439   8.346  11.733  0.00  0.00    +0.000 NA
BRANCH  23  30
ATOM     29  N   UNL     1      51.763  11.295  10.681  0.00  0.00    +0.000 NA
ATOM     30  C   UNL     1      50.948  10.547  11.029  0.00  0.00    +0.000 C 
ENDBRANCH  23  30
ENDBRANCH  17  26
ENDBRANCH   1  21
TORSDOF 5
ENDMDL
MODEL 2
REMARK VINA RESULT:    -8.687      2.785      4.491
REMARK INTER + INTRA:         -12.253
REMARK INTER:                 -11.413
REMARK INTRA:                  -0.840
REMARK UNBOUND:                -1.027
REMARK  Name = 
REMARK  5 active torsions:
REMARK  status: ('A' for Active; 'I' for Inactive)
REMARK    1  A    between atoms: C_2  and  C_3
REMARK    2  A    between atoms: C_6  and  C_7
REMARK    3  A    between atoms: C_11  and  C_12
REMARK    4  A    between atoms: C_12  and  N_13
REMARK    5  A    between atoms: C_17  and  C_18
REMARK                            x       y       z     vdW  Elec       q    Type
REMARK                         _______ _______ _______ _____ _____    ______ ____
ROOT
ATOM      1  C   UNL     1      44.141   4.966  11.346  0.00  0.00    +0.000 C 
ATOM      2  C   UNL     1      42.856   5.424  12.025  0.00  0.00    +0.000 C 
ATOM      3  C   UNL     1      43.313   4.015  12.196  0.00  0.00    +0.000 C 
ENDROOT
BRANCH   1   4
ATOM      4  N   UNL     1      44.137   4.856   9.875  0.00  0.00    +0.000 N 
ATOM      5  C   UNL     1      44.953   3.967   9.160  0.00  0.00    +0.000 A 
ATOM      6  C   UNL     1      45.238   2.676   9.595  0.00  0.00    +0.000 A 
ATOM      7  C   UNL     1      45.979   1.811   8.785  0.00  0.00    +0.000 A 
ATOM      8  C   UNL     1      46.434   2.261   7.551  0.00  0.00    +0.000 A 
ATOM      9  C   UNL     1      46.104   3.556   7.182  0.00  0.00    +0.000 A 
ATOM     10  N   UNL     1      45.383   4.409   7.959  0.00  0.00    +0.000 NA
ATOM     11  H   UNL     1      44.177   5.734   9.361  0.00  0.00    +0.000 HD
BRANCH   8  12
ATOM     12  C   UNL     1      47.211   1.417   6.619  0.00  0.00    +0.000 C 
ATOM     13  N   UNL     1      48.184   2.030   5.878  0.00  0.00    +0.000 N 
ATOM     14  O   UNL     1      46.980   0.223   6.494  0.00  0.00    +0.000 OA
ATOM     15  H   UNL     1      48.262   3.032   5.784  0.00  0.00    +0.000 HD
ATOM     16  H   UNL     1      48.648   1.458   5.183  0.00  0.00    +0.000 HD
ENDBRANCH   8  12
ENDBRANCH   1   4
BRANCH   1  21
ATOM     17  C   UNL     1      47.069   5.628  13.775  0.00  0.00    +0.000 A 
ATOM     18  C   UNL     1      47.820   6.557  13.038  0.00  0.00    +0.000 A 
ATOM     19  C   UNL     1      47.409   6.959  11.766  0.00  0.00    +0.000 A 
ATOM     20  C   UNL     1      46.232   6.451  11.213  0.00  0.00    +0.000 A 
ATOM     21  C   UNL     1      45.439   5.531  11.915  0.00  0.00    +0.000 A 
ATOM     22  C   UNL     1      45.895   5.127  13.182  0.00  0.00    +0.000 A 
BRANCH  17  26
ATOM     23  C   UNL     1      48.202   4.446  17.691  0.00  0.00    +0.000 A 
ATOM     24  C   UNL     1      47.390   3.588  16.963  0.00  0.00    +0.000 A 
ATOM     25  C   UNL     1      47.028   3.955  15.665  0.00  0.00    +0.000 A 
ATOM     26  C   UNL     1      47.479   5.164  15.116  0.00  0.00    +0.000 A 
ATOM     27  C   UNL     1      48.314   5.928  15.936  0.00  0.00    +0.000 A 
ATOM     28  N   UNL     1      48.678   5.610  17.202  0.00  0.00    +0.000 NA
BRANCH  23  30
ATOM     29  N   UNL     1      48.844   3.920  20.155  0.00  0.00    +0.000 NA
ATOM     30  C   UNL     1      48.567   4.136  19.049  0.00  0.00    +0.000 C 
ENDBRANCH  23  30
ENDBRANCH  17  26
ENDBRANCH   1  21
TORSDOF 5
ENDMDL
MODEL 3
REMARK VINA RESULT:    -7.495      1.966      2.848
REMARK INTER + INTRA:         -10.713
REMARK INTER:                 -10.470
REMARK INTRA:                  -0.243
REMARK UNBOUND:                -1.027
REMARK  Name = 
REMARK  5 active torsions:
REMARK  status: ('A' for Active; 'I' for Inactive)
REMARK    1  A    between atoms: C_2  and  C_3
REMARK    2  A    between atoms: C_6  and  C_7
REMARK    3  A    between atoms: C_11  and  C_12
REMARK    4  A    between atoms: C_12  and  N_13
REMARK    5  A    between atoms: C_17  and  C_18
REMARK                            x       y       z     vdW  Elec       q    Type
REMARK                         _______ _______ _______ _____ _____    ______ ____
ROOT
ATOM      1  C   UNL     1      44.071   5.536  11.092  0.00  0.00    +0.000 C 
ATOM      2  C   UNL     1      42.680   5.295  11.665  0.00  0.00    +0.000 C 
ATOM      3  C   UNL     1      43.800   4.394  12.060  0.00  0.00    +0.000 C 
ENDROOT
BRANCH   1   4
ATOM      4  N   UNL     1      44.277   5.271   9.657  0.00  0.00    +0.000 N 
ATOM      5  C   UNL     1      44.993   4.170   9.164  0.00  0.00    +0.000 A 
ATOM      6  C   UNL     1      44.931   2.903   9.735  0.00  0.00    +0.000 A 
ATOM      7  C   UNL     1      45.594   1.830   9.135  0.00  0.00    +0.000 A 
ATOM      8  C   UNL     1      46.322   2.049   7.971  0.00  0.00    +0.000 A 
ATOM      9  C   UNL     1      46.331   3.336   7.456  0.00  0.00    +0.000 A 
ATOM     10  N   UNL     1      45.690   4.390   8.028  0.00  0.00    +0.000 NA
ATOM     11  H   UNL     1      44.579   6.064   9.094  0.00  0.00    +0.000 HD
BRANCH   8  12
ATOM     12  C   UNL     1      47.044   0.976   7.255  0.00  0.00    +0.000 C 
ATOM     13  N   UNL     1      46.772  -0.316   7.616  0.00  0.00    +0.000 N 
ATOM     14  O   UNL     1      47.873   1.229   6.392  0.00  0.00    +0.000 OA
ATOM     15  H   UNL     1      46.272  -0.563   8.458  0.00  0.00    +0.000 HD
ATOM     16  H   UNL     1      47.336  -1.034   7.180  0.00  0.00    +0.000 HD
ENDBRANCH   8  12
ENDBRANCH   1   4
BRANCH   1  21
ATOM     17  C   UNL     1      46.719   7.759  12.813  0.00  0.00    +0.000 A 
ATOM     18  C   UNL     1      46.183   9.035  12.583  0.00  0.00    +0.000 A 
ATOM     19  C   UNL     1      44.994   9.193  11.869  0.00  0.00    +0.000 A 
ATOM     20  C   UNL     1      44.312   8.076  11.383  0.00  0.00    +0.000 A 
ATOM     21  C   UNL     1      44.799   6.778  11.598  0.00  0.00    +0.000 A 
ATOM     22  C   UNL     1      46.011   6.656  12.298  0.00  0.00    +0.000 A 
BRANCH  17  26
ATOM     23  C   UNL     1      50.387   7.326  14.905  0.00  0.00    +0.000 A 
ATOM     24  C   UNL     1      49.244   6.794  15.483  0.00  0.00    +0.000 A 
ATOM     25  C   UNL     1      48.034   6.910  14.794  0.00  0.00    +0.000 A 
ATOM     26  C   UNL     1      47.983   7.551  13.548  0.00  0.00    +0.000 A 
ATOM     27  C   UNL     1      49.205   8.019  13.057  0.00  0.00    +0.000 A 
ATOM     28  N   UNL     1      50.395   7.935  13.700  0.00  0.00    +0.000 NA
BRANCH  23  30
ATOM     29  N   UNL     1      52.664   7.190  16.152  0.00  0.00    +0.000 NA
ATOM     30  C   UNL     1      51.651   7.273  15.592  0.00  0.00    +0.000 C 
ENDBRANCH  23  30
ENDBRANCH  17  26
ENDBRANCH   1  21
TORSDOF 5
ENDMDL
MODEL 4
REMARK VINA RESULT:    -6.945      5.178      8.715
REMARK INTER + INTRA:         -10.003
REMARK INTER:                  -9.031
REMARK INTRA:                  -0.972
REMARK UNBOUND:                -1.027
REMARK  Name = 
REMARK  5 active torsions:
REMARK  status: ('A' for Active; 'I' for Inactive)
REMARK    1  A    between atoms: C_2  and  C_3
REMARK    2  A    between atoms: C_6  and  C_7
REMARK    3  A    between atoms: C_11  and  C_12
REMARK    4  A    between atoms: C_12  and  N_13
REMARK    5  A    between atoms: C_17  and  C_18
REMARK                            x       y       z     vdW  Elec       q    Type
REMARK                         _______ _______ _______ _____ _____    ______ ____
ROOT
ATOM      1  C   UNL     1      49.356   7.343  17.058  0.00  0.00    +0.000 C 
ATOM      2  C   UNL     1      48.787   8.604  17.697  0.00  0.00    +0.000 C 
ATOM      3  C   UNL     1      50.264   8.399  17.669  0.00  0.00    +0.000 C 
ENDROOT
BRANCH   1   4
ATOM      4  N   UNL     1      49.124   6.061  17.748  0.00  0.00    +0.000 N 
ATOM      5  C   UNL     1      49.984   4.957  17.646  0.00  0.00    +0.000 A 
ATOM      6  C   UNL     1      51.370   5.071  17.603  0.00  0.00    +0.000 A 
ATOM      7  C   UNL     1      52.168   3.925  17.600  0.00  0.00    +0.000 A 
ATOM      8  C   UNL     1      51.560   2.675  17.628  0.00  0.00    +0.000 A 
ATOM      9  C   UNL     1      50.175   2.640  17.679  0.00  0.00    +0.000 A 
ATOM     10  N   UNL     1      49.384   3.747  17.684  0.00  0.00    +0.000 NA
ATOM     11  H   UNL     1      48.183   5.678  17.678  0.00  0.00    +0.000 HD
BRANCH   8  12
ATOM     12  C   UNL     1      52.319   1.407  17.642  0.00  0.00    +0.000 C 
ATOM     13  N   UNL     1      51.663   0.285  18.072  0.00  0.00    +0.000 N 
ATOM     14  O   UNL     1      53.495   1.361  17.309  0.00  0.00    +0.000 OA
ATOM     15  H   UNL     1      50.779   0.312  18.558  0.00  0.00    +0.000 HD
ATOM     16  H   UNL     1      52.218  -0.557  18.159  0.00  0.00    +0.000 HD
ENDBRANCH   8  12
ENDBRANCH   1   4
BRANCH   1  21
ATOM     17  C   UNL     1      48.092   6.328  13.552  0.00  0.00    +0.000 A 
ATOM     18  C   UNL     1      48.999   7.018  12.734  0.00  0.00    +0.000 A 
ATOM     19  C   UNL     1      49.999   7.818  13.291  0.00  0.00    +0.000 A 
ATOM     20  C   UNL     1      50.118   7.932  14.677  0.00  0.00    +0.000 A 
ATOM     21  C   UNL     1      49.244   7.251  15.539  0.00  0.00    +0.000 A 
ATOM     22  C   UNL     1      48.234   6.475  14.945  0.00  0.00    +0.000 A 
BRANCH  17  26
ATOM     23  C   UNL     1      44.925   3.884  12.133  0.00  0.00    +0.000 A 
ATOM     24  C   UNL     1      45.133   5.105  11.507  0.00  0.00    +0.000 A 
ATOM     25  C   UNL     1      46.187   5.909  11.950  0.00  0.00    +0.000 A 
ATOM     26  C   UNL     1      47.010   5.486  13.003  0.00  0.00    +0.000 A 
ATOM     27  C   UNL     1      46.719   4.225  13.532  0.00  0.00    +0.000 A 
ATOM     28  N   UNL     1      45.700   3.423  13.136  0.00  0.00    +0.000 NA
BRANCH  23  30
ATOM     29  N   UNL     1      42.953   2.329  11.459  0.00  0.00    +0.000 NA
ATOM     30  C   UNL     1      43.827   3.038  11.744  0.00  0.00    +0.000 C 
ENDBRANCH  23  30
ENDBRANCH  17  26
ENDBRANCH   1  21
TORSDOF 5
ENDMDL
MODEL 5
REMARK VINA RESULT:    -6.425      3.193      7.171
REMARK INTER + INTRA:          -9.330
REMARK INTER:                  -9.527
REMARK INTRA:                   0.196
REMARK UNBOUND:                -1.027
REMARK  Name = 
REMARK  5 active torsions:
REMARK  status: ('A' for Active; 'I' for Inactive)
REMARK    1  A    between atoms: C_2  and  C_3
REMARK    2  A    between atoms: C_6  and  C_7
REMARK    3  A    between atoms: C_11  and  C_12
REMARK    4  A    between atoms: C_12  and  N_13
REMARK    5  A    between atoms: C_17  and  C_18
REMARK                            x       y       z     vdW  Elec       q    Type
REMARK                         _______ _______ _______ _____ _____    ______ ____
ROOT
ATOM      1  C   UNL     1      46.013   7.759  12.537  0.00  0.00    +0.000 C 
ATOM      2  C   UNL     1      45.225   8.866  13.227  0.00  0.00    +0.000 C 
ATOM      3  C   UNL     1      45.896   9.147  11.927  0.00  0.00    +0.000 C 
ENDROOT
BRANCH   1   4
ATOM      4  N   UNL     1      47.272   7.319  13.166  0.00  0.00    +0.000 N 
ATOM      5  C   UNL     1      47.357   6.250  14.069  0.00  0.00    +0.000 A 
ATOM      6  C   UNL     1      46.620   5.077  13.934  0.00  0.00    +0.000 A 
ATOM      7  C   UNL     1      46.827   4.014  14.816  0.00  0.00    +0.000 A 
ATOM      8  C   UNL     1      47.766   4.148  15.832  0.00  0.00    +0.000 A 
ATOM      9  C   UNL     1      48.468   5.342  15.899  0.00  0.00    +0.000 A 
ATOM     10  N   UNL     1      48.279   6.386  15.047  0.00  0.00    +0.000 NA
ATOM     11  H   UNL     1      47.855   8.055  13.562  0.00  0.00    +0.000 HD
BRANCH   8  12
ATOM     12  C   UNL     1      48.066   3.075  16.803  0.00  0.00    +0.000 C 
ATOM     13  N   UNL     1      47.163   2.867  17.810  0.00  0.00    +0.000 N 
ATOM     14  O   UNL     1      49.093   2.414  16.729  0.00  0.00    +0.000 OA
ATOM     15  H   UNL     1      46.428   3.519  18.039  0.00  0.00    +0.000 HD
ATOM     16  H   UNL     1      47.423   2.189  18.516  0.00  0.00    +0.000 HD
ENDBRANCH   8  12
ENDBRANCH   1   4
BRANCH   1  21
ATOM     17  C   UNL     1      44.977   4.810  10.268  0.00  0.00    +0.000 A 
ATOM     18  C   UNL     1      43.709   4.510  10.788  0.00  0.00    +0.000 A 
ATOM     19  C   UNL     1      43.189   5.229  11.866  0.00  0.00    +0.000 A 
ATOM     20  C   UNL     1      43.923   6.270  12.436  0.00  0.00    +0.000 A 
ATOM     21  C   UNL     1      45.191   6.618  11.945  0.00  0.00    +0.000 A 
ATOM     22  C   UNL     1      45.695   5.858  10.876  0.00  0.00    +0.000 A 
BRANCH  17  26
ATOM     23  C   UNL     1      46.824   2.756   7.046  0.00  0.00    +0.000 A 
ATOM     24  C   UNL     1      46.213   1.997   8.034  0.00  0.00    +0.000 A 
ATOM     25  C   UNL     1      45.583   2.662   9.089  0.00  0.00    +0.000 A 
ATOM     26  C   UNL     1      45.570   4.063   9.141  0.00  0.00    +0.000 A 
ATOM     27  C   UNL     1      46.192   4.715   8.073  0.00  0.00    +0.000 A 
ATOM     28  N   UNL     1      46.823   4.105   7.039  0.00  0.00    +0.000 NA
BRANCH  23  30
ATOM     29  N   UNL     1      48.117   1.639   5.086  0.00  0.00    +0.000 NA
ATOM     30  C   UNL     1      47.525   2.121   5.961  0.00  0.00    +0.000 C 
ENDBRANCH  23  30
ENDBRANCH  17  26
ENDBRANCH   1  21
TORSDOF 5
ENDMDL
MODEL 6
REMARK VINA RESULT:    -6.260      3.084      7.433
REMARK INTER + INTRA:          -9.117
REMARK INTER:                  -8.831
REMARK INTRA:                  -0.286
REMARK UNBOUND:                -1.027
REMARK  Name = 
REMARK  5 active torsions:
REMARK  status: ('A' for Active; 'I' for Inactive)
REMARK    1  A    between atoms: C_2  and  C_3
REMARK    2  A    between atoms: C_6  and  C_7
REMARK    3  A    between atoms: C_11  and  C_12
REMARK    4  A    between atoms: C_12  and  N_13
REMARK    5  A    between atoms: C_17  and  C_18
REMARK                            x       y       z     vdW  Elec       q    Type
REMARK                         _______ _______ _______ _____ _____    ______ ____
ROOT
ATOM      1  C   UNL     1      45.400   8.032  12.487  0.00  0.00    +0.000 C 
ATOM      2  C   UNL     1      44.520   9.275  12.447  0.00  0.00    +0.000 C 
ATOM      3  C   UNL     1      45.631   9.134  11.464  0.00  0.00    +0.000 C 
ENDROOT
BRANCH   1   4
ATOM      4  N   UNL     1      46.309   7.873  13.637  0.00  0.00    +0.000 N 
ATOM      5  C   UNL     1      47.704   7.995  13.549  0.00  0.00    +0.000 A 
ATOM      6  C   UNL     1      48.338   8.939  12.746  0.00  0.00    +0.000 A 
ATOM      7  C   UNL     1      49.728   9.068  12.781  0.00  0.00    +0.000 A 
ATOM      8  C   UNL     1      50.466   8.237  13.615  0.00  0.00    +0.000 A 
ATOM      9  C   UNL     1      49.765   7.326  14.391  0.00  0.00    +0.000 A 
ATOM     10  N   UNL     1      48.412   7.189  14.370  0.00  0.00    +0.000 NA
ATOM     11  H   UNL     1      46.146   7.060  14.228  0.00  0.00    +0.000 HD
BRANCH   8  12
ATOM     12  C   UNL     1      51.938   8.308  13.732  0.00  0.00    +0.000 C 
ATOM     13  N   UNL     1      52.524   7.593  14.741  0.00  0.00    +0.000 N 
ATOM     14  O   UNL     1      52.606   8.997  12.975  0.00  0.00    +0.000 OA
ATOM     15  H   UNL     1      52.008   7.196  15.512  0.00  0.00    +0.000 HD
ATOM     16  H   UNL     1      53.521   7.720  14.862  0.00  0.00    +0.000 HD
ENDBRANCH   8  12
ENDBRANCH   1   4
BRANCH   1  21
ATOM     17  C   UNL     1      44.728   4.786  10.506  0.00  0.00    +0.000 A 
ATOM     18  C   UNL     1      43.565   4.325  11.141  0.00  0.00    +0.000 A 
ATOM     19  C   UNL     1      43.004   5.031  12.207  0.00  0.00    +0.000 A 
ATOM     20  C   UNL     1      43.589   6.220  12.648  0.00  0.00    +0.000 A 
ATOM     21  C   UNL     1      44.745   6.730  12.038  0.00  0.00    +0.000 A 
ATOM     22  C   UNL     1      45.298   5.981  10.986  0.00  0.00    +0.000 A 
BRANCH  17  26
ATOM     23  C   UNL     1      46.696   2.787   7.321  0.00  0.00    +0.000 A 
ATOM     24  C   UNL     1      46.019   2.014   8.252  0.00  0.00    +0.000 A 
ATOM     25  C   UNL     1      45.348   2.661   9.293  0.00  0.00    +0.000 A 
ATOM     26  C   UNL     1      45.363   4.059   9.389  0.00  0.00    +0.000 A 
ATOM     27  C   UNL     1      46.055   4.728   8.375  0.00  0.00    +0.000 A 
ATOM     28  N   UNL     1      46.726   4.136   7.357  0.00  0.00    +0.000 NA
BRANCH  23  30
ATOM     29  N   UNL     1      48.073   1.676   5.415  0.00  0.00    +0.000 NA
ATOM     30  C   UNL     1      47.440   2.169   6.254  0.00  0.00    +0.000 C 
ENDBRANCH  23  30
ENDBRANCH  17  26
ENDBRANCH   1  21
TORSDOF 5
ENDMDL
