MODEL 1
REMARK VINA RESULT:    -9.422      0.000      0.000
REMARK INTER + INTRA:         -12.124
REMARK INTER:                 -12.176
REMARK INTRA:                   0.052
REMARK UNBOUND:                 0.052
REMARK  Name = 
REMARK  6 active torsions:
REMARK  status: ('A' for Active; 'I' for Inactive)
REMARK    1  A    between atoms: C_1  and  O_2
REMARK    2  A    between atoms: O_2  and  C_3
REMARK    3  A    between atoms: C_6  and  C_7
REMARK    4  A    between atoms: C_11  and  C_12
REMARK    5  A    between atoms: C_12  and  N_13
REMARK    6  A    between atoms: C_17  and  C_18
REMARK                            x       y       z     vdW  Elec       q    Type
REMARK                         _______ _______ _______ _____ _____    ______ ____
ROOT
ATOM      1  C   UNL     1      44.002   5.296  11.214  0.00  0.00    +0.000 C 
ATOM      2  C   UNL     1      42.641   5.853  11.588  0.00  0.00    +0.000 C 
ATOM      3  C   UNL     1      42.836   4.377  11.584  0.00  0.00    +0.000 C 
ENDROOT
BRANCH   1   4
ATOM      4  N   UNL     1      44.452   5.294   9.825  0.00  0.00    +0.000 N 
ATOM      5  C   UNL     1      45.049   4.245   9.136  0.00  0.00    +0.000 A 
ATOM      6  C   UNL     1      44.975   2.909   9.517  0.00  0.00    +0.000 A 
ATOM      7  C   UNL     1      45.691   1.943   8.794  0.00  0.00    +0.000 A 
ATOM      8  C   UNL     1      46.460   2.345   7.704  0.00  0.00    +0.000 A 
ATOM      9  C   UNL     1      46.436   3.687   7.363  0.00  0.00    +0.000 A 
ATOM     10  N   UNL     1      45.741   4.630   8.045  0.00  0.00    +0.000 NA
ATOM     11  H   UNL     1      44.702   6.167   9.369  0.00  0.00    +0.000 HD
BRANCH   8  12
ATOM     12  C   UNL     1      47.362   1.453   6.945  0.00  0.00    +0.000 C 
ATOM     13  N   UNL     1      48.416   2.011   6.283  0.00  0.00    +0.000 N 
ATOM     14  O   UNL     1      47.174   0.244   6.911  0.00  0.00    +0.000 OA
ATOM     15  H   UNL     1      48.747   2.951   6.449  0.00  0.00    +0.000 HD
ATOM     16  H   UNL     1      49.046   1.364   5.824  0.00  0.00    +0.000 HD
ENDBRANCH   8  12
ENDBRANCH   1   4
BRANCH   1  21
ATOM     17  C   UNL     1      47.306   5.998  13.086  0.00  0.00    +0.000 A 
ATOM     18  C   UNL     1      47.140   5.052  14.100  0.00  0.00    +0.000 A 
ATOM     19  N   UNL     1      46.086   4.215  14.212  0.00  0.00    +0.000 NA
ATOM     20  C   UNL     1      45.139   4.327  13.258  0.00  0.00    +0.000 A 
ATOM     21  C   UNL     1      45.151   5.243  12.203  0.00  0.00    +0.000 A 
ATOM     22  C   UNL     1      46.277   6.073  12.131  0.00  0.00    +0.000 A 
BRANCH  17  26
ATOM     23  C   UNL     1      50.738   8.456  12.991  0.00  0.00    +0.000 A 
ATOM     24  C   UNL     1      50.041   8.278  11.807  0.00  0.00    +0.000 A 
ATOM     25  C   UNL     1      48.913   7.464  11.827  0.00  0.00    +0.000 A 
ATOM     26  C   UNL     1      48.499   6.851  13.018  0.00  0.00    +0.000 A 
ATOM     27  C   UNL     1      49.280   7.115  14.145  0.00  0.00    +0.000 A 
ATOM     28  N   UNL     1      50.382   7.891  14.159  0.00  0.00    +0.000 NA
BRANCH  23  30
ATOM     29  C   UNL     1      52.945   8.628  12.260  0.00  0.00    +0.000 C 
ATOM     30  O   UNL     1      51.857   9.262  12.930  0.00  0.00    +0.000 OA
ENDBRANCH  23  30
ENDBRANCH  17  26
ENDBRANCH   1  21
TORSDOF 5
ENDMDL
MODEL 2
REMARK VINA RESULT:    -8.743      2.786      3.883
REMARK INTER + INTRA:         -11.246
REMARK INTER:                 -11.463
REMARK INTRA:                   0.217
REMARK UNBOUND:                 0.052
REMARK  Name = 
REMARK  6 active torsions:
REMARK  status: ('A' for Active; 'I' for Inactive)
REMARK    1  A    between atoms: C_1  and  O_2
REMARK    2  A    between atoms: O_2  and  C_3
REMARK    3  A    between atoms: C_6  and  C_7
REMARK    4  A    between atoms: C_11  and  C_12
REMARK    5  A    between atoms: C_12  and  N_13
REMARK    6  A    between atoms: C_17  and  C_18
REMARK                            x       y       z     vdW  Elec       q    Type
REMARK                         _______ _______ _______ _____ _____    ______ ____
ROOT
ATOM      1  C   UNL     1      44.309   4.929  11.554  0.00  0.00    +0.000 C 
ATOM      2  C   UNL     1      42.931   4.980  12.187  0.00  0.00    +0.000 C 
ATOM      3  C   UNL     1      43.651   3.677  12.136  0.00  0.00    +0.000 C 
ENDROOT
BRANCH   1   4
ATOM      4  N   UNL     1      44.467   5.000  10.103  0.00  0.00    +0.000 N 
ATOM      5  C   UNL     1      45.053   4.050   9.274  0.00  0.00    +0.000 A 
ATOM      6  C   UNL     1      45.241   2.714   9.617  0.00  0.00    +0.000 A 
ATOM      7  C   UNL     1      45.923   1.864   8.734  0.00  0.00    +0.000 A 
ATOM      8  C   UNL     1      46.395   2.377   7.527  0.00  0.00    +0.000 A 
ATOM      9  C   UNL     1      46.119   3.704   7.244  0.00  0.00    +0.000 A 
ATOM     10  N   UNL     1      45.452   4.535   8.082  0.00  0.00    +0.000 NA
ATOM     11  H   UNL     1      44.499   5.901   9.636  0.00  0.00    +0.000 HD
BRANCH   8  12
ATOM     12  C   UNL     1      47.240   1.626   6.575  0.00  0.00    +0.000 C 
ATOM     13  N   UNL     1      48.162   2.317   5.844  0.00  0.00    +0.000 N 
ATOM     14  O   UNL     1      47.123   0.414   6.444  0.00  0.00    +0.000 OA
ATOM     15  H   UNL     1      48.454   3.260   6.060  0.00  0.00    +0.000 HD
ATOM     16  H   UNL     1      48.762   1.762   5.246  0.00  0.00    +0.000 HD
ENDBRANCH   8  12
ENDBRANCH   1   4
BRANCH   1  21
ATOM     17  C   UNL     1      47.083   5.302  14.215  0.00  0.00    +0.000 A 
ATOM     18  C   UNL     1      47.882   6.207  13.513  0.00  0.00    +0.000 A 
ATOM     19  N   UNL     1      47.594   6.707  12.293  0.00  0.00    +0.000 NA
ATOM     20  C   UNL     1      46.442   6.282  11.736  0.00  0.00    +0.000 A 
ATOM     21  C   UNL     1      45.557   5.359  12.301  0.00  0.00    +0.000 A 
ATOM     22  C   UNL     1      45.902   4.887  13.574  0.00  0.00    +0.000 A 
BRANCH  17  26
ATOM     23  C   UNL     1      48.220   4.007  18.070  0.00  0.00    +0.000 A 
ATOM     24  C   UNL     1      47.385   3.182  17.335  0.00  0.00    +0.000 A 
ATOM     25  C   UNL     1      46.998   3.604  16.066  0.00  0.00    +0.000 A 
ATOM     26  C   UNL     1      47.453   4.828  15.555  0.00  0.00    +0.000 A 
ATOM     27  C   UNL     1      48.297   5.564  16.388  0.00  0.00    +0.000 A 
ATOM     28  N   UNL     1      48.684   5.189  17.624  0.00  0.00    +0.000 NA
BRANCH  23  30
ATOM     29  C   UNL     1      48.846   4.632  20.227  0.00  0.00    +0.000 C 
ATOM     30  O   UNL     1      48.573   3.560  19.328  0.00  0.00    +0.000 OA
ENDBRANCH  23  30
ENDBRANCH  17  26
ENDBRANCH   1  21
TORSDOF 5
ENDMDL
MODEL 3
REMARK VINA RESULT:    -7.734      2.844      7.224
REMARK INTER + INTRA:          -9.943
REMARK INTER:                  -9.734
REMARK INTRA:                  -0.209
REMARK UNBOUND:                 0.052
REMARK  Name = 
REMARK  6 active torsions:
REMARK  status: ('A' for Active; 'I' for Inactive)
REMARK    1  A    between atoms: C_1  and  O_2
REMARK    2  A    between atoms: O_2  and  C_3
REMARK    3  A    between atoms: C_6  and  C_7
REMARK    4  A    between atoms: C_11  and  C_12
REMARK    5  A    between atoms: C_12  and  N_13
REMARK    6  A    between atoms: C_17  and  C_18
REMARK                            x       y       z     vdW  Elec       q    Type
REMARK                         _______ _______ _______ _____ _____    ______ ____
ROOT
ATOM      1  C   UNL     1      45.763   7.694  12.362  0.00  0.00    +0.000 C 
ATOM      2  C   UNL     1      45.044   8.935  12.858  0.00  0.00    +0.000 C 
ATOM      3  C   UNL     1      45.803   9.008  11.579  0.00  0.00    +0.000 C 
ENDROOT
BRANCH   1   4
ATOM      4  N   UNL     1      47.000   7.245  12.996  0.00  0.00    +0.000 N 
ATOM      5  C   UNL     1      47.160   6.160  13.850  0.00  0.00    +0.000 A 
ATOM      6  C   UNL     1      46.271   5.095  13.946  0.00  0.00    +0.000 A 
ATOM      7  C   UNL     1      46.489   4.096  14.907  0.00  0.00    +0.000 A 
ATOM      8  C   UNL     1      47.600   4.192  15.744  0.00  0.00    +0.000 A 
ATOM      9  C   UNL     1      48.462   5.257  15.544  0.00  0.00    +0.000 A 
ATOM     10  N   UNL     1      48.269   6.224  14.613  0.00  0.00    +0.000 NA
ATOM     11  H   UNL     1      47.757   7.902  13.159  0.00  0.00    +0.000 HD
BRANCH   8  12
ATOM     12  C   UNL     1      47.871   3.285  16.878  0.00  0.00    +0.000 C 
ATOM     13  N   UNL     1      46.820   2.883  17.650  0.00  0.00    +0.000 N 
ATOM     14  O   UNL     1      49.007   2.897  17.122  0.00  0.00    +0.000 OA
ATOM     15  H   UNL     1      45.853   2.987  17.376  0.00  0.00    +0.000 HD
ATOM     16  H   UNL     1      47.034   2.215  18.381  0.00  0.00    +0.000 HD
ENDBRANCH   8  12
ENDBRANCH   1   4
BRANCH   1  21
ATOM     17  C   UNL     1      44.930   4.726  10.035  0.00  0.00    +0.000 A 
ATOM     18  C   UNL     1      43.599   4.564  10.424  0.00  0.00    +0.000 A 
ATOM     19  N   UNL     1      42.961   5.329  11.336  0.00  0.00    +0.000 NA
ATOM     20  C   UNL     1      43.693   6.314  11.896  0.00  0.00    +0.000 A 
ATOM     21  C   UNL     1      45.039   6.579  11.633  0.00  0.00    +0.000 A 
ATOM     22  C   UNL     1      45.641   5.762  10.667  0.00  0.00    +0.000 A 
BRANCH  17  26
ATOM     23  C   UNL     1      46.685   2.185   7.155  0.00  0.00    +0.000 A 
ATOM     24  C   UNL     1      46.769   3.552   6.943  0.00  0.00    +0.000 A 
ATOM     25  C   UNL     1      46.187   4.397   7.884  0.00  0.00    +0.000 A 
ATOM     26  C   UNL     1      45.542   3.870   9.011  0.00  0.00    +0.000 A 
ATOM     27  C   UNL     1      45.533   2.478   9.116  0.00  0.00    +0.000 A 
ATOM     28  N   UNL     1      46.079   1.630   8.220  0.00  0.00    +0.000 NA
BRANCH  23  30
ATOM     29  C   UNL     1      47.899   2.134   5.165  0.00  0.00    +0.000 C 
ATOM     30  O   UNL     1      47.264   1.379   6.195  0.00  0.00    +0.000 OA
ENDBRANCH  23  30
ENDBRANCH  17  26
ENDBRANCH   1  21
TORSDOF 5
ENDMDL
MODEL 4
REMARK VINA RESULT:    -7.729      2.009      2.513
REMARK INTER + INTRA:          -9.936
REMARK INTER:                  -9.294
REMARK INTRA:                  -0.642
REMARK UNBOUND:                 0.052
REMARK  Name = 
REMARK  6 active torsions:
REMARK  status: ('A' for Active; 'I' for Inactive)
REMARK    1  A    between atoms: C_1  and  O_2
REMARK    2  A    between atoms: O_2  and  C_3
REMARK    3  A    between atoms: C_6  and  C_7
REMARK    4  A    between atoms: C_11  and  C_12
REMARK    5  A    between atoms: C_12  and  N_13
REMARK    6  A    between atoms: C_17  and  C_18
REMARK                            x       y       z     vdW  Elec       q    Type
REMARK                         _______ _______ _______ _____ _____    ______ ____
ROOT
ATOM      1  C   UNL     1      43.876   5.257  11.794  0.00  0.00    +0.000 C 
ATOM      2  C   UNL     1      42.427   5.542  11.444  0.00  0.00    +0.000 C 
ATOM      3  C   UNL     1      42.766   5.159  12.843  0.00  0.00    +0.000 C 
ENDROOT
BRANCH   1   4
ATOM      4  N   UNL     1      44.517   4.015  11.367  0.00  0.00    +0.000 N 
ATOM      5  C   UNL     1      45.164   3.776  10.161  0.00  0.00    +0.000 A 
ATOM      6  C   UNL     1      45.652   4.769   9.318  0.00  0.00    +0.000 A 
ATOM      7  C   UNL     1      46.212   4.413   8.082  0.00  0.00    +0.000 A 
ATOM      8  C   UNL     1      46.271   3.066   7.727  0.00  0.00    +0.000 A 
ATOM      9  C   UNL     1      45.811   2.141   8.648  0.00  0.00    +0.000 A 
ATOM     10  N   UNL     1      45.277   2.469   9.850  0.00  0.00    +0.000 NA
ATOM     11  H   UNL     1      44.217   3.127  11.757  0.00  0.00    +0.000 HD
BRANCH   8  12
ATOM     12  C   UNL     1      46.711   2.570   6.406  0.00  0.00    +0.000 C 
ATOM     13  N   UNL     1      46.811   3.464   5.380  0.00  0.00    +0.000 N 
ATOM     14  O   UNL     1      46.984   1.389   6.233  0.00  0.00    +0.000 OA
ATOM     15  H   UNL     1      46.814   4.466   5.509  0.00  0.00    +0.000 HD
ATOM     16  H   UNL     1      47.172   3.100   4.507  0.00  0.00    +0.000 HD
ENDBRANCH   8  12
ENDBRANCH   1   4
BRANCH   1  21
ATOM     17  C   UNL     1      46.904   7.268  13.100  0.00  0.00    +0.000 A 
ATOM     18  C   UNL     1      46.615   8.467  12.445  0.00  0.00    +0.000 A 
ATOM     19  N   UNL     1      45.540   8.678  11.656  0.00  0.00    +0.000 NA
ATOM     20  C   UNL     1      44.702   7.632  11.507  0.00  0.00    +0.000 A 
ATOM     21  C   UNL     1      44.873   6.366  12.071  0.00  0.00    +0.000 A 
ATOM     22  C   UNL     1      45.998   6.212  12.892  0.00  0.00    +0.000 A 
BRANCH  17  26
ATOM     23  C   UNL     1      50.232   6.810  15.658  0.00  0.00    +0.000 A 
ATOM     24  C   UNL     1      50.287   7.813  14.703  0.00  0.00    +0.000 A 
ATOM     25  C   UNL     1      49.198   7.967  13.851  0.00  0.00    +0.000 A 
ATOM     26  C   UNL     1      48.080   7.129  13.967  0.00  0.00    +0.000 A 
ATOM     27  C   UNL     1      48.141   6.163  14.973  0.00  0.00    +0.000 A 
ATOM     28  N   UNL     1      49.182   5.982  15.811  0.00  0.00    +0.000 NA
BRANCH  23  30
ATOM     29  C   UNL     1      52.539   7.093  15.833  0.00  0.00    +0.000 C 
ATOM     30  O   UNL     1      51.335   6.682  16.478  0.00  0.00    +0.000 OA
ENDBRANCH  23  30
ENDBRANCH  17  26
ENDBRANCH   1  21
TORSDOF 5
ENDMDL
MODEL 5
REMARK VINA RESULT:    -7.366      4.946      8.823
REMARK INTER + INTRA:          -9.468
REMARK INTER:                  -8.911
REMARK INTRA:                  -0.557
REMARK UNBOUND:                 0.052
REMARK  Name = 
REMARK  6 active torsions:
REMARK  status: ('A' for Active; 'I' for Inactive)
REMARK    1  A    between atoms: C_1  and  O_2
REMARK    2  A    between atoms: O_2  and  C_3
REMARK    3  A    between atoms: C_6  and  C_7
REMARK    4  A    between atoms: C_11  and  C_12
REMARK    5  A    between atoms: C_12  and  N_13
REMARK    6  A    between atoms: C_17  and  C_18
REMARK                            x       y       z     vdW  Elec       q    Type
REMARK                         _______ _______ _______ _____ _____    ______ ____
ROOT
ATOM      1  C   UNL     1      48.599   4.763  17.395  0.00  0.00    +0.000 C 
ATOM      2  C   UNL     1      47.658   3.760  18.036  0.00  0.00    +0.000 C 
ATOM      3  C   UNL     1      47.651   5.167  18.526  0.00  0.00    +0.000 C 
ENDROOT
BRANCH   1   4
ATOM      4  N   UNL     1      50.030   4.735  17.686  0.00  0.00    +0.000 N 
ATOM      5  C   UNL     1      50.866   3.625  17.687  0.00  0.00    +0.000 A 
ATOM      6  C   UNL     1      50.583   2.425  17.043  0.00  0.00    +0.000 A 
ATOM      7  C   UNL     1      51.462   1.340  17.184  0.00  0.00    +0.000 A 
ATOM      8  C   UNL     1      52.606   1.492  17.966  0.00  0.00    +0.000 A 
ATOM      9  C   UNL     1      52.837   2.736  18.527  0.00  0.00    +0.000 A 
ATOM     10  N   UNL     1      52.003   3.796  18.391  0.00  0.00    +0.000 NA
ATOM     11  H   UNL     1      50.445   5.456  18.270  0.00  0.00    +0.000 HD
BRANCH   8  12
ATOM     12  C   UNL     1      53.538   0.396  18.302  0.00  0.00    +0.000 C 
ATOM     13  N   UNL     1      53.015  -0.829  18.599  0.00  0.00    +0.000 N 
ATOM     14  O   UNL     1      54.749   0.576  18.313  0.00  0.00    +0.000 OA
ATOM     15  H   UNL     1      52.061  -1.094  18.396  0.00  0.00    +0.000 HD
ATOM     16  H   UNL     1      53.685  -1.570  18.766  0.00  0.00    +0.000 HD
ENDBRANCH   8  12
ENDBRANCH   1   4
BRANCH   1  21
ATOM     17  C   UNL     1      47.149   5.564  13.906  0.00  0.00    +0.000 A 
ATOM     18  C   UNL     1      47.777   6.799  13.733  0.00  0.00    +0.000 A 
ATOM     19  N   UNL     1      48.623   7.367  14.617  0.00  0.00    +0.000 NA
ATOM     20  C   UNL     1      48.859   6.665  15.744  0.00  0.00    +0.000 A 
ATOM     21  C   UNL     1      48.283   5.435  16.073  0.00  0.00    +0.000 A 
ATOM     22  C   UNL     1      47.425   4.889  15.108  0.00  0.00    +0.000 A 
BRANCH  17  26
ATOM     23  C   UNL     1      44.616   3.850  10.994  0.00  0.00    +0.000 A 
ATOM     24  C   UNL     1      45.088   5.132  10.762  0.00  0.00    +0.000 A 
ATOM     25  C   UNL     1      45.918   5.708  11.719  0.00  0.00    +0.000 A 
ATOM     26  C   UNL     1      46.263   5.000  12.879  0.00  0.00    +0.000 A 
ATOM     27  C   UNL     1      45.731   3.714  12.993  0.00  0.00    +0.000 A 
ATOM     28  N   UNL     1      44.919   3.130  12.089  0.00  0.00    +0.000 NA
BRANCH  23  30
ATOM     29  C   UNL     1      44.484   2.446   9.138  0.00  0.00    +0.000 C 
ATOM     30  O   UNL     1      43.788   3.317  10.027  0.00  0.00    +0.000 OA
ENDBRANCH  23  30
ENDBRANCH  17  26
ENDBRANCH   1  21
TORSDOF 5
ENDMDL
MODEL 6
REMARK VINA RESULT:    -6.988      2.868      8.331
REMARK INTER + INTRA:          -8.978
REMARK INTER:                  -8.784
REMARK INTRA:                  -0.194
REMARK UNBOUND:                 0.052
REMARK  Name = 
REMARK  6 active torsions:
REMARK  status: ('A' for Active; 'I' for Inactive)
REMARK    1  A    between atoms: C_1  and  O_2
REMARK    2  A    between atoms: O_2  and  C_3
REMARK    3  A    between atoms: C_6  and  C_7
REMARK    4  A    between atoms: C_11  and  C_12
REMARK    5  A    between atoms: C_12  and  N_13
REMARK    6  A    between atoms: C_17  and  C_18
REMARK                            x       y       z     vdW  Elec       q    Type
REMARK                         _______ _______ _______ _____ _____    ______ ____
ROOT
ATOM      1  C   UNL     1      49.114   8.723  12.706  0.00  0.00    +0.000 C 
ATOM      2  C   UNL     1      50.011   9.350  11.655  0.00  0.00    +0.000 C 
ATOM      3  C   UNL     1      50.160   7.898  11.953  0.00  0.00    +0.000 C 
ENDROOT
BRANCH   1   4
ATOM      4  N   UNL     1      49.342   8.972  14.127  0.00  0.00    +0.000 N 
ATOM      5  C   UNL     1      49.101   8.101  15.183  0.00  0.00    +0.000 A 
ATOM      6  C   UNL     1      48.969   6.722  15.051  0.00  0.00    +0.000 A 
ATOM      7  C   UNL     1      48.640   5.949  16.175  0.00  0.00    +0.000 A 
ATOM      8  C   UNL     1      48.456   6.583  17.403  0.00  0.00    +0.000 A 
ATOM      9  C   UNL     1      48.658   7.951  17.454  0.00  0.00    +0.000 A 
ATOM     10  N   UNL     1      48.987   8.710  16.380  0.00  0.00    +0.000 NA
ATOM     11  H   UNL     1      49.343   9.923  14.484  0.00  0.00    +0.000 HD
BRANCH   8  12
ATOM     12  C   UNL     1      47.979   5.906  18.627  0.00  0.00    +0.000 C 
ATOM     13  N   UNL     1      46.674   5.511  18.682  0.00  0.00    +0.000 N 
ATOM     14  O   UNL     1      48.733   5.700  19.571  0.00  0.00    +0.000 OA
ATOM     15  H   UNL     1      46.073   5.454  17.872  0.00  0.00    +0.000 HD
ATOM     16  H   UNL     1      46.399   4.998  19.510  0.00  0.00    +0.000 HD
ENDBRANCH   8  12
ENDBRANCH   1   4
BRANCH   1  21
ATOM     17  C   UNL     1      45.999   6.751  11.553  0.00  0.00    +0.000 A 
ATOM     18  C   UNL     1      45.040   7.680  11.962  0.00  0.00    +0.000 A 
ATOM     19  N   UNL     1      45.313   8.868  12.544  0.00  0.00    +0.000 NA
ATOM     20  C   UNL     1      46.618   9.148  12.733  0.00  0.00    +0.000 A 
ATOM     21  C   UNL     1      47.686   8.308  12.406  0.00  0.00    +0.000 A 
ATOM     22  C   UNL     1      47.341   7.097  11.791  0.00  0.00    +0.000 A 
BRANCH  17  26
ATOM     23  C   UNL     1      44.915   3.086   9.758  0.00  0.00    +0.000 A 
ATOM     24  C   UNL     1      45.343   4.108   8.927  0.00  0.00    +0.000 A 
ATOM     25  C   UNL     1      45.696   5.322   9.508  0.00  0.00    +0.000 A 
ATOM     26  C   UNL     1      45.621   5.493  10.898  0.00  0.00    +0.000 A 
ATOM     27  C   UNL     1      45.183   4.386  11.628  0.00  0.00    +0.000 A 
ATOM     28  N   UNL     1      44.827   3.200  11.096  0.00  0.00    +0.000 NA
BRANCH  23  30
ATOM     29  C   UNL     1      45.646   1.329   8.413  0.00  0.00    +0.000 C 
ATOM     30  O   UNL     1      44.564   1.901   9.144  0.00  0.00    +0.000 OA
ENDBRANCH  23  30
ENDBRANCH  17  26
ENDBRANCH   1  21
TORSDOF 5
ENDMDL
MODEL 7
REMARK VINA RESULT:    -6.959      4.090      6.545
REMARK INTER + INTRA:          -8.941
REMARK INTER:                  -8.418
REMARK INTRA:                  -0.523
REMARK UNBOUND:                 0.052
REMARK  Name = 
REMARK  6 active torsions:
REMARK  status: ('A' for Active; 'I' for Inactive)
REMARK    1  A    between atoms: C_1  and  O_2
REMARK    2  A    between atoms: O_2  and  C_3
REMARK    3  A    between atoms: C_6  and  C_7
REMARK    4  A    between atoms: C_11  and  C_12
REMARK    5  A    between atoms: C_12  and  N_13
REMARK    6  A    between atoms: C_17  and  C_18
REMARK                            x       y       z     vdW  Elec       q    Type
REMARK                         _______ _______ _______ _____ _____    ______ ____
ROOT
ATOM      1  C   UNL     1      48.407   9.042  14.748  0.00  0.00    +0.000 C 
ATOM      2  C   UNL     1      49.569   9.455  13.864  0.00  0.00    +0.000 C 
ATOM      3  C   UNL     1      49.004  10.448  14.820  0.00  0.00    +0.000 C 
ENDROOT
BRANCH   1   4
ATOM      4  N   UNL     1      47.061   8.904  14.195  0.00  0.00    +0.000 N 
ATOM      5  C   UNL     1      46.622   7.956  13.279  0.00  0.00    +0.000 A 
ATOM      6  C   UNL     1      47.268   6.751  13.021  0.00  0.00    +0.000 A 
ATOM      7  C   UNL     1      46.781   5.908  12.010  0.00  0.00    +0.000 A 
ATOM      8  C   UNL     1      45.655   6.297  11.287  0.00  0.00    +0.000 A 
ATOM      9  C   UNL     1      45.045   7.487  11.645  0.00  0.00    +0.000 A 
ATOM     10  N   UNL     1      45.497   8.307  12.625  0.00  0.00    +0.000 NA
ATOM     11  H   UNL     1      46.443   9.709  14.152  0.00  0.00    +0.000 HD
BRANCH   8  12
ATOM     12  C   UNL     1      45.124   5.570  10.115  0.00  0.00    +0.000 C 
ATOM     13  N   UNL     1      43.823   5.161  10.143  0.00  0.00    +0.000 N 
ATOM     14  O   UNL     1      45.829   5.340   9.141  0.00  0.00    +0.000 OA
ATOM     15  H   UNL     1      43.143   5.504  10.807  0.00  0.00    +0.000 HD
ATOM     16  H   UNL     1      43.477   4.719   9.300  0.00  0.00    +0.000 HD
ENDBRANCH   8  12
ENDBRANCH   1   4
BRANCH   1  21
ATOM     17  C   UNL     1      49.285   6.227  17.243  0.00  0.00    +0.000 A 
ATOM     18  C   UNL     1      48.945   6.913  18.410  0.00  0.00    +0.000 A 
ATOM     19  N   UNL     1      48.449   8.168  18.453  0.00  0.00    +0.000 NA
ATOM     20  C   UNL     1      48.283   8.779  17.263  0.00  0.00    +0.000 A 
ATOM     21  C   UNL     1      48.605   8.235  16.017  0.00  0.00    +0.000 A 
ATOM     22  C   UNL     1      49.101   6.925  16.035  0.00  0.00    +0.000 A 
BRANCH  17  26
ATOM     23  C   UNL     1      50.644   2.230  17.340  0.00  0.00    +0.000 A 
ATOM     24  C   UNL     1      51.531   3.221  17.730  0.00  0.00    +0.000 A 
ATOM     25  C   UNL     1      51.095   4.542  17.694  0.00  0.00    +0.000 A 
ATOM     26  C   UNL     1      49.791   4.849  17.279  0.00  0.00    +0.000 A 
ATOM     27  C   UNL     1      48.991   3.763  16.921  0.00  0.00    +0.000 A 
ATOM     28  N   UNL     1      49.384   2.473  16.936  0.00  0.00    +0.000 NA
BRANCH  23  30
ATOM     29  C   UNL     1      52.530   0.878  17.565  0.00  0.00    +0.000 C 
ATOM     30  O   UNL     1      51.117   0.934  17.379  0.00  0.00    +0.000 OA
ENDBRANCH  23  30
ENDBRANCH  17  26
ENDBRANCH   1  21
TORSDOF 5
ENDMDL
MODEL 8
REMARK VINA RESULT:    -6.833      3.865      6.108
REMARK INTER + INTRA:          -8.779
REMARK INTER:                  -8.087
REMARK INTRA:                  -0.692
REMARK UNBOUND:                 0.052
REMARK  Name = 
REMARK  6 active torsions:
REMARK  status: ('A' for Active; 'I' for Inactive)
REMARK    1  A    between atoms: C_1  and  O_2
REMARK    2  A    between atoms: O_2  and  C_3
REMARK    3  A    between atoms: C_6  and  C_7
REMARK    4  A    between atoms: C_11  and  C_12
REMARK    5  A    between atoms: C_12  and  N_13
REMARK    6  A    between atoms: C_17  and  C_18
REMARK                            x       y       z     vdW  Elec       q    Type
REMARK                         _______ _______ _______ _____ _____    ______ ____
ROOT
ATOM      1  C   UNL     1      48.220   8.101  13.246  0.00  0.00    +0.000 C 
ATOM      2  C   UNL     1      49.175   7.886  12.086  0.00  0.00    +0.000 C 
ATOM      3  C   UNL     1      48.907   9.276  12.548  0.00  0.00    +0.000 C 
ENDROOT
BRANCH   1   4
ATOM      4  N   UNL     1      46.778   7.952  13.062  0.00  0.00    +0.000 N 
ATOM      5  C   UNL     1      46.068   6.768  12.907  0.00  0.00    +0.000 A 
ATOM      6  C   UNL     1      46.539   5.513  13.280  0.00  0.00    +0.000 A 
ATOM      7  C   UNL     1      45.771   4.373  12.996  0.00  0.00    +0.000 A 
ATOM      8  C   UNL     1      44.547   4.526  12.347  0.00  0.00    +0.000 A 
ATOM      9  C   UNL     1      44.131   5.815  12.059  0.00  0.00    +0.000 A 
ATOM     10  N   UNL     1      44.858   6.926  12.336  0.00  0.00    +0.000 NA
ATOM     11  H   UNL     1      46.234   8.712  12.663  0.00  0.00    +0.000 HD
BRANCH   8  12
ATOM     12  C   UNL     1      43.708   3.405  11.873  0.00  0.00    +0.000 C 
ATOM     13  N   UNL     1      43.764   2.224  12.553  0.00  0.00    +0.000 N 
ATOM     14  O   UNL     1      42.978   3.529  10.898  0.00  0.00    +0.000 OA
ATOM     15  H   UNL     1      44.168   2.127  13.474  0.00  0.00    +0.000 HD
ATOM     16  H   UNL     1      43.132   1.498  12.236  0.00  0.00    +0.000 HD
ENDBRANCH   8  12
ENDBRANCH   1   4
BRANCH   1  21
ATOM     17  C   UNL     1      49.765   6.703  16.498  0.00  0.00    +0.000 A 
ATOM     18  C   UNL     1      49.389   7.753  17.337  0.00  0.00    +0.000 A 
ATOM     19  N   UNL     1      48.679   8.835  16.953  0.00  0.00    +0.000 NA
ATOM     20  C   UNL     1      48.322   8.876  15.653  0.00  0.00    +0.000 A 
ATOM     21  C   UNL     1      48.649   7.919  14.689  0.00  0.00    +0.000 A 
ATOM     22  C   UNL     1      49.373   6.813  15.151  0.00  0.00    +0.000 A 
BRANCH  17  26
ATOM     23  C   UNL     1      52.000   3.414  17.919  0.00  0.00    +0.000 A 
ATOM     24  C   UNL     1      50.633   3.247  17.770  0.00  0.00    +0.000 A 
ATOM     25  C   UNL     1      49.887   4.327  17.309  0.00  0.00    +0.000 A 
ATOM     26  C   UNL     1      50.512   5.544  17.002  0.00  0.00    +0.000 A 
ATOM     27  C   UNL     1      51.895   5.584  17.185  0.00  0.00    +0.000 A 
ATOM     28  N   UNL     1      52.647   4.560  17.637  0.00  0.00    +0.000 NA
BRANCH  23  30
ATOM     29  C   UNL     1      52.401   1.132  17.665  0.00  0.00    +0.000 C 
ATOM     30  O   UNL     1      52.704   2.324  18.388  0.00  0.00    +0.000 OA
ENDBRANCH  23  30
ENDBRANCH  17  26
ENDBRANCH   1  21
TORSDOF 5
ENDMDL
MODEL 9
REMARK VINA RESULT:    -6.766      3.490      8.821
REMARK INTER + INTRA:          -8.691
REMARK INTER:                  -8.007
REMARK INTRA:                  -0.684
REMARK UNBOUND:                 0.052
REMARK  Name = 
REMARK  6 active torsions:
REMARK  status: ('A' for Active; 'I' for Inactive)
REMARK    1  A    between atoms: C_1  and  O_2
REMARK    2  A    between atoms: O_2  and  C_3
REMARK    3  A    between atoms: C_6  and  C_7
REMARK    4  A    between atoms: C_11  and  C_12
REMARK    5  A    between atoms: C_12  and  N_13
REMARK    6  A    between atoms: C_17  and  C_18
REMARK                            x       y       z     vdW  Elec       q    Type
REMARK                         _______ _______ _______ _____ _____    ______ ____
ROOT
ATOM      1  C   UNL     1      49.848   8.211  14.173  0.00  0.00    +0.000 C 
ATOM      2  C   UNL     1      50.516   9.494  14.631  0.00  0.00    +0.000 C 
ATOM      3  C   UNL     1      50.982   8.851  13.371  0.00  0.00    +0.000 C 
ENDROOT
BRANCH   1   4
ATOM      4  N   UNL     1      50.124   6.944  14.846  0.00  0.00    +0.000 N 
ATOM      5  C   UNL     1      49.712   6.560  16.117  0.00  0.00    +0.000 A 
ATOM      6  C   UNL     1      48.656   7.141  16.811  0.00  0.00    +0.000 A 
ATOM      7  C   UNL     1      48.383   6.731  18.125  0.00  0.00    +0.000 A 
ATOM      8  C   UNL     1      49.178   5.743  18.705  0.00  0.00    +0.000 A 
ATOM      9  C   UNL     1      50.173   5.182  17.924  0.00  0.00    +0.000 A 
ATOM     10  N   UNL     1      50.442   5.561  16.650  0.00  0.00    +0.000 NA
ATOM     11  H   UNL     1      50.943   6.399  14.592  0.00  0.00    +0.000 HD
BRANCH   8  12
ATOM     12  C   UNL     1      49.082   5.318  20.118  0.00  0.00    +0.000 C 
ATOM     13  N   UNL     1      48.665   4.047  20.384  0.00  0.00    +0.000 N 
ATOM     14  O   UNL     1      49.371   6.083  21.029  0.00  0.00    +0.000 OA
ATOM     15  H   UNL     1      48.626   3.314  19.689  0.00  0.00    +0.000 HD
ATOM     16  H   UNL     1      48.670   3.772  21.359  0.00  0.00    +0.000 HD
ENDBRANCH   8  12
ENDBRANCH   1   4
BRANCH   1  21
ATOM     17  C   UNL     1      46.656   7.102  12.302  0.00  0.00    +0.000 A 
ATOM     18  C   UNL     1      46.078   8.366  12.174  0.00  0.00    +0.000 A 
ATOM     19  N   UNL     1      46.630   9.517  12.612  0.00  0.00    +0.000 NA
ATOM     20  C   UNL     1      47.831   9.404  13.216  0.00  0.00    +0.000 A 
ATOM     21  C   UNL     1      48.518   8.210  13.444  0.00  0.00    +0.000 A 
ATOM     22  C   UNL     1      47.901   7.051  12.954  0.00  0.00    +0.000 A 
BRANCH  17  26
ATOM     23  C   UNL     1      44.801   3.594  10.857  0.00  0.00    +0.000 A 
ATOM     24  C   UNL     1      45.071   4.602   9.945  0.00  0.00    +0.000 A 
ATOM     25  C   UNL     1      45.675   5.765  10.413  0.00  0.00    +0.000 A 
ATOM     26  C   UNL     1      46.003   5.899  11.770  0.00  0.00    +0.000 A 
ATOM     27  C   UNL     1      45.689   4.811  12.586  0.00  0.00    +0.000 A 
ATOM     28  N   UNL     1      45.096   3.674  12.167  0.00  0.00    +0.000 NA
BRANCH  23  30
ATOM     29  C   UNL     1      44.704   2.090   9.079  0.00  0.00    +0.000 C 
ATOM     30  O   UNL     1      44.192   2.461  10.357  0.00  0.00    +0.000 OA
ENDBRANCH  23  30
ENDBRANCH  17  26
ENDBRANCH   1  21
TORSDOF 5
ENDMDL
