MODEL 1
REMARK VINA RESULT:    -9.311      0.000      0.000
REMARK INTER + INTRA:         -13.344
REMARK INTER:                 -12.577
REMARK INTRA:                  -0.767
REMARK UNBOUND:                -0.767
REMARK  Name = 
REMARK  7 active torsions:
REMARK  status: ('A' for Active; 'I' for Inactive)
REMARK    1  A    between atoms: C_1  and  O_2
REMARK    2  A    between atoms: O_2  and  C_3
REMARK    3  A    between atoms: C_5  and  N_6
REMARK    4  A    between atoms: N_6  and  C_7
REMARK    5  A    between atoms: C_7  and  C_8
REMARK    6  A    between atoms: C_12  and  C_13
REMARK    7  A    between atoms: C_23  and  C_24
REMARK                            x       y       z     vdW  Elec       q    Type
REMARK                         _______ _______ _______ _____ _____    ______ ____
ROOT
ATOM      1  N   UNL     1      44.061   7.114  12.187  0.00  0.00    +0.000 N 
ATOM      2  H   UNL     1      43.631   7.806  12.785  0.00  0.00    +0.000 HD
ENDROOT
BRANCH   1   5
ATOM      3  C   UNL     1      47.743   7.083  12.126  0.00  0.00    +0.000 A 
ATOM      4  C   UNL     1      46.432   7.454  11.849  0.00  0.00    +0.000 A 
ATOM      5  C   UNL     1      45.368   6.791  12.460  0.00  0.00    +0.000 A 
ATOM      6  N   UNL     1      45.572   5.800  13.347  0.00  0.00    +0.000 NA
ATOM      7  C   UNL     1      46.870   5.465  13.621  0.00  0.00    +0.000 A 
ATOM      8  C   UNL     1      47.970   6.070  13.039  0.00  0.00    +0.000 A 
BRANCH   7   9
ATOM      9  C   UNL     1      47.104   4.367  14.613  0.00  0.00    +0.000 C 
ATOM     10  N   UNL     1      47.072   4.722  15.933  0.00  0.00    +0.000 N 
ATOM     11  O   UNL     1      47.313   3.207  14.277  0.00  0.00    +0.000 OA
ATOM     12  H   UNL     1      46.895   5.687  16.194  0.00  0.00    +0.000 HD
ATOM     13  H   UNL     1      47.221   4.015  16.635  0.00  0.00    +0.000 HD
ENDBRANCH   7   9
BRANCH   3  15
ATOM     14  C   UNL     1      49.955   7.892  12.442  0.00  0.00    +0.000 C 
ATOM     15  O   UNL     1      48.861   7.637  11.566  0.00  0.00    +0.000 OA
ENDBRANCH   3  15
ENDBRANCH   1   5
BRANCH   1  16
ATOM     16  C   UNL     1      43.276   6.488  11.132  0.00  0.00    +0.000 C 
BRANCH  16  17
ATOM     17  C   UNL     1      43.558   5.007  10.966  0.00  0.00    +0.000 A 
ATOM     18  N   UNL     1      42.977   4.157  11.835  0.00  0.00    +0.000 NA
ATOM     19  C   UNL     1      43.222   2.852  11.648  0.00  0.00    +0.000 A 
ATOM     20  C   UNL     1      44.014   2.368  10.636  0.00  0.00    +0.000 A 
ATOM     21  C   UNL     1      44.578   3.302   9.787  0.00  0.00    +0.000 A 
ATOM     22  N   UNL     1      44.361   4.626   9.950  0.00  0.00    +0.000 NA
BRANCH  21  23
ATOM     23  C   UNL     1      45.493   2.926   8.690  0.00  0.00    +0.000 A 
ATOM     24  C   UNL     1      45.932   3.865   7.732  0.00  0.00    +0.000 A 
ATOM     25  C   UNL     1      46.730   3.480   6.648  0.00  0.00    +0.000 A 
ATOM     26  C   UNL     1      47.114   2.154   6.519  0.00  0.00    +0.000 A 
ATOM     27  F   UNL     1      47.857   1.785   5.466  0.00  0.00    +0.000 F 
ATOM     28  C   UNL     1      46.727   1.220   7.466  0.00  0.00    +0.000 A 
ATOM     29  F   UNL     1      47.099  -0.061   7.342  0.00  0.00    +0.000 F 
ATOM     30  C   UNL     1      45.932   1.597   8.547  0.00  0.00    +0.000 A 
ENDBRANCH  21  23
ENDBRANCH  16  17
ENDBRANCH   1  16
TORSDOF 6
ENDMDL
MODEL 2
REMARK VINA RESULT:    -8.338      1.800      2.099
REMARK INTER + INTRA:         -12.029
REMARK INTER:                 -11.240
REMARK INTRA:                  -0.789
REMARK UNBOUND:                -0.767
REMARK  Name = 
REMARK  7 active torsions:
REMARK  status: ('A' for Active; 'I' for Inactive)
REMARK    1  A    between atoms: C_1  and  O_2
REMARK    2  A    between atoms: O_2  and  C_3
REMARK    3  A    between atoms: C_5  and  N_6
REMARK    4  A    between atoms: N_6  and  C_7
REMARK    5  A    between atoms: C_7  and  C_8
REMARK    6  A    between atoms: C_12  and  C_13
REMARK    7  A    between atoms: C_23  and  C_24
REMARK                            x       y       z     vdW  Elec       q    Type
REMARK                         _______ _______ _______ _____ _____    ______ ____
ROOT
ATOM      1  N   UNL     1      44.271   6.984  12.564  0.00  0.00    +0.000 N 
ATOM      2  H   UNL     1      43.894   6.736  13.468  0.00  0.00    +0.000 HD
ENDROOT
BRANCH   1   5
ATOM      3  C   UNL     1      46.657   9.762  12.179  0.00  0.00    +0.000 A 
ATOM      4  C   UNL     1      45.457   9.060  12.199  0.00  0.00    +0.000 A 
ATOM      5  C   UNL     1      45.435   7.713  12.561  0.00  0.00    +0.000 A 
ATOM      6  N   UNL     1      46.556   7.063  12.922  0.00  0.00    +0.000 NA
ATOM      7  C   UNL     1      47.722   7.779  12.916  0.00  0.00    +0.000 A 
ATOM      8  C   UNL     1      47.817   9.111  12.553  0.00  0.00    +0.000 A 
BRANCH   7   9
ATOM      9  C   UNL     1      48.973   7.062  13.326  0.00  0.00    +0.000 C 
ATOM     10  N   UNL     1      50.068   7.243  12.527  0.00  0.00    +0.000 N 
ATOM     11  O   UNL     1      49.028   6.348  14.320  0.00  0.00    +0.000 OA
ATOM     12  H   UNL     1      50.005   7.839  11.709  0.00  0.00    +0.000 HD
ATOM     13  H   UNL     1      50.931   6.782  12.766  0.00  0.00    +0.000 HD
ENDBRANCH   7   9
BRANCH   3  15
ATOM     14  C   UNL     1      47.912  11.378  10.969  0.00  0.00    +0.000 C 
ATOM     15  O   UNL     1      46.806  11.071  11.812  0.00  0.00    +0.000 OA
ENDBRANCH   3  15
ENDBRANCH   1   5
BRANCH   1  16
ATOM     16  C   UNL     1      43.600   6.525  11.355  0.00  0.00    +0.000 C 
BRANCH  16  17
ATOM     17  C   UNL     1      43.769   5.039  11.096  0.00  0.00    +0.000 A 
ATOM     18  N   UNL     1      43.117   4.184  11.906  0.00  0.00    +0.000 NA
ATOM     19  C   UNL     1      43.262   2.878  11.638  0.00  0.00    +0.000 A 
ATOM     20  C   UNL     1      44.024   2.399  10.601  0.00  0.00    +0.000 A 
ATOM     21  C   UNL     1      44.667   3.339   9.816  0.00  0.00    +0.000 A 
ATOM     22  N   UNL     1      44.551   4.663  10.062  0.00  0.00    +0.000 NA
BRANCH  21  23
ATOM     23  C   UNL     1      45.562   2.964   8.701  0.00  0.00    +0.000 A 
ATOM     24  C   UNL     1      46.026   3.914   7.768  0.00  0.00    +0.000 A 
ATOM     25  C   UNL     1      46.803   3.534   6.667  0.00  0.00    +0.000 A 
ATOM     26  C   UNL     1      47.141   2.200   6.497  0.00  0.00    +0.000 A 
ATOM     27  F   UNL     1      47.864   1.836   5.429  0.00  0.00    +0.000 F 
ATOM     28  C   UNL     1      46.729   1.252   7.421  0.00  0.00    +0.000 A 
ATOM     29  F   UNL     1      47.056  -0.037   7.258  0.00  0.00    +0.000 F 
ATOM     30  C   UNL     1      45.954   1.625   8.518  0.00  0.00    +0.000 A 
ENDBRANCH  21  23
ENDBRANCH  16  17
ENDBRANCH   1  16
TORSDOF 6
ENDMDL
MODEL 3
REMARK VINA RESULT:    -8.053      2.305      3.063
REMARK INTER + INTRA:         -11.645
REMARK INTER:                 -10.923
REMARK INTRA:                  -0.723
REMARK UNBOUND:                -0.767
REMARK  Name = 
REMARK  7 active torsions:
REMARK  status: ('A' for Active; 'I' for Inactive)
REMARK    1  A    between atoms: C_1  and  O_2
REMARK    2  A    between atoms: O_2  and  C_3
REMARK    3  A    between atoms: C_5  and  N_6
REMARK    4  A    between atoms: N_6  and  C_7
REMARK    5  A    between atoms: C_7  and  C_8
REMARK    6  A    between atoms: C_12  and  C_13
REMARK    7  A    between atoms: C_23  and  C_24
REMARK                            x       y       z     vdW  Elec       q    Type
REMARK                         _______ _______ _______ _____ _____    ______ ____
ROOT
ATOM      1  N   UNL     1      47.381   6.381  12.999  0.00  0.00    +0.000 N 
ATOM      2  H   UNL     1      48.018   6.154  12.248  0.00  0.00    +0.000 HD
ENDROOT
BRANCH   1   5
ATOM      3  C   UNL     1      49.038   6.823  16.258  0.00  0.00    +0.000 A 
ATOM      4  C   UNL     1      48.575   7.099  14.976  0.00  0.00    +0.000 A 
ATOM      5  C   UNL     1      47.829   6.151  14.277  0.00  0.00    +0.000 A 
ATOM      6  N   UNL     1      47.517   4.960  14.821  0.00  0.00    +0.000 NA
ATOM      7  C   UNL     1      47.965   4.718  16.091  0.00  0.00    +0.000 A 
ATOM      8  C   UNL     1      48.721   5.607  16.834  0.00  0.00    +0.000 A 
BRANCH   7   9
ATOM      9  C   UNL     1      47.613   3.397  16.705  0.00  0.00    +0.000 C 
ATOM     10  N   UNL     1      48.548   2.405  16.594  0.00  0.00    +0.000 N 
ATOM     11  O   UNL     1      46.548   3.198  17.279  0.00  0.00    +0.000 OA
ATOM     12  H   UNL     1      49.425   2.587  16.118  0.00  0.00    +0.000 HD
ATOM     13  H   UNL     1      48.354   1.501  16.996  0.00  0.00    +0.000 HD
ENDBRANCH   7   9
BRANCH   3  15
ATOM     14  C   UNL     1      49.128   8.369  18.061  0.00  0.00    +0.000 C 
ATOM     15  O   UNL     1      49.801   7.659  17.025  0.00  0.00    +0.000 OA
ENDBRANCH   3  15
ENDBRANCH   1   5
BRANCH   1  16
ATOM     16  C   UNL     1      46.082   6.962  12.690  0.00  0.00    +0.000 C 
BRANCH  16  17
ATOM     17  C   UNL     1      45.114   5.979  12.059  0.00  0.00    +0.000 A 
ATOM     18  N   UNL     1      43.872   5.905  12.573  0.00  0.00    +0.000 NA
ATOM     19  C   UNL     1      43.029   5.048  11.979  0.00  0.00    +0.000 A 
ATOM     20  C   UNL     1      43.375   4.272  10.900  0.00  0.00    +0.000 A 
ATOM     21  C   UNL     1      44.670   4.401  10.432  0.00  0.00    +0.000 A 
ATOM     22  N   UNL     1      45.549   5.248  11.011  0.00  0.00    +0.000 NA
BRANCH  21  23
ATOM     23  C   UNL     1      45.193   3.589   9.314  0.00  0.00    +0.000 A 
ATOM     24  C   UNL     1      45.234   2.180   9.372  0.00  0.00    +0.000 A 
ATOM     25  C   UNL     1      45.809   1.425   8.343  0.00  0.00    +0.000 A 
ATOM     26  C   UNL     1      46.335   2.070   7.234  0.00  0.00    +0.000 A 
ATOM     27  F   UNL     1      46.907   1.345   6.263  0.00  0.00    +0.000 F 
ATOM     28  C   UNL     1      46.274   3.451   7.135  0.00  0.00    +0.000 A 
ATOM     29  F   UNL     1      46.780   4.074   6.063  0.00  0.00    +0.000 F 
ATOM     30  C   UNL     1      45.702   4.208   8.156  0.00  0.00    +0.000 A 
ENDBRANCH  21  23
ENDBRANCH  16  17
ENDBRANCH   1  16
TORSDOF 6
ENDMDL
MODEL 4
REMARK VINA RESULT:    -8.007      2.746      4.038
REMARK INTER + INTRA:         -11.582
REMARK INTER:                 -11.026
REMARK INTRA:                  -0.556
REMARK UNBOUND:                -0.767
REMARK  Name = 
REMARK  7 active torsions:
REMARK  status: ('A' for Active; 'I' for Inactive)
REMARK    1  A    between atoms: C_1  and  O_2
REMARK    2  A    between atoms: O_2  and  C_3
REMARK    3  A    between atoms: C_5  and  N_6
REMARK    4  A    between atoms: N_6  and  C_7
REMARK    5  A    between atoms: C_7  and  C_8
REMARK    6  A    between atoms: C_12  and  C_13
REMARK    7  A    between atoms: C_23  and  C_24
REMARK                            x       y       z     vdW  Elec       q    Type
REMARK                         _______ _______ _______ _____ _____    ______ ____
ROOT
ATOM      1  N   UNL     1      46.469   3.955  14.720  0.00  0.00    +0.000 N 
ATOM      2  H   UNL     1      46.201   3.053  14.351  0.00  0.00    +0.000 HD
ENDROOT
BRANCH   1   5
ATOM      3  C   UNL     1      47.705   4.745  18.098  0.00  0.00    +0.000 A 
ATOM      4  C   UNL     1      46.902   4.752  16.962  0.00  0.00    +0.000 A 
ATOM      5  C   UNL     1      47.225   3.951  15.866  0.00  0.00    +0.000 A 
ATOM      6  N   UNL     1      48.296   3.137  15.881  0.00  0.00    +0.000 NA
ATOM      7  C   UNL     1      49.060   3.130  17.016  0.00  0.00    +0.000 A 
ATOM      8  C   UNL     1      48.806   3.910  18.131  0.00  0.00    +0.000 A 
BRANCH   7   9
ATOM      9  C   UNL     1      50.250   2.220  17.040  0.00  0.00    +0.000 C 
ATOM     10  N   UNL     1      51.067   2.315  18.132  0.00  0.00    +0.000 N 
ATOM     11  O   UNL     1      50.492   1.426  16.138  0.00  0.00    +0.000 OA
ATOM     12  H   UNL     1      50.851   2.976  18.871  0.00  0.00    +0.000 HD
ATOM     13  H   UNL     1      51.878   1.719  18.191  0.00  0.00    +0.000 HD
ENDBRANCH   7   9
BRANCH   3  15
ATOM     14  C   UNL     1      48.625   5.671  20.084  0.00  0.00    +0.000 C 
ATOM     15  O   UNL     1      47.507   5.507  19.215  0.00  0.00    +0.000 OA
ENDBRANCH   3  15
ENDBRANCH   1   5
BRANCH   1  16
ATOM     16  C   UNL     1      46.085   5.166  14.007  0.00  0.00    +0.000 C 
BRANCH  16  17
ATOM     17  C   UNL     1      45.135   4.912  12.852  0.00  0.00    +0.000 A 
ATOM     18  N   UNL     1      43.838   5.228  13.028  0.00  0.00    +0.000 NA
ATOM     19  C   UNL     1      43.024   5.019  11.982  0.00  0.00    +0.000 A 
ATOM     20  C   UNL     1      43.454   4.514  10.779  0.00  0.00    +0.000 A 
ATOM     21  C   UNL     1      44.799   4.210  10.678  0.00  0.00    +0.000 A 
ATOM     22  N   UNL     1      45.646   4.400  11.713  0.00  0.00    +0.000 NA
BRANCH  21  23
ATOM     23  C   UNL     1      45.387   3.611   9.461  0.00  0.00    +0.000 A 
ATOM     24  C   UNL     1      45.829   4.403   8.381  0.00  0.00    +0.000 A 
ATOM     25  C   UNL     1      46.306   3.822   7.199  0.00  0.00    +0.000 A 
ATOM     26  C   UNL     1      46.363   2.441   7.092  0.00  0.00    +0.000 A 
ATOM     27  F   UNL     1      46.796   1.888   5.950  0.00  0.00    +0.000 F 
ATOM     28  C   UNL     1      45.970   1.641   8.153  0.00  0.00    +0.000 A 
ATOM     29  F   UNL     1      46.026   0.306   8.050  0.00  0.00    +0.000 F 
ATOM     30  C   UNL     1      45.494   2.213   9.331  0.00  0.00    +0.000 A 
ENDBRANCH  21  23
ENDBRANCH  16  17
ENDBRANCH   1  16
TORSDOF 6
ENDMDL
MODEL 5
REMARK VINA RESULT:    -7.831      2.324      3.681
REMARK INTER + INTRA:         -11.345
REMARK INTER:                 -10.639
REMARK INTRA:                  -0.705
REMARK UNBOUND:                -0.767
REMARK  Name = 
REMARK  7 active torsions:
REMARK  status: ('A' for Active; 'I' for Inactive)
REMARK    1  A    between atoms: C_1  and  O_2
REMARK    2  A    between atoms: O_2  and  C_3
REMARK    3  A    between atoms: C_5  and  N_6
REMARK    4  A    between atoms: N_6  and  C_7
REMARK    5  A    between atoms: C_7  and  C_8
REMARK    6  A    between atoms: C_12  and  C_13
REMARK    7  A    between atoms: C_23  and  C_24
REMARK                            x       y       z     vdW  Elec       q    Type
REMARK                         _______ _______ _______ _____ _____    ______ ____
ROOT
ATOM      1  N   UNL     1      47.349   6.359  12.888  0.00  0.00    +0.000 N 
ATOM      2  H   UNL     1      48.058   6.252  12.175  0.00  0.00    +0.000 HD
ENDROOT
BRANCH   1   5
ATOM      3  C   UNL     1      47.319   4.454  16.040  0.00  0.00    +0.000 A 
ATOM      4  C   UNL     1      46.987   4.860  14.752  0.00  0.00    +0.000 A 
ATOM      5  C   UNL     1      47.670   5.915  14.147  0.00  0.00    +0.000 A 
ATOM      6  N   UNL     1      48.677   6.552  14.774  0.00  0.00    +0.000 NA
ATOM      7  C   UNL     1      49.001   6.122  16.031  0.00  0.00    +0.000 A 
ATOM      8  C   UNL     1      48.355   5.093  16.694  0.00  0.00    +0.000 A 
BRANCH   7   9
ATOM      9  C   UNL     1      50.127   6.822  16.730  0.00  0.00    +0.000 C 
ATOM     10  N   UNL     1      51.391   6.503  16.318  0.00  0.00    +0.000 N 
ATOM     11  O   UNL     1      49.942   7.640  17.624  0.00  0.00    +0.000 OA
ATOM     12  H   UNL     1      51.526   5.826  15.575  0.00  0.00    +0.000 HD
ATOM     13  H   UNL     1      52.179   6.953  16.759  0.00  0.00    +0.000 HD
ENDBRANCH   7   9
BRANCH   3  15
ATOM     14  C   UNL     1      47.501   2.748  17.685  0.00  0.00    +0.000 C 
ATOM     15  O   UNL     1      46.701   3.457  16.743  0.00  0.00    +0.000 OA
ENDBRANCH   3  15
ENDBRANCH   1   5
BRANCH   1  16
ATOM     16  C   UNL     1      46.085   7.000  12.554  0.00  0.00    +0.000 C 
BRANCH  16  17
ATOM     17  C   UNL     1      45.100   6.073  11.865  0.00  0.00    +0.000 A 
ATOM     18  N   UNL     1      43.820   6.097  12.282  0.00  0.00    +0.000 NA
ATOM     19  C   UNL     1      42.967   5.288  11.638  0.00  0.00    +0.000 A 
ATOM     20  C   UNL     1      43.338   4.467  10.602  0.00  0.00    +0.000 A 
ATOM     21  C   UNL     1      44.671   4.495  10.233  0.00  0.00    +0.000 A 
ATOM     22  N   UNL     1      45.562   5.292  10.865  0.00  0.00    +0.000 NA
BRANCH  21  23
ATOM     23  C   UNL     1      45.220   3.625   9.172  0.00  0.00    +0.000 A 
ATOM     24  C   UNL     1      45.275   2.223   9.315  0.00  0.00    +0.000 A 
ATOM     25  C   UNL     1      45.874   1.415   8.340  0.00  0.00    +0.000 A 
ATOM     26  C   UNL     1      46.408   2.000   7.202  0.00  0.00    +0.000 A 
ATOM     27  F   UNL     1      47.002   1.226   6.283  0.00  0.00    +0.000 F 
ATOM     28  C   UNL     1      46.333   3.372   7.020  0.00  0.00    +0.000 A 
ATOM     29  F   UNL     1      46.847   3.937   5.920  0.00  0.00    +0.000 F 
ATOM     30  C   UNL     1      45.738   4.181   7.987  0.00  0.00    +0.000 A 
ENDBRANCH  21  23
ENDBRANCH  16  17
ENDBRANCH   1  16
TORSDOF 6
ENDMDL
MODEL 6
REMARK VINA RESULT:    -7.694      1.308      1.858
REMARK INTER + INTRA:         -11.160
REMARK INTER:                 -10.333
REMARK INTRA:                  -0.827
REMARK UNBOUND:                -0.767
REMARK  Name = 
REMARK  7 active torsions:
REMARK  status: ('A' for Active; 'I' for Inactive)
REMARK    1  A    between atoms: C_1  and  O_2
REMARK    2  A    between atoms: O_2  and  C_3
REMARK    3  A    between atoms: C_5  and  N_6
REMARK    4  A    between atoms: N_6  and  C_7
REMARK    5  A    between atoms: C_7  and  C_8
REMARK    6  A    between atoms: C_12  and  C_13
REMARK    7  A    between atoms: C_23  and  C_24
REMARK                            x       y       z     vdW  Elec       q    Type
REMARK                         _______ _______ _______ _____ _____    ______ ____
ROOT
ATOM      1  N   UNL     1      45.829   6.797  11.453  0.00  0.00    +0.000 N 
ATOM      2  H   UNL     1      45.854   7.152  10.507  0.00  0.00    +0.000 HD
ENDROOT
BRANCH   1   5
ATOM      3  C   UNL     1      49.169   7.895  12.549  0.00  0.00    +0.000 A 
ATOM      4  C   UNL     1      48.016   7.776  11.780  0.00  0.00    +0.000 A 
ATOM      5  C   UNL     1      46.968   6.958  12.202  0.00  0.00    +0.000 A 
ATOM      6  N   UNL     1      47.026   6.285  13.366  0.00  0.00    +0.000 NA
ATOM      7  C   UNL     1      48.160   6.433  14.117  0.00  0.00    +0.000 A 
ATOM      8  C   UNL     1      49.242   7.214  13.749  0.00  0.00    +0.000 A 
BRANCH   7   9
ATOM      9  C   UNL     1      48.227   5.692  15.418  0.00  0.00    +0.000 C 
ATOM     10  N   UNL     1      47.101   5.010  15.788  0.00  0.00    +0.000 N 
ATOM     11  O   UNL     1      49.229   5.686  16.123  0.00  0.00    +0.000 OA
ATOM     12  H   UNL     1      46.281   5.023  15.191  0.00  0.00    +0.000 HD
ATOM     13  H   UNL     1      47.102   4.495  16.655  0.00  0.00    +0.000 HD
ENDBRANCH   7   9
BRANCH   3  15
ATOM     14  C   UNL     1      51.396   8.527  13.087  0.00  0.00    +0.000 C 
ATOM     15  O   UNL     1      50.269   8.638  12.222  0.00  0.00    +0.000 OA
ENDBRANCH   3  15
ENDBRANCH   1   5
BRANCH   1  16
ATOM     16  C   UNL     1      44.604   6.195  11.962  0.00  0.00    +0.000 C 
BRANCH  16  17
ATOM     17  C   UNL     1      44.367   4.785  11.454  0.00  0.00    +0.000 A 
ATOM     18  N   UNL     1      43.502   4.010  12.137  0.00  0.00    +0.000 NA
ATOM     19  C   UNL     1      43.291   2.779  11.651  0.00  0.00    +0.000 A 
ATOM     20  C   UNL     1      43.902   2.297  10.519  0.00  0.00    +0.000 A 
ATOM     21  C   UNL     1      44.780   3.150   9.876  0.00  0.00    +0.000 A 
ATOM     22  N   UNL     1      45.024   4.395  10.342  0.00  0.00    +0.000 NA
BRANCH  21  23
ATOM     23  C   UNL     1      45.547   2.745   8.680  0.00  0.00    +0.000 A 
ATOM     24  C   UNL     1      46.077   1.444   8.541  0.00  0.00    +0.000 A 
ATOM     25  C   UNL     1      46.873   1.096   7.443  0.00  0.00    +0.000 A 
ATOM     26  C   UNL     1      47.135   2.039   6.462  0.00  0.00    +0.000 A 
ATOM     27  F   UNL     1      47.918   1.710   5.426  0.00  0.00    +0.000 F 
ATOM     28  C   UNL     1      46.595   3.312   6.556  0.00  0.00    +0.000 A 
ATOM     29  F   UNL     1      46.846   4.224   5.607  0.00  0.00    +0.000 F 
ATOM     30  C   UNL     1      45.802   3.665   7.646  0.00  0.00    +0.000 A 
ENDBRANCH  21  23
ENDBRANCH  16  17
ENDBRANCH   1  16
TORSDOF 6
ENDMDL
MODEL 7
REMARK VINA RESULT:    -7.597      1.845      3.226
REMARK INTER + INTRA:         -11.028
REMARK INTER:                 -10.247
REMARK INTRA:                  -0.780
REMARK UNBOUND:                -0.767
REMARK  Name = 
REMARK  7 active torsions:
REMARK  status: ('A' for Active; 'I' for Inactive)
REMARK    1  A    between atoms: C_1  and  O_2
REMARK    2  A    between atoms: O_2  and  C_3
REMARK    3  A    between atoms: C_5  and  N_6
REMARK    4  A    between atoms: N_6  and  C_7
REMARK    5  A    between atoms: C_7  and  C_8
REMARK    6  A    between atoms: C_12  and  C_13
REMARK    7  A    between atoms: C_23  and  C_24
REMARK                            x       y       z     vdW  Elec       q    Type
REMARK                         _______ _______ _______ _____ _____    ______ ____
ROOT
ATOM      1  N   UNL     1      45.317   6.284  13.516  0.00  0.00    +0.000 N 
ATOM      2  H   UNL     1      44.461   6.467  14.022  0.00  0.00    +0.000 HD
ENDROOT
BRANCH   1   5
ATOM      3  C   UNL     1      47.962   8.566  12.352  0.00  0.00    +0.000 A 
ATOM      4  C   UNL     1      47.346   7.438  12.882  0.00  0.00    +0.000 A 
ATOM      5  C   UNL     1      45.956   7.371  12.973  0.00  0.00    +0.000 A 
ATOM      6  N   UNL     1      45.173   8.375  12.534  0.00  0.00    +0.000 NA
ATOM      7  C   UNL     1      45.800   9.466  11.998  0.00  0.00    +0.000 A 
ATOM      8  C   UNL     1      47.173   9.603  11.892  0.00  0.00    +0.000 A 
BRANCH   7   9
ATOM      9  C   UNL     1      44.933  10.583  11.501  0.00  0.00    +0.000 C 
ATOM     10  N   UNL     1      43.717  10.727  12.109  0.00  0.00    +0.000 N 
ATOM     11  O   UNL     1      45.280  11.336  10.599  0.00  0.00    +0.000 OA
ATOM     12  H   UNL     1      43.446  10.095  12.856  0.00  0.00    +0.000 HD
ATOM     13  H   UNL     1      43.102  11.467  11.808  0.00  0.00    +0.000 HD
ENDBRANCH   7   9
BRANCH   3  15
ATOM     14  C   UNL     1      50.058   7.707  11.631  0.00  0.00    +0.000 C 
ATOM     15  O   UNL     1      49.312   8.756  12.242  0.00  0.00    +0.000 OA
ENDBRANCH   3  15
ENDBRANCH   1   5
BRANCH   1  16
ATOM     16  C   UNL     1      45.826   4.922  13.436  0.00  0.00    +0.000 C 
BRANCH  16  17
ATOM     17  C   UNL     1      45.098   4.062  12.420  0.00  0.00    +0.000 A 
ATOM     18  N   UNL     1      43.927   3.511  12.790  0.00  0.00    +0.000 NA
ATOM     19  C   UNL     1      43.292   2.778  11.864  0.00  0.00    +0.000 A 
ATOM     20  C   UNL     1      43.775   2.579  10.594  0.00  0.00    +0.000 A 
ATOM     21  C   UNL     1      44.986   3.175  10.290  0.00  0.00    +0.000 A 
ATOM     22  N   UNL     1      45.659   3.913  11.201  0.00  0.00    +0.000 NA
BRANCH  21  23
ATOM     23  C   UNL     1      45.649   3.001   8.981  0.00  0.00    +0.000 A 
ATOM     24  C   UNL     1      45.941   4.098   8.143  0.00  0.00    +0.000 A 
ATOM     25  C   UNL     1      46.491   3.914   6.869  0.00  0.00    +0.000 A 
ATOM     26  C   UNL     1      46.773   2.631   6.424  0.00  0.00    +0.000 A 
ATOM     27  F   UNL     1      47.277   2.458   5.195  0.00  0.00    +0.000 F 
ATOM     28  C   UNL     1      46.531   1.540   7.243  0.00  0.00    +0.000 A 
ATOM     29  F   UNL     1      46.805   0.301   6.815  0.00  0.00    +0.000 F 
ATOM     30  C   UNL     1      45.983   1.716   8.513  0.00  0.00    +0.000 A 
ENDBRANCH  21  23
ENDBRANCH  16  17
ENDBRANCH   1  16
TORSDOF 6
ENDMDL
MODEL 8
REMARK VINA RESULT:    -7.594      2.723      4.322
REMARK INTER + INTRA:         -11.025
REMARK INTER:                 -10.461
REMARK INTRA:                  -0.564
REMARK UNBOUND:                -0.767
REMARK  Name = 
REMARK  7 active torsions:
REMARK  status: ('A' for Active; 'I' for Inactive)
REMARK    1  A    between atoms: C_1  and  O_2
REMARK    2  A    between atoms: O_2  and  C_3
REMARK    3  A    between atoms: C_5  and  N_6
REMARK    4  A    between atoms: N_6  and  C_7
REMARK    5  A    between atoms: C_7  and  C_8
REMARK    6  A    between atoms: C_12  and  C_13
REMARK    7  A    between atoms: C_23  and  C_24
REMARK                            x       y       z     vdW  Elec       q    Type
REMARK                         _______ _______ _______ _____ _____    ______ ____
ROOT
ATOM      1  N   UNL     1      46.373   4.034  14.865  0.00  0.00    +0.000 N 
ATOM      2  H   UNL     1      45.790   3.229  14.683  0.00  0.00    +0.000 HD
ENDROOT
BRANCH   1   5
ATOM      3  C   UNL     1      49.113   2.669  16.912  0.00  0.00    +0.000 A 
ATOM      4  C   UNL     1      48.177   2.792  15.891  0.00  0.00    +0.000 A 
ATOM      5  C   UNL     1      47.326   3.896  15.844  0.00  0.00    +0.000 A 
ATOM      6  N   UNL     1      47.399   4.880  16.759  0.00  0.00    +0.000 NA
ATOM      7  C   UNL     1      48.341   4.749  17.743  0.00  0.00    +0.000 A 
ATOM      8  C   UNL     1      49.204   3.673  17.857  0.00  0.00    +0.000 A 
BRANCH   7   9
ATOM      9  C   UNL     1      48.431   5.846  18.760  0.00  0.00    +0.000 C 
ATOM     10  N   UNL     1      47.333   6.651  18.887  0.00  0.00    +0.000 N 
ATOM     11  O   UNL     1      49.428   6.025  19.451  0.00  0.00    +0.000 OA
ATOM     12  H   UNL     1      46.516   6.487  18.309  0.00  0.00    +0.000 HD
ATOM     13  H   UNL     1      47.349   7.400  19.561  0.00  0.00    +0.000 HD
ENDBRANCH   7   9
BRANCH   3  15
ATOM     14  C   UNL     1      51.317   1.944  17.429  0.00  0.00    +0.000 C 
ATOM     15  O   UNL     1      49.974   1.620  17.079  0.00  0.00    +0.000 OA
ENDBRANCH   3  15
ENDBRANCH   1   5
BRANCH   1  16
ATOM     16  C   UNL     1      46.198   5.242  14.070  0.00  0.00    +0.000 C 
BRANCH  16  17
ATOM     17  C   UNL     1      45.194   5.084  12.943  0.00  0.00    +0.000 A 
ATOM     18  N   UNL     1      43.961   5.592  13.126  0.00  0.00    +0.000 NA
ATOM     19  C   UNL     1      43.103   5.462  12.104  0.00  0.00    +0.000 A 
ATOM     20  C   UNL     1      43.426   4.853  10.917  0.00  0.00    +0.000 A 
ATOM     21  C   UNL     1      44.711   4.351  10.806  0.00  0.00    +0.000 A 
ATOM     22  N   UNL     1      45.600   4.457  11.818  0.00  0.00    +0.000 NA
BRANCH  21  23
ATOM     23  C   UNL     1      45.177   3.624   9.607  0.00  0.00    +0.000 A 
ATOM     24  C   UNL     1      45.160   2.215   9.538  0.00  0.00    +0.000 A 
ATOM     25  C   UNL     1      45.683   1.535   8.432  0.00  0.00    +0.000 A 
ATOM     26  C   UNL     1      46.213   2.256   7.373  0.00  0.00    +0.000 A 
ATOM     27  F   UNL     1      46.735   1.600   6.327  0.00  0.00    +0.000 F 
ATOM     28  C   UNL     1      46.207   3.642   7.400  0.00  0.00    +0.000 A 
ATOM     29  F   UNL     1      46.717   4.339   6.377  0.00  0.00    +0.000 F 
ATOM     30  C   UNL     1      45.688   4.325   8.499  0.00  0.00    +0.000 A 
ENDBRANCH  21  23
ENDBRANCH  16  17
ENDBRANCH   1  16
TORSDOF 6
ENDMDL
MODEL 9
REMARK VINA RESULT:    -7.571      2.424      3.721
REMARK INTER + INTRA:         -10.994
REMARK INTER:                 -10.452
REMARK INTRA:                  -0.542
REMARK UNBOUND:                -0.767
REMARK  Name = 
REMARK  7 active torsions:
REMARK  status: ('A' for Active; 'I' for Inactive)
REMARK    1  A    between atoms: C_1  and  O_2
REMARK    2  A    between atoms: O_2  and  C_3
REMARK    3  A    between atoms: C_5  and  N_6
REMARK    4  A    between atoms: N_6  and  C_7
REMARK    5  A    between atoms: C_7  and  C_8
REMARK    6  A    between atoms: C_12  and  C_13
REMARK    7  A    between atoms: C_23  and  C_24
REMARK                            x       y       z     vdW  Elec       q    Type
REMARK                         _______ _______ _______ _____ _____    ______ ____
ROOT
ATOM      1  N   UNL     1      46.535   4.155  14.482  0.00  0.00    +0.000 N 
ATOM      2  H   UNL     1      46.471   3.146  14.502  0.00  0.00    +0.000 HD
ENDROOT
BRANCH   1   5
ATOM      3  C   UNL     1      48.597   4.842  17.455  0.00  0.00    +0.000 A 
ATOM      4  C   UNL     1      47.688   4.218  16.607  0.00  0.00    +0.000 A 
ATOM      5  C   UNL     1      47.446   4.730  15.333  0.00  0.00    +0.000 A 
ATOM      6  N   UNL     1      48.095   5.819  14.878  0.00  0.00    +0.000 NA
ATOM      7  C   UNL     1      49.000   6.404  15.720  0.00  0.00    +0.000 A 
ATOM      8  C   UNL     1      49.275   5.957  17.000  0.00  0.00    +0.000 A 
BRANCH   7   9
ATOM      9  C   UNL     1      49.730   7.611  15.215  0.00  0.00    +0.000 C 
ATOM     10  N   UNL     1      51.033   7.424  14.845  0.00  0.00    +0.000 N 
ATOM     11  O   UNL     1      49.203   8.714  15.131  0.00  0.00    +0.000 OA
ATOM     12  H   UNL     1      51.453   6.503  14.919  0.00  0.00    +0.000 HD
ATOM     13  H   UNL     1      51.562   8.208  14.496  0.00  0.00    +0.000 HD
ENDBRANCH   7   9
BRANCH   3  15
ATOM     14  C   UNL     1      48.265   5.177  19.784  0.00  0.00    +0.000 C 
ATOM     15  O   UNL     1      48.892   4.450  18.731  0.00  0.00    +0.000 OA
ENDBRANCH   3  15
ENDBRANCH   1   5
BRANCH   1  16
ATOM     16  C   UNL     1      45.712   4.909  13.547  0.00  0.00    +0.000 C 
BRANCH  16  17
ATOM     17  C   UNL     1      45.002   4.038  12.527  0.00  0.00    +0.000 A 
ATOM     18  N   UNL     1      43.846   3.456  12.897  0.00  0.00    +0.000 NA
ATOM     19  C   UNL     1      43.226   2.714  11.968  0.00  0.00    +0.000 A 
ATOM     20  C   UNL     1      43.711   2.535  10.696  0.00  0.00    +0.000 A 
ATOM     21  C   UNL     1      44.906   3.161  10.393  0.00  0.00    +0.000 A 
ATOM     22  N   UNL     1      45.563   3.910  11.306  0.00  0.00    +0.000 NA
BRANCH  21  23
ATOM     23  C   UNL     1      45.569   3.012   9.081  0.00  0.00    +0.000 A 
ATOM     24  C   UNL     1      45.831   4.121   8.248  0.00  0.00    +0.000 A 
ATOM     25  C   UNL     1      46.382   3.958   6.972  0.00  0.00    +0.000 A 
ATOM     26  C   UNL     1      46.695   2.686   6.519  0.00  0.00    +0.000 A 
ATOM     27  F   UNL     1      47.200   2.532   5.287  0.00  0.00    +0.000 F 
ATOM     28  C   UNL     1      46.483   1.583   7.332  0.00  0.00    +0.000 A 
ATOM     29  F   UNL     1      46.787   0.354   6.896  0.00  0.00    +0.000 F 
ATOM     30  C   UNL     1      45.934   1.739   8.604  0.00  0.00    +0.000 A 
ENDBRANCH  21  23
ENDBRANCH  16  17
ENDBRANCH   1  16
TORSDOF 6
ENDMDL
