MODEL 1
REMARK VINA RESULT:    -9.310      0.000      0.000
REMARK INTER + INTRA:         -13.152
REMARK INTER:                 -12.303
REMARK INTRA:                  -0.849
REMARK UNBOUND:                -0.849
REMARK  Name = 
REMARK  7 active torsions:
REMARK  status: ('A' for Active; 'I' for Inactive)
REMARK    1  A    between atoms: C_1  and  C_2
REMARK    2  A    between atoms: C_2  and  N_3
REMARK    3  A    between atoms: C_2  and  C_19
REMARK    4  A    between atoms: C_7  and  C_8
REMARK    5  A    between atoms: C_8  and  O_9
REMARK    6  A    between atoms: C_8  and  C_10
REMARK    7  A    between atoms: C_10  and  C_11
REMARK                            x       y       z     vdW  Elec       q    Type
REMARK                         _______ _______ _______ _____ _____    ______ ____
ROOT
ATOM      1  N   UNL     1      47.371   4.932  15.267  0.00  0.00    +0.000 N 
ATOM      2  C   UNL     1      46.565   4.521  14.211  0.00  0.00    +0.000 A 
ATOM      3  C   UNL     1      45.733   5.467  13.629  0.00  0.00    +0.000 A 
ATOM      4  C   UNL     1      44.867   5.096  12.607  0.00  0.00    +0.000 A 
ATOM      5  C   UNL     1      44.894   3.785  12.166  0.00  0.00    +0.000 A 
ATOM      6  N   UNL     1      45.771   2.902  12.692  0.00  0.00    +0.000 NA
ATOM      7  N   UNL     1      46.590   3.266  13.731  0.00  0.00    +0.000 NA
ATOM      8  H   UNL     1      48.124   5.498  14.884  0.00  0.00    +0.000 HD
ENDROOT
BRANCH   1  10
ATOM      9  C   UNL     1      46.859   3.524  17.299  0.00  0.00    +0.000 C 
ATOM     10  C   UNL     1      47.899   3.992  16.269  0.00  0.00    +0.000 C 
BRANCH  10  11
ATOM     11  C   UNL     1      49.052   4.656  17.019  0.00  0.00    +0.000 A 
ATOM     12  C   UNL     1      49.075   6.002  17.359  0.00  0.00    +0.000 A 
ATOM     13  S   UNL     1      50.515   6.471  18.146  0.00  0.00    +0.000 S 
ATOM     14  C   UNL     1      51.136   4.887  18.081  0.00  0.00    +0.000 A 
ATOM     15  N   UNL     1      52.366   4.584  18.573  0.00  0.00    +0.000 NA
ATOM     16  C   UNL     1      52.683   3.335  18.472  0.00  0.00    +0.000 A 
ATOM     17  N   UNL     1      51.879   2.359  17.934  0.00  0.00    +0.000 N 
ATOM     18  C   UNL     1      50.636   2.618  17.409  0.00  0.00    +0.000 A 
ATOM     19  O   UNL     1      49.936   1.730  16.927  0.00  0.00    +0.000 OA
ATOM     20  C   UNL     1      50.247   4.009  17.485  0.00  0.00    +0.000 A 
ATOM     21  H   UNL     1      52.184   1.398  17.900  0.00  0.00    +0.000 HD
ENDBRANCH  10  11
ENDBRANCH   1  10
BRANCH   5  22
ATOM     22  C   UNL     1      44.043   3.333  10.999  0.00  0.00    +0.000 C 
BRANCH  22  23
ATOM     23  O   UNL     1      42.663   3.431  11.385  0.00  0.00    +0.000 OA
ATOM     24  H   UNL     1      42.305   2.527  11.415  0.00  0.00    +0.000 HD
ENDBRANCH  22  23
BRANCH  22  25
ATOM     25  C   UNL     1      44.317   4.181   9.748  0.00  0.00    +0.000 C 
BRANCH  25  26
ATOM     26  C   UNL     1      45.246   3.473   8.799  0.00  0.00    +0.000 A 
ATOM     27  C   UNL     1      45.414   2.092   8.893  0.00  0.00    +0.000 A 
ATOM     28  C   UNL     1      46.327   1.468   8.053  0.00  0.00    +0.000 A 
ATOM     29  C   UNL     1      47.042   2.234   7.141  0.00  0.00    +0.000 A 
ATOM     30  C   UNL     1      46.804   3.599   7.105  0.00  0.00    +0.000 A 
ATOM     31  N   UNL     1      45.927   4.235   7.910  0.00  0.00    +0.000 NA
ENDBRANCH  25  26
ENDBRANCH  22  25
ENDBRANCH   5  22
TORSDOF 6
ENDMDL
MODEL 2
REMARK VINA RESULT:    -8.578      2.396      2.742
REMARK INTER + INTRA:         -12.185
REMARK INTER:                 -11.512
REMARK INTRA:                  -0.673
REMARK UNBOUND:                -0.849
REMARK  Name = 
REMARK  7 active torsions:
REMARK  status: ('A' for Active; 'I' for Inactive)
REMARK    1  A    between atoms: C_1  and  C_2
REMARK    2  A    between atoms: C_2  and  N_3
REMARK    3  A    between atoms: C_2  and  C_19
REMARK    4  A    between atoms: C_7  and  C_8
REMARK    5  A    between atoms: C_8  and  O_9
REMARK    6  A    between atoms: C_8  and  C_10
REMARK    7  A    between atoms: C_10  and  C_11
REMARK                            x       y       z     vdW  Elec       q    Type
REMARK                         _______ _______ _______ _____ _____    ______ ____
ROOT
ATOM      1  N   UNL     1      47.188   5.387  15.149  0.00  0.00    +0.000 N 
ATOM      2  C   UNL     1      46.463   4.741  14.152  0.00  0.00    +0.000 A 
ATOM      3  C   UNL     1      45.470   5.465  13.506  0.00  0.00    +0.000 A 
ATOM      4  C   UNL     1      44.680   4.851  12.542  0.00  0.00    +0.000 A 
ATOM      5  C   UNL     1      44.942   3.531  12.220  0.00  0.00    +0.000 A 
ATOM      6  N   UNL     1      45.967   2.873  12.803  0.00  0.00    +0.000 NA
ATOM      7  N   UNL     1      46.713   3.473  13.786  0.00  0.00    +0.000 NA
ATOM      8  H   UNL     1      47.822   6.041  14.700  0.00  0.00    +0.000 HD
ENDROOT
BRANCH   1  10
ATOM      9  C   UNL     1      47.005   3.623  16.945  0.00  0.00    +0.000 C 
ATOM     10  C   UNL     1      47.883   4.654  16.219  0.00  0.00    +0.000 C 
BRANCH  10  11
ATOM     11  C   UNL     1      48.404   5.652  17.251  0.00  0.00    +0.000 A 
ATOM     12  C   UNL     1      48.126   5.572  18.609  0.00  0.00    +0.000 A 
ATOM     13  S   UNL     1      48.800   6.856  19.510  0.00  0.00    +0.000 S 
ATOM     14  C   UNL     1      49.505   7.539  18.118  0.00  0.00    +0.000 A 
ATOM     15  N   UNL     1      50.225   8.690  18.178  0.00  0.00    +0.000 NA
ATOM     16  C   UNL     1      50.716   9.066  17.043  0.00  0.00    +0.000 A 
ATOM     17  N   UNL     1      50.562   8.392  15.856  0.00  0.00    +0.000 N 
ATOM     18  C   UNL     1      49.829   7.235  15.741  0.00  0.00    +0.000 A 
ATOM     19  O   UNL     1      49.700   6.651  14.667  0.00  0.00    +0.000 OA
ATOM     20  C   UNL     1      49.245   6.786  16.986  0.00  0.00    +0.000 A 
ATOM     21  H   UNL     1      50.986   8.735  15.007  0.00  0.00    +0.000 HD
ENDBRANCH  10  11
ENDBRANCH   1  10
BRANCH   5  22
ATOM     22  C   UNL     1      44.180   2.827  11.117  0.00  0.00    +0.000 C 
BRANCH  22  23
ATOM     23  O   UNL     1      42.834   2.611  11.569  0.00  0.00    +0.000 OA
ATOM     24  H   UNL     1      42.696   3.175  12.350  0.00  0.00    +0.000 HD
ENDBRANCH  22  23
BRANCH  22  25
ATOM     25  C   UNL     1      44.191   3.649   9.820  0.00  0.00    +0.000 C 
BRANCH  25  26
ATOM     26  C   UNL     1      45.217   3.128   8.850  0.00  0.00    +0.000 A 
ATOM     27  C   UNL     1      45.795   3.991   7.919  0.00  0.00    +0.000 A 
ATOM     28  C   UNL     1      46.689   3.475   6.990  0.00  0.00    +0.000 A 
ATOM     29  C   UNL     1      46.986   2.118   7.018  0.00  0.00    +0.000 A 
ATOM     30  C   UNL     1      46.378   1.334   7.985  0.00  0.00    +0.000 A 
ATOM     31  N   UNL     1      45.502   1.805   8.899  0.00  0.00    +0.000 NA
ENDBRANCH  25  26
ENDBRANCH  22  25
ENDBRANCH   5  22
TORSDOF 6
ENDMDL
MODEL 3
REMARK VINA RESULT:    -8.507      1.251      1.431
REMARK INTER + INTRA:         -12.092
REMARK INTER:                 -11.216
REMARK INTRA:                  -0.875
REMARK UNBOUND:                -0.849
REMARK  Name = 
REMARK  7 active torsions:
REMARK  status: ('A' for Active; 'I' for Inactive)
REMARK    1  A    between atoms: C_1  and  C_2
REMARK    2  A    between atoms: C_2  and  N_3
REMARK    3  A    between atoms: C_2  and  C_19
REMARK    4  A    between atoms: C_7  and  C_8
REMARK    5  A    between atoms: C_8  and  O_9
REMARK    6  A    between atoms: C_8  and  C_10
REMARK    7  A    between atoms: C_10  and  C_11
REMARK                            x       y       z     vdW  Elec       q    Type
REMARK                         _______ _______ _______ _____ _____    ______ ____
ROOT
ATOM      1  N   UNL     1      48.235   5.243  15.807  0.00  0.00    +0.000 N 
ATOM      2  C   UNL     1      47.308   5.128  14.777  0.00  0.00    +0.000 A 
ATOM      3  C   UNL     1      47.204   6.185  13.882  0.00  0.00    +0.000 A 
ATOM      4  C   UNL     1      46.254   6.145  12.868  0.00  0.00    +0.000 A 
ATOM      5  C   UNL     1      45.463   5.016  12.753  0.00  0.00    +0.000 A 
ATOM      6  N   UNL     1      45.639   3.966  13.584  0.00  0.00    +0.000 NA
ATOM      7  N   UNL     1      46.547   4.033  14.610  0.00  0.00    +0.000 NA
ATOM      8  H   UNL     1      49.162   5.123  15.409  0.00  0.00    +0.000 HD
ENDROOT
BRANCH   1  10
ATOM      9  C   UNL     1      47.156   5.111  18.086  0.00  0.00    +0.000 C 
ATOM     10  C   UNL     1      48.116   4.484  17.063  0.00  0.00    +0.000 C 
BRANCH  10  11
ATOM     11  C   UNL     1      49.496   4.368  17.708  0.00  0.00    +0.000 A 
ATOM     12  C   UNL     1      50.044   5.339  18.536  0.00  0.00    +0.000 A 
ATOM     13  S   UNL     1      51.621   4.958  19.066  0.00  0.00    +0.000 S 
ATOM     14  C   UNL     1      51.606   3.474  18.230  0.00  0.00    +0.000 A 
ATOM     15  N   UNL     1      52.678   2.639  18.245  0.00  0.00    +0.000 NA
ATOM     16  C   UNL     1      52.503   1.542  17.585  0.00  0.00    +0.000 A 
ATOM     17  N   UNL     1      51.351   1.198  16.919  0.00  0.00    +0.000 N 
ATOM     18  C   UNL     1      50.248   2.016  16.860  0.00  0.00    +0.000 A 
ATOM     19  O   UNL     1      49.230   1.691  16.254  0.00  0.00    +0.000 OA
ATOM     20  C   UNL     1      50.407   3.265  17.572  0.00  0.00    +0.000 A 
ATOM     21  H   UNL     1      51.276   0.317  16.434  0.00  0.00    +0.000 HD
ENDBRANCH  10  11
ENDBRANCH   1  10
BRANCH   5  22
ATOM     22  C   UNL     1      44.471   4.867  11.619  0.00  0.00    +0.000 C 
BRANCH  22  23
ATOM     23  O   UNL     1      43.245   5.507  12.008  0.00  0.00    +0.000 OA
ATOM     24  H   UNL     1      42.885   5.009  12.763  0.00  0.00    +0.000 HD
ENDBRANCH  22  23
BRANCH  22  25
ATOM     25  C   UNL     1      45.014   5.481  10.320  0.00  0.00    +0.000 C 
BRANCH  25  26
ATOM     26  C   UNL     1      45.394   4.414   9.328  0.00  0.00    +0.000 A 
ATOM     27  C   UNL     1      45.060   3.083   9.577  0.00  0.00    +0.000 A 
ATOM     28  C   UNL     1      45.481   2.107   8.683  0.00  0.00    +0.000 A 
ATOM     29  C   UNL     1      46.215   2.484   7.565  0.00  0.00    +0.000 A 
ATOM     30  C   UNL     1      46.491   3.830   7.387  0.00  0.00    +0.000 A 
ATOM     31  N   UNL     1      46.101   4.801   8.239  0.00  0.00    +0.000 NA
ENDBRANCH  25  26
ENDBRANCH  22  25
ENDBRANCH   5  22
TORSDOF 6
ENDMDL
MODEL 4
REMARK VINA RESULT:    -7.889      1.863      2.291
REMARK INTER + INTRA:         -11.274
REMARK INTER:                 -10.497
REMARK INTRA:                  -0.777
REMARK UNBOUND:                -0.849
REMARK  Name = 
REMARK  7 active torsions:
REMARK  status: ('A' for Active; 'I' for Inactive)
REMARK    1  A    between atoms: C_1  and  C_2
REMARK    2  A    between atoms: C_2  and  N_3
REMARK    3  A    between atoms: C_2  and  C_19
REMARK    4  A    between atoms: C_7  and  C_8
REMARK    5  A    between atoms: C_8  and  O_9
REMARK    6  A    between atoms: C_8  and  C_10
REMARK    7  A    between atoms: C_10  and  C_11
REMARK                            x       y       z     vdW  Elec       q    Type
REMARK                         _______ _______ _______ _____ _____    ______ ____
ROOT
ATOM      1  N   UNL     1      47.604   4.907  15.051  0.00  0.00    +0.000 N 
ATOM      2  C   UNL     1      46.668   4.610  14.066  0.00  0.00    +0.000 A 
ATOM      3  C   UNL     1      46.671   3.325  13.541  0.00  0.00    +0.000 A 
ATOM      4  C   UNL     1      45.794   2.992  12.516  0.00  0.00    +0.000 A 
ATOM      5  C   UNL     1      44.901   3.952  12.077  0.00  0.00    +0.000 A 
ATOM      6  N   UNL     1      44.860   5.170  12.660  0.00  0.00    +0.000 NA
ATOM      7  N   UNL     1      45.760   5.505  13.640  0.00  0.00    +0.000 NA
ATOM      8  H   UNL     1      47.310   4.452  15.910  0.00  0.00    +0.000 HD
ENDROOT
BRANCH   1  10
ATOM      9  C   UNL     1      48.651   7.005  14.114  0.00  0.00    +0.000 C 
ATOM     10  C   UNL     1      48.047   6.284  15.328  0.00  0.00    +0.000 C 
BRANCH  10  11
ATOM     11  C   UNL     1      49.093   6.257  16.441  0.00  0.00    +0.000 A 
ATOM     12  C   UNL     1      50.340   6.861  16.340  0.00  0.00    +0.000 A 
ATOM     13  S   UNL     1      51.316   6.620  17.719  0.00  0.00    +0.000 S 
ATOM     14  C   UNL     1      50.093   5.728  18.500  0.00  0.00    +0.000 A 
ATOM     15  N   UNL     1      50.281   5.197  19.738  0.00  0.00    +0.000 NA
ATOM     16  C   UNL     1      49.252   4.570  20.206  0.00  0.00    +0.000 A 
ATOM     17  N   UNL     1      48.049   4.434  19.555  0.00  0.00    +0.000 N 
ATOM     18  C   UNL     1      47.817   4.938  18.297  0.00  0.00    +0.000 A 
ATOM     19  O   UNL     1      46.735   4.799  17.731  0.00  0.00    +0.000 OA
ATOM     20  C   UNL     1      48.950   5.633  17.727  0.00  0.00    +0.000 A 
ATOM     21  H   UNL     1      47.280   3.943  19.985  0.00  0.00    +0.000 HD
ENDBRANCH  10  11
ENDBRANCH   1  10
BRANCH   5  22
ATOM     22  C   UNL     1      43.858   3.632  11.028  0.00  0.00    +0.000 C 
BRANCH  22  23
ATOM     23  O   UNL     1      42.567   3.976  11.557  0.00  0.00    +0.000 OA
ATOM     24  H   UNL     1      42.166   3.157  11.897  0.00  0.00    +0.000 HD
ENDBRANCH  22  23
BRANCH  22  25
ATOM     25  C   UNL     1      44.128   4.395   9.722  0.00  0.00    +0.000 C 
BRANCH  25  26
ATOM     26  C   UNL     1      45.086   3.644   8.838  0.00  0.00    +0.000 A 
ATOM     27  C   UNL     1      45.180   2.256   8.936  0.00  0.00    +0.000 A 
ATOM     28  C   UNL     1      46.119   1.590   8.159  0.00  0.00    +0.000 A 
ATOM     29  C   UNL     1      46.932   2.323   7.303  0.00  0.00    +0.000 A 
ATOM     30  C   UNL     1      46.763   3.697   7.256  0.00  0.00    +0.000 A 
ATOM     31  N   UNL     1      45.863   4.374   8.002  0.00  0.00    +0.000 NA
ENDBRANCH  25  26
ENDBRANCH  22  25
ENDBRANCH   5  22
TORSDOF 6
ENDMDL
MODEL 5
REMARK VINA RESULT:    -7.846      2.243      2.883
REMARK INTER + INTRA:         -11.218
REMARK INTER:                 -10.685
REMARK INTRA:                  -0.533
REMARK UNBOUND:                -0.849
REMARK  Name = 
REMARK  7 active torsions:
REMARK  status: ('A' for Active; 'I' for Inactive)
REMARK    1  A    between atoms: C_1  and  C_2
REMARK    2  A    between atoms: C_2  and  N_3
REMARK    3  A    between atoms: C_2  and  C_19
REMARK    4  A    between atoms: C_7  and  C_8
REMARK    5  A    between atoms: C_8  and  O_9
REMARK    6  A    between atoms: C_8  and  C_10
REMARK    7  A    between atoms: C_10  and  C_11
REMARK                            x       y       z     vdW  Elec       q    Type
REMARK                         _______ _______ _______ _____ _____    ______ ____
ROOT
ATOM      1  N   UNL     1      47.527   6.022  14.503  0.00  0.00    +0.000 N 
ATOM      2  C   UNL     1      46.675   5.412  13.589  0.00  0.00    +0.000 A 
ATOM      3  C   UNL     1      46.511   4.036  13.679  0.00  0.00    +0.000 A 
ATOM      4  C   UNL     1      45.714   3.370  12.755  0.00  0.00    +0.000 A 
ATOM      5  C   UNL     1      45.064   4.115  11.789  0.00  0.00    +0.000 A 
ATOM      6  N   UNL     1      45.172   5.462  11.772  0.00  0.00    +0.000 NA
ATOM      7  N   UNL     1      45.997   6.107  12.659  0.00  0.00    +0.000 NA
ATOM      8  H   UNL     1      47.058   6.040  15.404  0.00  0.00    +0.000 HD
ENDROOT
BRANCH   1  10
ATOM      9  C   UNL     1      49.497   7.213  13.466  0.00  0.00    +0.000 C 
ATOM     10  C   UNL     1      48.172   7.318  14.236  0.00  0.00    +0.000 C 
BRANCH  10  11
ATOM     11  C   UNL     1      48.442   8.023  15.564  0.00  0.00    +0.000 A 
ATOM     12  C   UNL     1      48.141   9.358  15.802  0.00  0.00    +0.000 A 
ATOM     13  S   UNL     1      48.605   9.884  17.358  0.00  0.00    +0.000 S 
ATOM     14  C   UNL     1      49.194   8.339  17.768  0.00  0.00    +0.000 A 
ATOM     15  N   UNL     1      49.759   8.092  18.979  0.00  0.00    +0.000 NA
ATOM     16  C   UNL     1      50.133   6.866  19.148  0.00  0.00    +0.000 A 
ATOM     17  N   UNL     1      49.986   5.863  18.220  0.00  0.00    +0.000 N 
ATOM     18  C   UNL     1      49.439   6.067  16.976  0.00  0.00    +0.000 A 
ATOM     19  O   UNL     1      49.323   5.156  16.160  0.00  0.00    +0.000 OA
ATOM     20  C   UNL     1      49.021   7.431  16.738  0.00  0.00    +0.000 A 
ATOM     21  H   UNL     1      50.289   4.922  18.423  0.00  0.00    +0.000 HD
ENDBRANCH  10  11
ENDBRANCH   1  10
BRANCH   5  22
ATOM     22  C   UNL     1      44.111   3.467  10.808  0.00  0.00    +0.000 C 
BRANCH  22  23
ATOM     23  O   UNL     1      42.779   3.579  11.335  0.00  0.00    +0.000 OA
ATOM     24  H   UNL     1      42.765   3.111  12.188  0.00  0.00    +0.000 HD
ENDBRANCH  22  23
BRANCH  22  25
ATOM     25  C   UNL     1      44.202   4.127   9.423  0.00  0.00    +0.000 C 
BRANCH  25  26
ATOM     26  C   UNL     1      45.218   3.436   8.554  0.00  0.00    +0.000 A 
ATOM     27  C   UNL     1      45.464   2.074   8.722  0.00  0.00    +0.000 A 
ATOM     28  C   UNL     1      46.453   1.471   7.956  0.00  0.00    +0.000 A 
ATOM     29  C   UNL     1      47.164   2.239   7.042  0.00  0.00    +0.000 A 
ATOM     30  C   UNL     1      46.846   3.583   6.929  0.00  0.00    +0.000 A 
ATOM     31  N   UNL     1      45.894   4.198   7.662  0.00  0.00    +0.000 NA
ENDBRANCH  25  26
ENDBRANCH  22  25
ENDBRANCH   5  22
TORSDOF 6
ENDMDL
MODEL 6
REMARK VINA RESULT:    -7.652      1.945      2.586
REMARK INTER + INTRA:         -10.961
REMARK INTER:                 -10.704
REMARK INTRA:                  -0.258
REMARK UNBOUND:                -0.849
REMARK  Name = 
REMARK  7 active torsions:
REMARK  status: ('A' for Active; 'I' for Inactive)
REMARK    1  A    between atoms: C_1  and  C_2
REMARK    2  A    between atoms: C_2  and  N_3
REMARK    3  A    between atoms: C_2  and  C_19
REMARK    4  A    between atoms: C_7  and  C_8
REMARK    5  A    between atoms: C_8  and  O_9
REMARK    6  A    between atoms: C_8  and  C_10
REMARK    7  A    between atoms: C_10  and  C_11
REMARK                            x       y       z     vdW  Elec       q    Type
REMARK                         _______ _______ _______ _____ _____    ______ ____
ROOT
ATOM      1  N   UNL     1      47.415   4.806  15.621  0.00  0.00    +0.000 N 
ATOM      2  C   UNL     1      46.670   4.390  14.522  0.00  0.00    +0.000 A 
ATOM      3  C   UNL     1      45.687   5.247  14.048  0.00  0.00    +0.000 A 
ATOM      4  C   UNL     1      44.877   4.857  12.988  0.00  0.00    +0.000 A 
ATOM      5  C   UNL     1      45.111   3.627  12.401  0.00  0.00    +0.000 A 
ATOM      6  N   UNL     1      46.127   2.845  12.825  0.00  0.00    +0.000 NA
ATOM      7  N   UNL     1      46.892   3.218  13.902  0.00  0.00    +0.000 NA
ATOM      8  H   UNL     1      48.059   5.526  15.308  0.00  0.00    +0.000 HD
ENDROOT
BRANCH   1  10
ATOM      9  C   UNL     1      47.160   3.044  17.412  0.00  0.00    +0.000 C 
ATOM     10  C   UNL     1      48.103   3.857  16.512  0.00  0.00    +0.000 C 
BRANCH  10  11
ATOM     11  C   UNL     1      49.075   4.625  17.404  0.00  0.00    +0.000 A 
ATOM     12  C   UNL     1      50.456   4.573  17.264  0.00  0.00    +0.000 A 
ATOM     13  S   UNL     1      51.286   5.493  18.437  0.00  0.00    +0.000 S 
ATOM     14  C   UNL     1      49.827   6.011  19.147  0.00  0.00    +0.000 A 
ATOM     15  N   UNL     1      49.816   6.825  20.236  0.00  0.00    +0.000 NA
ATOM     16  C   UNL     1      48.632   7.150  20.641  0.00  0.00    +0.000 A 
ATOM     17  N   UNL     1      47.458   6.743  20.052  0.00  0.00    +0.000 N 
ATOM     18  C   UNL     1      47.418   5.906  18.963  0.00  0.00    +0.000 A 
ATOM     19  O   UNL     1      46.356   5.550  18.456  0.00  0.00    +0.000 OA
ATOM     20  C   UNL     1      48.722   5.503  18.485  0.00  0.00    +0.000 A 
ATOM     21  H   UNL     1      46.566   7.046  20.413  0.00  0.00    +0.000 HD
ENDBRANCH  10  11
ENDBRANCH   1  10
BRANCH   5  22
ATOM     22  C   UNL     1      44.327   3.176  11.186  0.00  0.00    +0.000 C 
BRANCH  22  23
ATOM     23  O   UNL     1      42.929   3.212  11.516  0.00  0.00    +0.000 OA
ATOM     24  H   UNL     1      42.474   3.681  10.795  0.00  0.00    +0.000 HD
ENDBRANCH  22  23
BRANCH  22  25
ATOM     25  C   UNL     1      44.620   4.070   9.972  0.00  0.00    +0.000 C 
BRANCH  25  26
ATOM     26  C   UNL     1      45.412   3.331   8.927  0.00  0.00    +0.000 A 
ATOM     27  C   UNL     1      45.925   4.018   7.828  0.00  0.00    +0.000 A 
ATOM     28  C   UNL     1      46.595   3.305   6.842  0.00  0.00    +0.000 A 
ATOM     29  C   UNL     1      46.739   1.930   6.981  0.00  0.00    +0.000 A 
ATOM     30  C   UNL     1      46.210   1.327   8.112  0.00  0.00    +0.000 A 
ATOM     31  N   UNL     1      45.551   1.992   9.084  0.00  0.00    +0.000 NA
ENDBRANCH  25  26
ENDBRANCH  22  25
ENDBRANCH   5  22
TORSDOF 6
ENDMDL
MODEL 7
REMARK VINA RESULT:    -7.646      1.636      2.149
REMARK INTER + INTRA:         -10.954
REMARK INTER:                 -10.063
REMARK INTRA:                  -0.890
REMARK UNBOUND:                -0.849
REMARK  Name = 
REMARK  7 active torsions:
REMARK  status: ('A' for Active; 'I' for Inactive)
REMARK    1  A    between atoms: C_1  and  C_2
REMARK    2  A    between atoms: C_2  and  N_3
REMARK    3  A    between atoms: C_2  and  C_19
REMARK    4  A    between atoms: C_7  and  C_8
REMARK    5  A    between atoms: C_8  and  O_9
REMARK    6  A    between atoms: C_8  and  C_10
REMARK    7  A    between atoms: C_10  and  C_11
REMARK                            x       y       z     vdW  Elec       q    Type
REMARK                         _______ _______ _______ _____ _____    ______ ____
ROOT
ATOM      1  N   UNL     1      48.779   6.667  15.115  0.00  0.00    +0.000 N 
ATOM      2  C   UNL     1      47.818   5.926  14.435  0.00  0.00    +0.000 A 
ATOM      3  C   UNL     1      47.245   6.495  13.306  0.00  0.00    +0.000 A 
ATOM      4  C   UNL     1      46.241   5.821  12.622  0.00  0.00    +0.000 A 
ATOM      5  C   UNL     1      45.870   4.565  13.069  0.00  0.00    +0.000 A 
ATOM      6  N   UNL     1      46.500   3.997  14.120  0.00  0.00    +0.000 NA
ATOM      7  N   UNL     1      47.458   4.689  14.817  0.00  0.00    +0.000 NA
ATOM      8  H   UNL     1      49.631   6.658  14.561  0.00  0.00    +0.000 HD
ENDROOT
BRANCH   1  10
ATOM      9  C   UNL     1      48.684   7.596  17.461  0.00  0.00    +0.000 C 
ATOM     10  C   UNL     1      49.091   6.439  16.536  0.00  0.00    +0.000 C 
BRANCH  10  11
ATOM     11  C   UNL     1      50.594   6.210  16.686  0.00  0.00    +0.000 A 
ATOM     12  C   UNL     1      51.558   7.095  16.221  0.00  0.00    +0.000 A 
ATOM     13  S   UNL     1      53.153   6.549  16.484  0.00  0.00    +0.000 S 
ATOM     14  C   UNL     1      52.604   5.131  17.251  0.00  0.00    +0.000 A 
ATOM     15  N   UNL     1      53.470   4.193  17.715  0.00  0.00    +0.000 NA
ATOM     16  C   UNL     1      52.900   3.187  18.295  0.00  0.00    +0.000 A 
ATOM     17  N   UNL     1      51.544   3.039  18.461  0.00  0.00    +0.000 N 
ATOM     18  C   UNL     1      50.628   3.951  17.994  0.00  0.00    +0.000 A 
ATOM     19  O   UNL     1      49.419   3.795  18.149  0.00  0.00    +0.000 OA
ATOM     20  C   UNL     1      51.222   5.086  17.322  0.00  0.00    +0.000 A 
ATOM     21  H   UNL     1      51.166   2.234  18.937  0.00  0.00    +0.000 HD
ENDBRANCH  10  11
ENDBRANCH   1  10
BRANCH   5  22
ATOM     22  C   UNL     1      44.847   3.737  12.321  0.00  0.00    +0.000 C 
BRANCH  22  23
ATOM     23  O   UNL     1      43.712   3.542  13.180  0.00  0.00    +0.000 OA
ATOM     24  H   UNL     1      44.053   3.355  14.072  0.00  0.00    +0.000 HD
ENDBRANCH  22  23
BRANCH  22  25
ATOM     25  C   UNL     1      44.425   4.422  11.013  0.00  0.00    +0.000 C 
BRANCH  25  26
ATOM     26  C   UNL     1      45.074   3.772   9.821  0.00  0.00    +0.000 A 
ATOM     27  C   UNL     1      45.609   4.562   8.804  0.00  0.00    +0.000 A 
ATOM     28  C   UNL     1      46.143   3.942   7.682  0.00  0.00    +0.000 A 
ATOM     29  C   UNL     1      46.134   2.555   7.606  0.00  0.00    +0.000 A 
ATOM     30  C   UNL     1      45.596   1.845   8.668  0.00  0.00    +0.000 A 
ATOM     31  N   UNL     1      45.066   2.418   9.769  0.00  0.00    +0.000 NA
ENDBRANCH  25  26
ENDBRANCH  22  25
ENDBRANCH   5  22
TORSDOF 6
ENDMDL
MODEL 8
REMARK VINA RESULT:    -7.641      3.205      4.156
REMARK INTER + INTRA:         -10.947
REMARK INTER:                 -10.174
REMARK INTRA:                  -0.774
REMARK UNBOUND:                -0.849
REMARK  Name = 
REMARK  7 active torsions:
REMARK  status: ('A' for Active; 'I' for Inactive)
REMARK    1  A    between atoms: C_1  and  C_2
REMARK    2  A    between atoms: C_2  and  N_3
REMARK    3  A    between atoms: C_2  and  C_19
REMARK    4  A    between atoms: C_7  and  C_8
REMARK    5  A    between atoms: C_8  and  O_9
REMARK    6  A    between atoms: C_8  and  C_10
REMARK    7  A    between atoms: C_10  and  C_11
REMARK                            x       y       z     vdW  Elec       q    Type
REMARK                         _______ _______ _______ _____ _____    ______ ____
ROOT
ATOM      1  N   UNL     1      47.596   5.798  14.503  0.00  0.00    +0.000 N 
ATOM      2  C   UNL     1      46.716   5.226  13.591  0.00  0.00    +0.000 A 
ATOM      3  C   UNL     1      46.556   3.848  13.627  0.00  0.00    +0.000 A 
ATOM      4  C   UNL     1      45.732   3.220  12.701  0.00  0.00    +0.000 A 
ATOM      5  C   UNL     1      45.051   4.005  11.788  0.00  0.00    +0.000 A 
ATOM      6  N   UNL     1      45.158   5.351  11.826  0.00  0.00    +0.000 NA
ATOM      7  N   UNL     1      46.009   5.959  12.714  0.00  0.00    +0.000 NA
ATOM      8  H   UNL     1      47.156   5.777  15.419  0.00  0.00    +0.000 HD
ENDROOT
BRANCH   1  10
ATOM      9  C   UNL     1      49.280   7.105  13.150  0.00  0.00    +0.000 C 
ATOM     10  C   UNL     1      48.231   7.106  14.273  0.00  0.00    +0.000 C 
BRANCH  10  11
ATOM     11  C   UNL     1      48.909   7.566  15.562  0.00  0.00    +0.000 A 
ATOM     12  C   UNL     1      49.370   6.697  16.543  0.00  0.00    +0.000 A 
ATOM     13  S   UNL     1      50.034   7.501  17.894  0.00  0.00    +0.000 S 
ATOM     14  C   UNL     1      49.753   9.029  17.197  0.00  0.00    +0.000 A 
ATOM     15  N   UNL     1      50.076  10.178  17.848  0.00  0.00    +0.000 NA
ATOM     16  C   UNL     1      49.824  11.254  17.177  0.00  0.00    +0.000 A 
ATOM     17  N   UNL     1      49.289  11.287  15.912  0.00  0.00    +0.000 N 
ATOM     18  C   UNL     1      48.930  10.154  15.221  0.00  0.00    +0.000 A 
ATOM     19  O   UNL     1      48.446  10.208  14.092  0.00  0.00    +0.000 OA
ATOM     20  C   UNL     1      49.178   8.925  15.942  0.00  0.00    +0.000 A 
ATOM     21  H   UNL     1      49.131  12.164  15.439  0.00  0.00    +0.000 HD
ENDBRANCH  10  11
ENDBRANCH   1  10
BRANCH   5  22
ATOM     22  C   UNL     1      44.068   3.398  10.810  0.00  0.00    +0.000 C 
BRANCH  22  23
ATOM     23  O   UNL     1      42.743   3.571  11.339  0.00  0.00    +0.000 OA
ATOM     24  H   UNL     1      42.340   2.688  11.405  0.00  0.00    +0.000 HD
ENDBRANCH  22  23
BRANCH  22  25
ATOM     25  C   UNL     1      44.187   4.049   9.424  0.00  0.00    +0.000 C 
BRANCH  25  26
ATOM     26  C   UNL     1      45.207   3.342   8.573  0.00  0.00    +0.000 A 
ATOM     27  C   UNL     1      45.460   1.985   8.775  0.00  0.00    +0.000 A 
ATOM     28  C   UNL     1      46.453   1.369   8.025  0.00  0.00    +0.000 A 
ATOM     29  C   UNL     1      47.161   2.117   7.093  0.00  0.00    +0.000 A 
ATOM     30  C   UNL     1      46.837   3.456   6.947  0.00  0.00    +0.000 A 
ATOM     31  N   UNL     1      45.880   4.085   7.662  0.00  0.00    +0.000 NA
ENDBRANCH  25  26
ENDBRANCH  22  25
ENDBRANCH   5  22
TORSDOF 6
ENDMDL
