MODEL 1
REMARK VINA RESULT:    -9.542      0.000      0.000
REMARK INTER + INTRA:         -12.905
REMARK INTER:                 -12.331
REMARK INTRA:                  -0.575
REMARK UNBOUND:                -0.575
REMARK  Name = 
REMARK  5 active torsions:
REMARK  status: ('A' for Active; 'I' for Inactive)
REMARK    1  A    between atoms: C_2  and  C_4
REMARK    2  A    between atoms: C_7  and  C_8
REMARK    3  A    between atoms: C_8  and  C_9
REMARK    4  A    between atoms: C_9  and  C_10
REMARK    5  A    between atoms: C_18  and  C_19
REMARK                            x       y       z     vdW  Elec       q    Type
REMARK                         _______ _______ _______ _____ _____    ______ ____
ROOT
ATOM      1  C   UNL     1      45.211   5.688  12.140  0.00  0.00    +0.000 A 
ATOM      2  C   UNL     1      45.473   6.925  11.586  0.00  0.00    +0.000 A 
ATOM      3  C   UNL     1      46.541   7.612  12.100  0.00  0.00    +0.000 A 
ATOM      4  N   UNL     1      47.299   7.150  13.107  0.00  0.00    +0.000 NA
ATOM      5  C   UNL     1      46.993   5.949  13.612  0.00  0.00    +0.000 A 
ATOM      6  N   UNL     1      47.681   5.487  14.712  0.00  0.00    +0.000 N 
ATOM      7  C   UNL     1      47.426   4.156  15.232  0.00  0.00    +0.000 C 
ATOM      8  C   UNL     1      47.177   4.264  16.738  0.00  0.00    +0.000 C 
ATOM      9  C   UNL     1      48.296   5.029  17.464  0.00  0.00    +0.000 C 
ATOM     10  C   UNL     1      48.535   6.390  16.786  0.00  0.00    +0.000 C 
ATOM     11  C   UNL     1      48.770   6.256  15.278  0.00  0.00    +0.000 C 
ATOM     12  N   UNL     1      45.984   5.206  13.135  0.00  0.00    +0.000 NA
ENDROOT
BRANCH   9  13
ATOM     13  C   UNL     1      49.581   4.210  17.585  0.00  0.00    +0.000 C 
ATOM     14  F   UNL     1      49.461   2.975  17.053  0.00  0.00    +0.000 F 
ATOM     15  F   UNL     1      50.641   4.804  16.996  0.00  0.00    +0.000 F 
ATOM     16  F   UNL     1      49.900   4.047  18.892  0.00  0.00    +0.000 F 
ENDBRANCH   9  13
BRANCH   1  17
ATOM     17  C   UNL     1      43.973   4.880  11.746  0.00  0.00    +0.000 C 
ATOM     18  C   UNL     1      43.467   3.774  12.668  0.00  0.00    +0.000 C 
ATOM     19  C   UNL     1      42.770   5.095  12.665  0.00  0.00    +0.000 C 
BRANCH  17  20
ATOM     20  C   UNL     1      43.706   4.720  10.260  0.00  0.00    +0.000 C 
BRANCH  20  24
ATOM     21  C   UNL     1      46.469   2.506   7.765  0.00  0.00    +0.000 A 
ATOM     22  C   UNL     1      45.670   1.818   8.684  0.00  0.00    +0.000 A 
ATOM     23  C   UNL     1      44.811   2.523   9.535  0.00  0.00    +0.000 A 
ATOM     24  C   UNL     1      44.741   3.923   9.488  0.00  0.00    +0.000 A 
ATOM     25  C   UNL     1      45.586   4.603   8.594  0.00  0.00    +0.000 A 
ATOM     26  C   UNL     1      46.450   3.903   7.745  0.00  0.00    +0.000 A 
BRANCH  21  28
ATOM     27  N   UNL     1      48.380   2.497   6.258  0.00  0.00    +0.000 N 
ATOM     28  C   UNL     1      47.335   1.792   6.790  0.00  0.00    +0.000 C 
ATOM     29  O   UNL     1      47.162   0.613   6.511  0.00  0.00    +0.000 OA
ATOM     30  H   UNL     1      49.031   1.973   5.686  0.00  0.00    +0.000 HD
ATOM     31  H   UNL     1      48.701   3.368   6.656  0.00  0.00    +0.000 HD
ENDBRANCH  21  28
ENDBRANCH  20  24
ENDBRANCH  17  20
ENDBRANCH   1  17
TORSDOF 5
ENDMDL
MODEL 2
REMARK VINA RESULT:    -8.623      2.820      3.988
REMARK INTER + INTRA:         -11.718
REMARK INTER:                 -11.308
REMARK INTRA:                  -0.410
REMARK UNBOUND:                -0.575
REMARK  Name = 
REMARK  5 active torsions:
REMARK  status: ('A' for Active; 'I' for Inactive)
REMARK    1  A    between atoms: C_2  and  C_4
REMARK    2  A    between atoms: C_7  and  C_8
REMARK    3  A    between atoms: C_8  and  C_9
REMARK    4  A    between atoms: C_9  and  C_10
REMARK    5  A    between atoms: C_18  and  C_19
REMARK                            x       y       z     vdW  Elec       q    Type
REMARK                         _______ _______ _______ _____ _____    ______ ____
ROOT
ATOM      1  C   UNL     1      45.201   4.798  12.368  0.00  0.00    +0.000 A 
ATOM      2  C   UNL     1      45.732   3.621  12.856  0.00  0.00    +0.000 A 
ATOM      3  C   UNL     1      46.914   3.720  13.540  0.00  0.00    +0.000 A 
ATOM      4  N   UNL     1      47.566   4.879  13.722  0.00  0.00    +0.000 NA
ATOM      5  C   UNL     1      47.010   5.988  13.218  0.00  0.00    +0.000 A 
ATOM      6  N   UNL     1      47.697   7.179  13.294  0.00  0.00    +0.000 N 
ATOM      7  C   UNL     1      47.086   8.411  12.829  0.00  0.00    +0.000 C 
ATOM      8  C   UNL     1      48.066   9.110  11.884  0.00  0.00    +0.000 C 
ATOM      9  C   UNL     1      49.459   9.286  12.510  0.00  0.00    +0.000 C 
ATOM     10  C   UNL     1      49.979   7.937  13.037  0.00  0.00    +0.000 C 
ATOM     11  C   UNL     1      48.976   7.251  13.971  0.00  0.00    +0.000 C 
ATOM     12  N   UNL     1      45.838   5.970  12.568  0.00  0.00    +0.000 NA
ENDROOT
BRANCH   9  13
ATOM     13  C   UNL     1      49.485  10.375  13.582  0.00  0.00    +0.000 C 
ATOM     14  F   UNL     1      49.137   9.911  14.801  0.00  0.00    +0.000 F 
ATOM     15  F   UNL     1      50.693  10.966  13.703  0.00  0.00    +0.000 F 
ATOM     16  F   UNL     1      48.601  11.352  13.266  0.00  0.00    +0.000 F 
ENDBRANCH   9  13
BRANCH   1  17
ATOM     17  C   UNL     1      43.957   4.808  11.478  0.00  0.00    +0.000 C 
ATOM     18  C   UNL     1      42.790   3.877  11.798  0.00  0.00    +0.000 C 
ATOM     19  C   UNL     1      42.696   5.319  12.176  0.00  0.00    +0.000 C 
BRANCH  17  20
ATOM     20  C   UNL     1      44.160   5.189  10.022  0.00  0.00    +0.000 C 
BRANCH  20  24
ATOM     21  C   UNL     1      46.364   2.154   7.857  0.00  0.00    +0.000 A 
ATOM     22  C   UNL     1      46.566   3.502   7.547  0.00  0.00    +0.000 A 
ATOM     23  C   UNL     1      45.823   4.494   8.200  0.00  0.00    +0.000 A 
ATOM     24  C   UNL     1      44.863   4.154   9.164  0.00  0.00    +0.000 A 
ATOM     25  C   UNL     1      44.636   2.793   9.429  0.00  0.00    +0.000 A 
ATOM     26  C   UNL     1      45.373   1.799   8.775  0.00  0.00    +0.000 A 
BRANCH  21  28
ATOM     27  N   UNL     1      46.890  -0.209   7.606  0.00  0.00    +0.000 N 
ATOM     28  C   UNL     1      47.186   1.077   7.246  0.00  0.00    +0.000 C 
ATOM     29  O   UNL     1      48.054   1.315   6.415  0.00  0.00    +0.000 OA
ATOM     30  H   UNL     1      47.373  -0.942   7.102  0.00  0.00    +0.000 HD
ATOM     31  H   UNL     1      46.028  -0.453   8.074  0.00  0.00    +0.000 HD
ENDBRANCH  21  28
ENDBRANCH  20  24
ENDBRANCH  17  20
ENDBRANCH   1  17
TORSDOF 5
ENDMDL
MODEL 3
REMARK VINA RESULT:    -8.580      1.908      2.626
REMARK INTER + INTRA:         -11.662
REMARK INTER:                 -11.162
REMARK INTRA:                  -0.500
REMARK UNBOUND:                -0.575
REMARK  Name = 
REMARK  5 active torsions:
REMARK  status: ('A' for Active; 'I' for Inactive)
REMARK    1  A    between atoms: C_2  and  C_4
REMARK    2  A    between atoms: C_7  and  C_8
REMARK    3  A    between atoms: C_8  and  C_9
REMARK    4  A    between atoms: C_9  and  C_10
REMARK    5  A    between atoms: C_18  and  C_19
REMARK                            x       y       z     vdW  Elec       q    Type
REMARK                         _______ _______ _______ _____ _____    ______ ____
ROOT
ATOM      1  C   UNL     1      45.051   6.258  11.867  0.00  0.00    +0.000 A 
ATOM      2  C   UNL     1      44.346   7.355  11.413  0.00  0.00    +0.000 A 
ATOM      3  C   UNL     1      44.892   8.584  11.675  0.00  0.00    +0.000 A 
ATOM      4  N   UNL     1      46.036   8.753  12.357  0.00  0.00    +0.000 NA
ATOM      5  C   UNL     1      46.671   7.654  12.782  0.00  0.00    +0.000 A 
ATOM      6  N   UNL     1      47.791   7.787  13.573  0.00  0.00    +0.000 N 
ATOM      7  C   UNL     1      48.547   6.618  13.982  0.00  0.00    +0.000 C 
ATOM      8  C   UNL     1      48.750   6.678  15.497  0.00  0.00    +0.000 C 
ATOM      9  C   UNL     1      49.351   8.017  15.954  0.00  0.00    +0.000 C 
ATOM     10  C   UNL     1      48.519   9.188  15.404  0.00  0.00    +0.000 C 
ATOM     11  C   UNL     1      48.319   9.099  13.888  0.00  0.00    +0.000 C 
ATOM     12  N   UNL     1      46.214   6.419  12.532  0.00  0.00    +0.000 NA
ENDROOT
BRANCH   9  13
ATOM     13  C   UNL     1      50.833   8.144  15.601  0.00  0.00    +0.000 C 
ATOM     14  F   UNL     1      51.493   6.970  15.701  0.00  0.00    +0.000 F 
ATOM     15  F   UNL     1      51.037   8.618  14.353  0.00  0.00    +0.000 F 
ATOM     16  F   UNL     1      51.436   9.008  16.452  0.00  0.00    +0.000 F 
ENDBRANCH   9  13
BRANCH   1  17
ATOM     17  C   UNL     1      44.487   4.841  11.754  0.00  0.00    +0.000 C 
ATOM     18  C   UNL     1      45.152   3.698  12.516  0.00  0.00    +0.000 C 
ATOM     19  C   UNL     1      43.895   4.299  13.056  0.00  0.00    +0.000 C 
BRANCH  17  20
ATOM     20  C   UNL     1      43.778   4.488  10.458  0.00  0.00    +0.000 C 
BRANCH  20  24
ATOM     21  C   UNL     1      46.460   2.518   7.686  0.00  0.00    +0.000 A 
ATOM     22  C   UNL     1      46.363   3.912   7.675  0.00  0.00    +0.000 A 
ATOM     23  C   UNL     1      45.462   4.563   8.526  0.00  0.00    +0.000 A 
ATOM     24  C   UNL     1      44.639   3.831   9.396  0.00  0.00    +0.000 A 
ATOM     25  C   UNL     1      44.713   2.428   9.361  0.00  0.00    +0.000 A 
ATOM     26  C   UNL     1      45.608   1.775   8.507  0.00  0.00    +0.000 A 
BRANCH  21  28
ATOM     27  N   UNL     1      48.553   2.504   6.444  0.00  0.00    +0.000 N 
ATOM     28  C   UNL     1      47.459   1.794   6.856  0.00  0.00    +0.000 C 
ATOM     29  O   UNL     1      47.344   0.603   6.595  0.00  0.00    +0.000 OA
ATOM     30  H   UNL     1      49.283   1.978   5.979  0.00  0.00    +0.000 HD
ATOM     31  H   UNL     1      48.804   3.393   6.853  0.00  0.00    +0.000 HD
ENDBRANCH  21  28
ENDBRANCH  20  24
ENDBRANCH  17  20
ENDBRANCH   1  17
TORSDOF 5
ENDMDL
MODEL 4
REMARK VINA RESULT:    -7.986      2.955      3.573
REMARK INTER + INTRA:         -10.895
REMARK INTER:                 -10.384
REMARK INTRA:                  -0.511
REMARK UNBOUND:                -0.575
REMARK  Name = 
REMARK  5 active torsions:
REMARK  status: ('A' for Active; 'I' for Inactive)
REMARK    1  A    between atoms: C_2  and  C_4
REMARK    2  A    between atoms: C_7  and  C_8
REMARK    3  A    between atoms: C_8  and  C_9
REMARK    4  A    between atoms: C_9  and  C_10
REMARK    5  A    between atoms: C_18  and  C_19
REMARK                            x       y       z     vdW  Elec       q    Type
REMARK                         _______ _______ _______ _____ _____    ______ ____
ROOT
ATOM      1  C   UNL     1      44.423   5.571  11.458  0.00  0.00    +0.000 A 
ATOM      2  C   UNL     1      43.367   6.443  11.285  0.00  0.00    +0.000 A 
ATOM      3  C   UNL     1      43.657   7.779  11.366  0.00  0.00    +0.000 A 
ATOM      4  N   UNL     1      44.886   8.252  11.626  0.00  0.00    +0.000 NA
ATOM      5  C   UNL     1      45.870   7.361  11.795  0.00  0.00    +0.000 A 
ATOM      6  N   UNL     1      47.121   7.801  12.164  0.00  0.00    +0.000 N 
ATOM      7  C   UNL     1      48.227   6.868  12.277  0.00  0.00    +0.000 C 
ATOM      8  C   UNL     1      48.899   7.074  13.635  0.00  0.00    +0.000 C 
ATOM      9  C   UNL     1      49.278   8.543  13.884  0.00  0.00    +0.000 C 
ATOM     10  C   UNL     1      48.055   9.451  13.665  0.00  0.00    +0.000 C 
ATOM     11  C   UNL     1      47.393   9.218  12.303  0.00  0.00    +0.000 C 
ATOM     12  N   UNL     1      45.666   6.039  11.694  0.00  0.00    +0.000 NA
ENDROOT
BRANCH   9  13
ATOM     13  C   UNL     1      50.483   8.985  13.054  0.00  0.00    +0.000 C 
ATOM     14  F   UNL     1      51.491   8.087  13.085  0.00  0.00    +0.000 F 
ATOM     15  F   UNL     1      50.177   9.206  11.758  0.00  0.00    +0.000 F 
ATOM     16  F   UNL     1      50.977  10.148  13.544  0.00  0.00    +0.000 F 
ENDBRANCH   9  13
BRANCH   1  17
ATOM     17  C   UNL     1      44.211   4.057  11.519  0.00  0.00    +0.000 C 
ATOM     18  C   UNL     1      44.994   3.223  12.529  0.00  0.00    +0.000 C 
ATOM     19  C   UNL     1      43.571   3.570  12.820  0.00  0.00    +0.000 C 
BRANCH  17  20
ATOM     20  C   UNL     1      43.795   3.372  10.229  0.00  0.00    +0.000 C 
BRANCH  20  24
ATOM     21  C   UNL     1      46.758   2.565   7.175  0.00  0.00    +0.000 A 
ATOM     22  C   UNL     1      46.348   1.533   8.024  0.00  0.00    +0.000 A 
ATOM     23  C   UNL     1      45.431   1.789   9.051  0.00  0.00    +0.000 A 
ATOM     24  C   UNL     1      44.917   3.078   9.250  0.00  0.00    +0.000 A 
ATOM     25  C   UNL     1      45.375   4.115   8.420  0.00  0.00    +0.000 A 
ATOM     26  C   UNL     1      46.295   3.864   7.396  0.00  0.00    +0.000 A 
BRANCH  21  28
ATOM     27  N   UNL     1      47.631   3.228   5.002  0.00  0.00    +0.000 N 
ATOM     28  C   UNL     1      47.667   2.319   6.024  0.00  0.00    +0.000 C 
ATOM     29  O   UNL     1      48.455   1.382   6.009  0.00  0.00    +0.000 OA
ATOM     30  H   UNL     1      48.332   3.120   4.278  0.00  0.00    +0.000 HD
ATOM     31  H   UNL     1      47.196   4.134   5.100  0.00  0.00    +0.000 HD
ENDBRANCH  21  28
ENDBRANCH  20  24
ENDBRANCH  17  20
ENDBRANCH   1  17
TORSDOF 5
ENDMDL
MODEL 5
REMARK VINA RESULT:    -7.200      2.178      3.373
REMARK INTER + INTRA:          -9.879
REMARK INTER:                 -10.589
REMARK INTRA:                   0.709
REMARK UNBOUND:                -0.575
REMARK  Name = 
REMARK  5 active torsions:
REMARK  status: ('A' for Active; 'I' for Inactive)
REMARK    1  A    between atoms: C_2  and  C_4
REMARK    2  A    between atoms: C_7  and  C_8
REMARK    3  A    between atoms: C_8  and  C_9
REMARK    4  A    between atoms: C_9  and  C_10
REMARK    5  A    between atoms: C_18  and  C_19
REMARK                            x       y       z     vdW  Elec       q    Type
REMARK                         _______ _______ _______ _____ _____    ______ ____
ROOT
ATOM      1  C   UNL     1      45.903   5.236  12.652  0.00  0.00    +0.000 A 
ATOM      2  C   UNL     1      46.084   3.907  12.980  0.00  0.00    +0.000 A 
ATOM      3  C   UNL     1      46.987   3.641  13.976  0.00  0.00    +0.000 A 
ATOM      4  N   UNL     1      47.695   4.594  14.603  0.00  0.00    +0.000 NA
ATOM      5  C   UNL     1      47.485   5.864  14.237  0.00  0.00    +0.000 A 
ATOM      6  N   UNL     1      48.265   6.859  14.782  0.00  0.00    +0.000 N 
ATOM      7  C   UNL     1      48.007   8.252  14.466  0.00  0.00    +0.000 C 
ATOM      8  C   UNL     1      49.323   8.901  14.031  0.00  0.00    +0.000 C 
ATOM      9  C   UNL     1      50.452   8.677  15.051  0.00  0.00    +0.000 C 
ATOM     10  C   UNL     1      50.588   7.178  15.371  0.00  0.00    +0.000 C 
ATOM     11  C   UNL     1      49.256   6.549  15.793  0.00  0.00    +0.000 C 
ATOM     12  N   UNL     1      46.592   6.201  13.295  0.00  0.00    +0.000 NA
ENDROOT
BRANCH   9  13
ATOM     13  C   UNL     1      50.278   9.525  16.311  0.00  0.00    +0.000 C 
ATOM     14  F   UNL     1      49.039  10.051  16.415  0.00  0.00    +0.000 F 
ATOM     15  F   UNL     1      50.524   8.837  17.446  0.00  0.00    +0.000 F 
ATOM     16  F   UNL     1      51.147  10.565  16.288  0.00  0.00    +0.000 F 
ENDBRANCH   9  13
BRANCH   1  17
ATOM     17  C   UNL     1      45.023   5.657  11.473  0.00  0.00    +0.000 C 
ATOM     18  C   UNL     1      44.440   7.067  11.429  0.00  0.00    +0.000 C 
ATOM     19  C   UNL     1      45.638   6.746  10.595  0.00  0.00    +0.000 C 
BRANCH  17  20
ATOM     20  C   UNL     1      44.231   4.558  10.784  0.00  0.00    +0.000 C 
BRANCH  20  24
ATOM     21  C   UNL     1      46.481   2.516   7.697  0.00  0.00    +0.000 A 
ATOM     22  C   UNL     1      46.402   3.912   7.680  0.00  0.00    +0.000 A 
ATOM     23  C   UNL     1      45.635   4.585   8.639  0.00  0.00    +0.000 A 
ATOM     24  C   UNL     1      44.930   3.876   9.622  0.00  0.00    +0.000 A 
ATOM     25  C   UNL     1      44.979   2.472   9.597  0.00  0.00    +0.000 A 
ATOM     26  C   UNL     1      45.740   1.795   8.637  0.00  0.00    +0.000 A 
BRANCH  21  28
ATOM     27  N   UNL     1      48.329   2.478   6.113  0.00  0.00    +0.000 N 
ATOM     28  C   UNL     1      47.346   1.768   6.747  0.00  0.00    +0.000 C 
ATOM     29  O   UNL     1      47.229   0.562   6.576  0.00  0.00    +0.000 OA
ATOM     30  H   UNL     1      48.985   1.943   5.559  0.00  0.00    +0.000 HD
ATOM     31  H   UNL     1      48.616   3.396   6.423  0.00  0.00    +0.000 HD
ENDBRANCH  21  28
ENDBRANCH  20  24
ENDBRANCH  17  20
ENDBRANCH   1  17
TORSDOF 5
ENDMDL
MODEL 6
REMARK VINA RESULT:    -6.625      3.923      5.386
REMARK INTER + INTRA:          -9.136
REMARK INTER:                  -8.559
REMARK INTRA:                  -0.577
REMARK UNBOUND:                -0.575
REMARK  Name = 
REMARK  5 active torsions:
REMARK  status: ('A' for Active; 'I' for Inactive)
REMARK    1  A    between atoms: C_2  and  C_4
REMARK    2  A    between atoms: C_7  and  C_8
REMARK    3  A    between atoms: C_8  and  C_9
REMARK    4  A    between atoms: C_9  and  C_10
REMARK    5  A    between atoms: C_18  and  C_19
REMARK                            x       y       z     vdW  Elec       q    Type
REMARK                         _______ _______ _______ _____ _____    ______ ____
ROOT
ATOM      1  C   UNL     1      49.147   8.754  14.008  0.00  0.00    +0.000 A 
ATOM      2  C   UNL     1      49.055  10.059  14.450  0.00  0.00    +0.000 A 
ATOM      3  C   UNL     1      48.959  10.240  15.804  0.00  0.00    +0.000 A 
ATOM      4  N   UNL     1      48.926   9.226  16.684  0.00  0.00    +0.000 NA
ATOM      5  C   UNL     1      49.008   7.982  16.198  0.00  0.00    +0.000 A 
ATOM      6  N   UNL     1      48.874   6.914  17.056  0.00  0.00    +0.000 N 
ATOM      7  C   UNL     1      49.039   5.555  16.573  0.00  0.00    +0.000 C 
ATOM      8  C   UNL     1      47.834   4.730  17.027  0.00  0.00    +0.000 C 
ATOM      9  C   UNL     1      47.584   4.841  18.540  0.00  0.00    +0.000 C 
ATOM     10  C   UNL     1      47.502   6.321  18.957  0.00  0.00    +0.000 C 
ATOM     11  C   UNL     1      48.714   7.128  18.481  0.00  0.00    +0.000 C 
ATOM     12  N   UNL     1      49.139   7.731  14.887  0.00  0.00    +0.000 NA
ENDROOT
BRANCH   9  13
ATOM     13  C   UNL     1      48.613   4.065  19.361  0.00  0.00    +0.000 C 
ATOM     14  F   UNL     1      49.875   4.244  18.915  0.00  0.00    +0.000 F 
ATOM     15  F   UNL     1      48.596   4.392  20.671  0.00  0.00    +0.000 F 
ATOM     16  F   UNL     1      48.354   2.737  19.286  0.00  0.00    +0.000 F 
ENDBRANCH   9  13
BRANCH   1  17
ATOM     17  C   UNL     1      49.129   8.410  12.517  0.00  0.00    +0.000 C 
ATOM     18  C   UNL     1      48.938   9.519  11.486  0.00  0.00    +0.000 C 
ATOM     19  C   UNL     1      50.310   8.982  11.732  0.00  0.00    +0.000 C 
BRANCH  17  20
ATOM     20  C   UNL     1      48.638   7.023  12.142  0.00  0.00    +0.000 C 
BRANCH  20  24
ATOM     21  C   UNL     1      44.464   5.981  12.650  0.00  0.00    +0.000 A 
ATOM     22  C   UNL     1      44.804   7.121  11.916  0.00  0.00    +0.000 A 
ATOM     23  C   UNL     1      46.144   7.502  11.786  0.00  0.00    +0.000 A 
ATOM     24  C   UNL     1      47.165   6.757  12.394  0.00  0.00    +0.000 A 
ATOM     25  C   UNL     1      46.805   5.642  13.171  0.00  0.00    +0.000 A 
ATOM     26  C   UNL     1      45.466   5.261  13.306  0.00  0.00    +0.000 A 
BRANCH  21  28
ATOM     27  N   UNL     1      42.181   5.963  11.807  0.00  0.00    +0.000 N 
ATOM     28  C   UNL     1      43.062   5.498  12.745  0.00  0.00    +0.000 C 
ATOM     29  O   UNL     1      42.714   4.678  13.586  0.00  0.00    +0.000 OA
ATOM     30  H   UNL     1      41.260   5.543  11.807  0.00  0.00    +0.000 HD
ATOM     31  H   UNL     1      42.487   6.422  10.962  0.00  0.00    +0.000 HD
ENDBRANCH  21  28
ENDBRANCH  20  24
ENDBRANCH  17  20
ENDBRANCH   1  17
TORSDOF 5
ENDMDL
