MODEL 1
REMARK VINA RESULT:    -9.118      0.000      0.000
REMARK INTER + INTRA:         -12.642
REMARK INTER:                 -11.783
REMARK INTRA:                  -0.858
REMARK UNBOUND:                -0.858
REMARK  Name = 
REMARK  6 active torsions:
REMARK  status: ('A' for Active; 'I' for Inactive)
REMARK    1  A    between atoms: C_1  and  C_2
REMARK    2  A    between atoms: N_9  and  C_10
REMARK    3  A    between atoms: C_10  and  C_11
REMARK    4  A    between atoms: C_14  and  C_15
REMARK    5  A    between atoms: C_15  and  N_16
REMARK    6  A    between atoms: C_17  and  C_19
REMARK                            x       y       z     vdW  Elec       q    Type
REMARK                         _______ _______ _______ _____ _____    ______ ____
ROOT
ATOM      1  C   UNL     1      43.389   4.224  11.433  0.00  0.00    +0.000 C 
ATOM      2  C   UNL     1      43.337   4.789  12.860  0.00  0.00    +0.000 C 
ATOM      3  C   UNL     1      44.614   5.529  13.260  0.00  0.00    +0.000 C 
ATOM      4  C   UNL     1      45.002   6.633  12.261  0.00  0.00    +0.000 C 
ATOM      5  C   UNL     1      45.015   6.103  10.818  0.00  0.00    +0.000 C 
ATOM      6  C   UNL     1      43.720   5.373  10.460  0.00  0.00    +0.000 C 
ENDROOT
BRANCH   1   7
ATOM      7  C   UNL     1      44.379   3.046  11.278  0.00  0.00    +0.000 C 
BRANCH   7  16
ATOM      8  C   UNL     1      46.756   0.021   7.619  0.00  0.00    +0.000 C 
ATOM      9  C   UNL     1      46.754   1.473   7.312  0.00  0.00    +0.000 A 
ATOM     10  C   UNL     1      47.518   2.149   6.376  0.00  0.00    +0.000 A 
ATOM     11  C   UNL     1      47.193   3.517   6.458  0.00  0.00    +0.000 A 
ATOM     12  C   UNL     1      46.277   3.653   7.475  0.00  0.00    +0.000 A 
ATOM     13  N   UNL     1      45.998   2.405   8.021  0.00  0.00    +0.000 N 
ATOM     14  C   UNL     1      45.093   2.144   9.080  0.00  0.00    +0.000 C 
ATOM     15  O   UNL     1      44.386   1.149   9.066  0.00  0.00    +0.000 OA
ATOM     16  N   UNL     1      45.192   3.093  10.075  0.00  0.00    +0.000 N 
ATOM     17  H   UNL     1      45.977   3.734  10.056  0.00  0.00    +0.000 HD
ENDBRANCH   7  16
ENDBRANCH   1   7
BRANCH   4  18
ATOM     18  C   UNL     1      46.367   7.256  12.600  0.00  0.00    +0.000 C 
BRANCH  18  19
ATOM     19  N   UNL     1      46.892   6.786  13.860  0.00  0.00    +0.000 N 
ATOM     20  C   UNL     1      48.236   6.579  14.045  0.00  0.00    +0.000 C 
ATOM     21  O   UNL     1      49.049   6.696  13.136  0.00  0.00    +0.000 OA
ATOM     22  H   UNL     1      46.284   6.829  14.674  0.00  0.00    +0.000 HD
BRANCH  20  23
ATOM     23  C   UNL     1      48.656   6.195  15.399  0.00  0.00    +0.000 A 
ATOM     24  C   UNL     1      49.482   7.041  16.131  0.00  0.00    +0.000 A 
ATOM     25  S   UNL     1      49.798   6.486  17.713  0.00  0.00    +0.000 S 
ATOM     26  C   UNL     1      48.796   5.131  17.490  0.00  0.00    +0.000 A 
ATOM     27  N   UNL     1      48.535   4.276  18.518  0.00  0.00    +0.000 NA
ATOM     28  C   UNL     1      47.744   3.302  18.214  0.00  0.00    +0.000 A 
ATOM     29  N   UNL     1      47.228   3.073  16.964  0.00  0.00    +0.000 N 
ATOM     30  C   UNL     1      47.522   3.869  15.880  0.00  0.00    +0.000 A 
ATOM     31  O   UNL     1      47.163   3.564  14.750  0.00  0.00    +0.000 OA
ATOM     32  C   UNL     1      48.318   5.040  16.198  0.00  0.00    +0.000 A 
ATOM     33  H   UNL     1      46.669   2.253  16.777  0.00  0.00    +0.000 HD
ENDBRANCH  20  23
ENDBRANCH  18  19
ENDBRANCH   4  18
TORSDOF 5
ENDMDL
MODEL 2
REMARK VINA RESULT:    -8.821      1.762      2.836
REMARK INTER + INTRA:         -12.258
REMARK INTER:                 -11.511
REMARK INTRA:                  -0.747
REMARK UNBOUND:                -0.858
REMARK  Name = 
REMARK  6 active torsions:
REMARK  status: ('A' for Active; 'I' for Inactive)
REMARK    1  A    between atoms: C_1  and  C_2
REMARK    2  A    between atoms: N_9  and  C_10
REMARK    3  A    between atoms: C_10  and  C_11
REMARK    4  A    between atoms: C_14  and  C_15
REMARK    5  A    between atoms: C_15  and  N_16
REMARK    6  A    between atoms: C_17  and  C_19
REMARK                            x       y       z     vdW  Elec       q    Type
REMARK                         _______ _______ _______ _____ _____    ______ ____
ROOT
ATOM      1  C   UNL     1      43.056   4.134  11.313  0.00  0.00    +0.000 C 
ATOM      2  C   UNL     1      43.938   3.054  11.955  0.00  0.00    +0.000 C 
ATOM      3  C   UNL     1      45.324   3.566  12.351  0.00  0.00    +0.000 C 
ATOM      4  C   UNL     1      45.264   4.814  13.250  0.00  0.00    +0.000 C 
ATOM      5  C   UNL     1      44.348   5.893  12.650  0.00  0.00    +0.000 C 
ATOM      6  C   UNL     1      42.975   5.338  12.272  0.00  0.00    +0.000 C 
ENDROOT
BRANCH   1   7
ATOM      7  C   UNL     1      43.538   4.559   9.906  0.00  0.00    +0.000 C 
BRANCH   7  16
ATOM      8  C   UNL     1      46.818   3.807   5.800  0.00  0.00    +0.000 C 
ATOM      9  C   UNL     1      46.688   2.639   6.707  0.00  0.00    +0.000 A 
ATOM     10  C   UNL     1      47.068   1.329   6.472  0.00  0.00    +0.000 A 
ATOM     11  C   UNL     1      46.726   0.569   7.607  0.00  0.00    +0.000 A 
ATOM     12  C   UNL     1      46.101   1.420   8.489  0.00  0.00    +0.000 A 
ATOM     13  N   UNL     1      46.060   2.701   7.949  0.00  0.00    +0.000 N 
ATOM     14  C   UNL     1      45.504   3.847   8.571  0.00  0.00    +0.000 C 
ATOM     15  O   UNL     1      46.042   4.937   8.465  0.00  0.00    +0.000 OA
ATOM     16  N   UNL     1      44.314   3.552   9.203  0.00  0.00    +0.000 N 
ATOM     17  H   UNL     1      43.877   2.657   9.019  0.00  0.00    +0.000 HD
ENDBRANCH   7  16
ENDBRANCH   1   7
BRANCH   4  18
ATOM     18  C   UNL     1      46.663   5.400  13.505  0.00  0.00    +0.000 C 
BRANCH  18  19
ATOM     19  N   UNL     1      47.088   5.241  14.876  0.00  0.00    +0.000 N 
ATOM     20  C   UNL     1      47.582   4.048  15.341  0.00  0.00    +0.000 C 
ATOM     21  O   UNL     1      47.610   3.036  14.650  0.00  0.00    +0.000 OA
ATOM     22  H   UNL     1      47.230   6.081  15.430  0.00  0.00    +0.000 HD
BRANCH  20  23
ATOM     23  C   UNL     1      48.072   4.040  16.725  0.00  0.00    +0.000 A 
ATOM     24  C   UNL     1      47.493   3.187  17.658  0.00  0.00    +0.000 A 
ATOM     25  S   UNL     1      48.242   3.240  19.190  0.00  0.00    +0.000 S 
ATOM     26  C   UNL     1      49.399   4.357  18.640  0.00  0.00    +0.000 A 
ATOM     27  N   UNL     1      50.428   4.751  19.441  0.00  0.00    +0.000 NA
ATOM     28  C   UNL     1      51.243   5.588  18.889  0.00  0.00    +0.000 A 
ATOM     29  N   UNL     1      51.098   6.106  17.628  0.00  0.00    +0.000 N 
ATOM     30  C   UNL     1      50.035   5.792  16.812  0.00  0.00    +0.000 A 
ATOM     31  O   UNL     1      49.855   6.373  15.749  0.00  0.00    +0.000 OA
ATOM     32  C   UNL     1      49.153   4.770  17.346  0.00  0.00    +0.000 A 
ATOM     33  H   UNL     1      51.735   6.809  17.281  0.00  0.00    +0.000 HD
ENDBRANCH  20  23
ENDBRANCH  18  19
ENDBRANCH   4  18
TORSDOF 5
ENDMDL
MODEL 3
REMARK VINA RESULT:    -8.766      1.515      2.109
REMARK INTER + INTRA:         -12.187
REMARK INTER:                 -11.417
REMARK INTRA:                  -0.770
REMARK UNBOUND:                -0.858
REMARK  Name = 
REMARK  6 active torsions:
REMARK  status: ('A' for Active; 'I' for Inactive)
REMARK    1  A    between atoms: C_1  and  C_2
REMARK    2  A    between atoms: N_9  and  C_10
REMARK    3  A    between atoms: C_10  and  C_11
REMARK    4  A    between atoms: C_14  and  C_15
REMARK    5  A    between atoms: C_15  and  N_16
REMARK    6  A    between atoms: C_17  and  C_19
REMARK                            x       y       z     vdW  Elec       q    Type
REMARK                         _______ _______ _______ _____ _____    ______ ____
ROOT
ATOM      1  C   UNL     1      43.145   4.140  11.487  0.00  0.00    +0.000 C 
ATOM      2  C   UNL     1      44.049   3.048  12.078  0.00  0.00    +0.000 C 
ATOM      3  C   UNL     1      45.466   3.537  12.378  0.00  0.00    +0.000 C 
ATOM      4  C   UNL     1      45.487   4.791  13.269  0.00  0.00    +0.000 C 
ATOM      5  C   UNL     1      44.553   5.883  12.723  0.00  0.00    +0.000 C 
ATOM      6  C   UNL     1      43.148   5.350  12.441  0.00  0.00    +0.000 C 
ENDROOT
BRANCH   1   7
ATOM      7  C   UNL     1      43.540   4.547  10.049  0.00  0.00    +0.000 C 
BRANCH   7  16
ATOM      8  C   UNL     1      46.749   3.823   5.882  0.00  0.00    +0.000 C 
ATOM      9  C   UNL     1      46.631   2.647   6.780  0.00  0.00    +0.000 A 
ATOM     10  C   UNL     1      47.004   1.339   6.527  0.00  0.00    +0.000 A 
ATOM     11  C   UNL     1      46.679   0.569   7.661  0.00  0.00    +0.000 A 
ATOM     12  C   UNL     1      46.071   1.414   8.561  0.00  0.00    +0.000 A 
ATOM     13  N   UNL     1      46.024   2.700   8.034  0.00  0.00    +0.000 N 
ATOM     14  C   UNL     1      45.482   3.842   8.674  0.00  0.00    +0.000 C 
ATOM     15  O   UNL     1      46.021   4.932   8.569  0.00  0.00    +0.000 OA
ATOM     16  N   UNL     1      44.302   3.545   9.324  0.00  0.00    +0.000 N 
ATOM     17  H   UNL     1      43.859   2.652   9.139  0.00  0.00    +0.000 HD
ENDBRANCH   7  16
ENDBRANCH   1   7
BRANCH   4  18
ATOM     18  C   UNL     1      46.910   5.355  13.428  0.00  0.00    +0.000 C 
BRANCH  18  19
ATOM     19  N   UNL     1      47.287   5.525  14.812  0.00  0.00    +0.000 N 
ATOM     20  C   UNL     1      48.446   6.167  15.167  0.00  0.00    +0.000 C 
ATOM     21  O   UNL     1      49.262   6.553  14.338  0.00  0.00    +0.000 OA
ATOM     22  H   UNL     1      46.576   5.366  15.521  0.00  0.00    +0.000 HD
BRANCH  20  23
ATOM     23  C   UNL     1      48.669   6.364  16.605  0.00  0.00    +0.000 A 
ATOM     24  C   UNL     1      48.801   7.651  17.114  0.00  0.00    +0.000 A 
ATOM     25  S   UNL     1      48.963   7.702  18.811  0.00  0.00    +0.000 S 
ATOM     26  C   UNL     1      48.803   6.013  18.925  0.00  0.00    +0.000 A 
ATOM     27  N   UNL     1      48.745   5.395  20.138  0.00  0.00    +0.000 NA
ATOM     28  C   UNL     1      48.604   4.113  20.078  0.00  0.00    +0.000 A 
ATOM     29  N   UNL     1      48.565   3.384  18.917  0.00  0.00    +0.000 N 
ATOM     30  C   UNL     1      48.692   3.957  17.673  0.00  0.00    +0.000 A 
ATOM     31  O   UNL     1      48.794   3.273  16.663  0.00  0.00    +0.000 OA
ATOM     32  C   UNL     1      48.741   5.408  17.686  0.00  0.00    +0.000 A 
ATOM     33  H   UNL     1      48.521   2.375  18.941  0.00  0.00    +0.000 HD
ENDBRANCH  20  23
ENDBRANCH  18  19
ENDBRANCH   4  18
TORSDOF 5
ENDMDL
MODEL 4
REMARK VINA RESULT:    -8.247      1.577      2.134
REMARK INTER + INTRA:         -11.515
REMARK INTER:                 -11.033
REMARK INTRA:                  -0.482
REMARK UNBOUND:                -0.858
REMARK  Name = 
REMARK  6 active torsions:
REMARK  status: ('A' for Active; 'I' for Inactive)
REMARK    1  A    between atoms: C_1  and  C_2
REMARK    2  A    between atoms: N_9  and  C_10
REMARK    3  A    between atoms: C_10  and  C_11
REMARK    4  A    between atoms: C_14  and  C_15
REMARK    5  A    between atoms: C_15  and  N_16
REMARK    6  A    between atoms: C_17  and  C_19
REMARK                            x       y       z     vdW  Elec       q    Type
REMARK                         _______ _______ _______ _____ _____    ______ ____
ROOT
ATOM      1  C   UNL     1      43.248   4.312  11.385  0.00  0.00    +0.000 C 
ATOM      2  C   UNL     1      43.206   4.616  12.890  0.00  0.00    +0.000 C 
ATOM      3  C   UNL     1      44.581   4.937  13.477  0.00  0.00    +0.000 C 
ATOM      4  C   UNL     1      45.302   6.067  12.722  0.00  0.00    +0.000 C 
ATOM      5  C   UNL     1      45.316   5.809  11.207  0.00  0.00    +0.000 C 
ATOM      6  C   UNL     1      43.922   5.495  10.663  0.00  0.00    +0.000 C 
ENDROOT
BRANCH   1   7
ATOM      7  C   UNL     1      43.943   2.971  11.052  0.00  0.00    +0.000 C 
BRANCH   7  16
ATOM      8  C   UNL     1      46.793   0.005   7.696  0.00  0.00    +0.000 C 
ATOM      9  C   UNL     1      46.799   1.458   7.392  0.00  0.00    +0.000 A 
ATOM     10  C   UNL     1      47.654   2.151   6.553  0.00  0.00    +0.000 A 
ATOM     11  C   UNL     1      47.296   3.512   6.597  0.00  0.00    +0.000 A 
ATOM     12  C   UNL     1      46.263   3.628   7.500  0.00  0.00    +0.000 A 
ATOM     13  N   UNL     1      45.946   2.372   8.007  0.00  0.00    +0.000 N 
ATOM     14  C   UNL     1      44.928   2.091   8.952  0.00  0.00    +0.000 C 
ATOM     15  O   UNL     1      44.248   1.082   8.854  0.00  0.00    +0.000 OA
ATOM     16  N   UNL     1      44.891   3.038   9.953  0.00  0.00    +0.000 N 
ATOM     17  H   UNL     1      45.660   3.695  10.028  0.00  0.00    +0.000 HD
ENDBRANCH   7  16
ENDBRANCH   1   7
BRANCH   4  18
ATOM     18  C   UNL     1      46.741   6.265  13.230  0.00  0.00    +0.000 C 
BRANCH  18  19
ATOM     19  N   UNL     1      46.971   5.625  14.504  0.00  0.00    +0.000 N 
ATOM     20  C   UNL     1      48.152   5.783  15.184  0.00  0.00    +0.000 C 
ATOM     21  O   UNL     1      49.102   6.400  14.716  0.00  0.00    +0.000 OA
ATOM     22  H   UNL     1      46.167   5.243  14.996  0.00  0.00    +0.000 HD
BRANCH  20  23
ATOM     23  C   UNL     1      48.228   5.163  16.513  0.00  0.00    +0.000 A 
ATOM     24  C   UNL     1      48.112   3.783  16.639  0.00  0.00    +0.000 A 
ATOM     25  S   UNL     1      48.314   3.223  18.238  0.00  0.00    +0.000 S 
ATOM     26  C   UNL     1      48.620   4.798  18.802  0.00  0.00    +0.000 A 
ATOM     27  N   UNL     1      48.982   5.020  20.097  0.00  0.00    +0.000 NA
ATOM     28  C   UNL     1      49.202   6.259  20.383  0.00  0.00    +0.000 A 
ATOM     29  N   UNL     1      49.047   7.304  19.510  0.00  0.00    +0.000 N 
ATOM     30  C   UNL     1      48.614   7.134  18.215  0.00  0.00    +0.000 A 
ATOM     31  O   UNL     1      48.349   8.092  17.500  0.00  0.00    +0.000 OA
ATOM     32  C   UNL     1      48.461   5.748  17.813  0.00  0.00    +0.000 A 
ATOM     33  H   UNL     1      49.170   8.259  19.818  0.00  0.00    +0.000 HD
ENDBRANCH  20  23
ENDBRANCH  18  19
ENDBRANCH   4  18
TORSDOF 5
ENDMDL
MODEL 5
REMARK VINA RESULT:    -8.144      1.881      2.507
REMARK INTER + INTRA:         -11.383
REMARK INTER:                 -10.762
REMARK INTRA:                  -0.621
REMARK UNBOUND:                -0.858
REMARK  Name = 
REMARK  6 active torsions:
REMARK  status: ('A' for Active; 'I' for Inactive)
REMARK    1  A    between atoms: C_1  and  C_2
REMARK    2  A    between atoms: N_9  and  C_10
REMARK    3  A    between atoms: C_10  and  C_11
REMARK    4  A    between atoms: C_14  and  C_15
REMARK    5  A    between atoms: C_15  and  N_16
REMARK    6  A    between atoms: C_17  and  C_19
REMARK                            x       y       z     vdW  Elec       q    Type
REMARK                         _______ _______ _______ _____ _____    ______ ____
ROOT
ATOM      1  C   UNL     1      44.155   5.523  10.886  0.00  0.00    +0.000 C 
ATOM      2  C   UNL     1      43.465   5.604  12.256  0.00  0.00    +0.000 C 
ATOM      3  C   UNL     1      44.150   4.752  13.325  0.00  0.00    +0.000 C 
ATOM      4  C   UNL     1      45.651   5.061  13.463  0.00  0.00    +0.000 C 
ATOM      5  C   UNL     1      46.356   5.032  12.097  0.00  0.00    +0.000 C 
ATOM      6  C   UNL     1      45.640   5.899  11.061  0.00  0.00    +0.000 C 
ENDROOT
BRANCH   1   7
ATOM      7  C   UNL     1      43.993   4.147  10.201  0.00  0.00    +0.000 C 
BRANCH   7  16
ATOM      8  C   UNL     1      46.805   0.295   7.868  0.00  0.00    +0.000 C 
ATOM      9  C   UNL     1      46.849   1.602   7.165  0.00  0.00    +0.000 A 
ATOM     10  C   UNL     1      47.729   2.011   6.179  0.00  0.00    +0.000 A 
ATOM     11  C   UNL     1      47.403   3.336   5.831  0.00  0.00    +0.000 A 
ATOM     12  C   UNL     1      46.364   3.724   6.647  0.00  0.00    +0.000 A 
ATOM     13  N   UNL     1      46.013   2.670   7.483  0.00  0.00    +0.000 N 
ATOM     14  C   UNL     1      44.979   2.688   8.453  0.00  0.00    +0.000 C 
ATOM     15  O   UNL     1      44.275   1.707   8.633  0.00  0.00    +0.000 OA
ATOM     16  N   UNL     1      44.954   3.881   9.144  0.00  0.00    +0.000 N 
ATOM     17  H   UNL     1      45.738   4.516   9.042  0.00  0.00    +0.000 HD
ENDBRANCH   7  16
ENDBRANCH   1   7
BRANCH   4  18
ATOM     18  C   UNL     1      46.348   4.087  14.429  0.00  0.00    +0.000 C 
BRANCH  18  19
ATOM     19  N   UNL     1      47.257   4.757  15.329  0.00  0.00    +0.000 N 
ATOM     20  C   UNL     1      47.424   4.339  16.625  0.00  0.00    +0.000 C 
ATOM     21  O   UNL     1      46.754   3.436  17.114  0.00  0.00    +0.000 OA
ATOM     22  H   UNL     1      47.939   5.396  14.927  0.00  0.00    +0.000 HD
BRANCH  20  23
ATOM     23  C   UNL     1      48.448   5.038  17.411  0.00  0.00    +0.000 A 
ATOM     24  C   UNL     1      48.195   6.317  17.893  0.00  0.00    +0.000 A 
ATOM     25  S   UNL     1      49.453   6.945  18.860  0.00  0.00    +0.000 S 
ATOM     26  C   UNL     1      50.348   5.508  18.712  0.00  0.00    +0.000 A 
ATOM     27  N   UNL     1      51.511   5.333  19.402  0.00  0.00    +0.000 NA
ATOM     28  C   UNL     1      52.077   4.188  19.211  0.00  0.00    +0.000 A 
ATOM     29  N   UNL     1      51.615   3.219  18.358  0.00  0.00    +0.000 N 
ATOM     30  C   UNL     1      50.486   3.381  17.588  0.00  0.00    +0.000 A 
ATOM     31  O   UNL     1      50.174   2.561  16.734  0.00  0.00    +0.000 OA
ATOM     32  C   UNL     1      49.755   4.607  17.851  0.00  0.00    +0.000 A 
ATOM     33  H   UNL     1      52.143   2.372  18.204  0.00  0.00    +0.000 HD
ENDBRANCH  20  23
ENDBRANCH  18  19
ENDBRANCH   4  18
TORSDOF 5
ENDMDL
MODEL 6
REMARK VINA RESULT:    -7.734      2.969      4.557
REMARK INTER + INTRA:         -10.853
REMARK INTER:                 -10.190
REMARK INTRA:                  -0.663
REMARK UNBOUND:                -0.858
REMARK  Name = 
REMARK  6 active torsions:
REMARK  status: ('A' for Active; 'I' for Inactive)
REMARK    1  A    between atoms: C_1  and  C_2
REMARK    2  A    between atoms: N_9  and  C_10
REMARK    3  A    between atoms: C_10  and  C_11
REMARK    4  A    between atoms: C_14  and  C_15
REMARK    5  A    between atoms: C_15  and  N_16
REMARK    6  A    between atoms: C_17  and  C_19
REMARK                            x       y       z     vdW  Elec       q    Type
REMARK                         _______ _______ _______ _____ _____    ______ ____
ROOT
ATOM      1  C   UNL     1      47.592   7.989  12.119  0.00  0.00    +0.000 C 
ATOM      2  C   UNL     1      47.818   9.091  13.164  0.00  0.00    +0.000 C 
ATOM      3  C   UNL     1      47.771   8.575  14.603  0.00  0.00    +0.000 C 
ATOM      4  C   UNL     1      48.735   7.400  14.846  0.00  0.00    +0.000 C 
ATOM      5  C   UNL     1      48.560   6.303  13.784  0.00  0.00    +0.000 C 
ATOM      6  C   UNL     1      48.616   6.863  12.362  0.00  0.00    +0.000 C 
ENDROOT
BRANCH   1   7
ATOM      7  C   UNL     1      46.144   7.447  12.106  0.00  0.00    +0.000 C 
BRANCH   7  16
ATOM      8  C   UNL     1      43.462   2.887  11.660  0.00  0.00    +0.000 C 
ATOM      9  C   UNL     1      44.205   3.287  10.438  0.00  0.00    +0.000 A 
ATOM     10  C   UNL     1      44.516   2.511   9.336  0.00  0.00    +0.000 A 
ATOM     11  C   UNL     1      45.251   3.310   8.438  0.00  0.00    +0.000 A 
ATOM     12  C   UNL     1      45.414   4.540   9.033  0.00  0.00    +0.000 A 
ATOM     13  N   UNL     1      44.783   4.544  10.272  0.00  0.00    +0.000 N 
ATOM     14  C   UNL     1      44.726   5.638  11.172  0.00  0.00    +0.000 C 
ATOM     15  O   UNL     1      43.712   5.870  11.809  0.00  0.00    +0.000 OA
ATOM     16  N   UNL     1      45.936   6.296  11.245  0.00  0.00    +0.000 N 
ATOM     17  H   UNL     1      46.751   5.858  10.831  0.00  0.00    +0.000 HD
ENDBRANCH   7  16
ENDBRANCH   1   7
BRANCH   4  18
ATOM     18  C   UNL     1      48.558   6.798  16.251  0.00  0.00    +0.000 C 
BRANCH  18  19
ATOM     19  N   UNL     1      49.762   6.168  16.738  0.00  0.00    +0.000 N 
ATOM     20  C   UNL     1      49.719   5.022  17.493  0.00  0.00    +0.000 C 
ATOM     21  O   UNL     1      48.664   4.521  17.865  0.00  0.00    +0.000 OA
ATOM     22  H   UNL     1      50.647   6.452  16.327  0.00  0.00    +0.000 HD
BRANCH  20  23
ATOM     23  C   UNL     1      51.012   4.423  17.845  0.00  0.00    +0.000 A 
ATOM     24  C   UNL     1      51.986   5.198  18.465  0.00  0.00    +0.000 A 
ATOM     25  S   UNL     1      53.390   4.324  18.886  0.00  0.00    +0.000 S 
ATOM     26  C   UNL     1      52.718   2.873  18.307  0.00  0.00    +0.000 A 
ATOM     27  N   UNL     1      53.371   1.688  18.464  0.00  0.00    +0.000 NA
ATOM     28  C   UNL     1      52.738   0.664  17.995  0.00  0.00    +0.000 A 
ATOM     29  N   UNL     1      51.535   0.721  17.339  0.00  0.00    +0.000 N 
ATOM     30  C   UNL     1      50.875   1.904  17.095  0.00  0.00    +0.000 A 
ATOM     31  O   UNL     1      49.876   1.942  16.389  0.00  0.00    +0.000 OA
ATOM     32  C   UNL     1      51.493   3.069  17.702  0.00  0.00    +0.000 A 
ATOM     33  H   UNL     1      51.126  -0.110  16.937  0.00  0.00    +0.000 HD
ENDBRANCH  20  23
ENDBRANCH  18  19
ENDBRANCH   4  18
TORSDOF 5
ENDMDL
MODEL 7
REMARK VINA RESULT:    -7.678      2.880      3.707
REMARK INTER + INTRA:         -10.781
REMARK INTER:                 -10.200
REMARK INTRA:                  -0.581
REMARK UNBOUND:                -0.858
REMARK  Name = 
REMARK  6 active torsions:
REMARK  status: ('A' for Active; 'I' for Inactive)
REMARK    1  A    between atoms: C_1  and  C_2
REMARK    2  A    between atoms: N_9  and  C_10
REMARK    3  A    between atoms: C_10  and  C_11
REMARK    4  A    between atoms: C_14  and  C_15
REMARK    5  A    between atoms: C_15  and  N_16
REMARK    6  A    between atoms: C_17  and  C_19
REMARK                            x       y       z     vdW  Elec       q    Type
REMARK                         _______ _______ _______ _____ _____    ______ ____
ROOT
ATOM      1  C   UNL     1      44.189   3.104  12.511  0.00  0.00    +0.000 C 
ATOM      2  C   UNL     1      45.649   3.577  12.551  0.00  0.00    +0.000 C 
ATOM      3  C   UNL     1      45.844   4.978  11.972  0.00  0.00    +0.000 C 
ATOM      4  C   UNL     1      44.924   6.026  12.623  0.00  0.00    +0.000 C 
ATOM      5  C   UNL     1      43.461   5.555  12.638  0.00  0.00    +0.000 C 
ATOM      6  C   UNL     1      43.313   4.152  13.227  0.00  0.00    +0.000 C 
ENDROOT
BRANCH   1   7
ATOM      7  C   UNL     1      43.678   2.818  11.080  0.00  0.00    +0.000 C 
BRANCH   7  16
ATOM      8  C   UNL     1      46.813   0.143   7.733  0.00  0.00    +0.000 C 
ATOM      9  C   UNL     1      46.776   1.609   7.504  0.00  0.00    +0.000 A 
ATOM     10  C   UNL     1      47.644   2.377   6.748  0.00  0.00    +0.000 A 
ATOM     11  C   UNL     1      47.229   3.720   6.843  0.00  0.00    +0.000 A 
ATOM     12  C   UNL     1      46.148   3.748   7.694  0.00  0.00    +0.000 A 
ATOM     13  N   UNL     1      45.857   2.457   8.119  0.00  0.00    +0.000 N 
ATOM     14  C   UNL     1      44.804   2.088   8.994  0.00  0.00    +0.000 C 
ATOM     15  O   UNL     1      44.171   1.061   8.809  0.00  0.00    +0.000 OA
ATOM     16  N   UNL     1      44.678   2.979  10.038  0.00  0.00    +0.000 N 
ATOM     17  H   UNL     1      45.415   3.659  10.187  0.00  0.00    +0.000 HD
ENDBRANCH   7  16
ENDBRANCH   1   7
BRANCH   4  18
ATOM     18  C   UNL     1      45.025   7.391  11.920  0.00  0.00    +0.000 C 
BRANCH  18  19
ATOM     19  N   UNL     1      46.391   7.830  11.758  0.00  0.00    +0.000 N 
ATOM     20  C   UNL     1      47.020   8.588  12.713  0.00  0.00    +0.000 C 
ATOM     21  O   UNL     1      46.438   9.004  13.708  0.00  0.00    +0.000 OA
ATOM     22  H   UNL     1      46.952   7.382  11.038  0.00  0.00    +0.000 HD
BRANCH  20  23
ATOM     23  C   UNL     1      48.438   8.888  12.479  0.00  0.00    +0.000 A 
ATOM     24  C   UNL     1      48.797   9.804  11.497  0.00  0.00    +0.000 A 
ATOM     25  S   UNL     1      50.476  10.102  11.421  0.00  0.00    +0.000 S 
ATOM     26  C   UNL     1      50.768   9.062  12.733  0.00  0.00    +0.000 A 
ATOM     27  N   UNL     1      52.018   8.939  13.264  0.00  0.00    +0.000 NA
ATOM     28  C   UNL     1      52.093   8.131  14.269  0.00  0.00    +0.000 A 
ATOM     29  N   UNL     1      51.046   7.396  14.762  0.00  0.00    +0.000 N 
ATOM     30  C   UNL     1      49.784   7.434  14.212  0.00  0.00    +0.000 A 
ATOM     31  O   UNL     1      48.905   6.667  14.581  0.00  0.00    +0.000 OA
ATOM     32  C   UNL     1      49.625   8.412  13.152  0.00  0.00    +0.000 A 
ATOM     33  H   UNL     1      51.187   6.730  15.508  0.00  0.00    +0.000 HD
ENDBRANCH  20  23
ENDBRANCH  18  19
ENDBRANCH   4  18
TORSDOF 5
ENDMDL
MODEL 8
REMARK VINA RESULT:    -7.489      2.860      8.261
REMARK INTER + INTRA:         -10.536
REMARK INTER:                  -9.601
REMARK INTRA:                  -0.935
REMARK UNBOUND:                -0.858
REMARK  Name = 
REMARK  6 active torsions:
REMARK  status: ('A' for Active; 'I' for Inactive)
REMARK    1  A    between atoms: C_1  and  C_2
REMARK    2  A    between atoms: N_9  and  C_10
REMARK    3  A    between atoms: C_10  and  C_11
REMARK    4  A    between atoms: C_14  and  C_15
REMARK    5  A    between atoms: C_15  and  N_16
REMARK    6  A    between atoms: C_17  and  C_19
REMARK                            x       y       z     vdW  Elec       q    Type
REMARK                         _______ _______ _______ _____ _____    ______ ____
ROOT
ATOM      1  C   UNL     1      49.753   8.569  14.882  0.00  0.00    +0.000 C 
ATOM      2  C   UNL     1      49.764   7.399  13.887  0.00  0.00    +0.000 C 
ATOM      3  C   UNL     1      48.449   7.247  13.123  0.00  0.00    +0.000 C 
ATOM      4  C   UNL     1      48.015   8.545  12.418  0.00  0.00    +0.000 C 
ATOM      5  C   UNL     1      48.042   9.741  13.383  0.00  0.00    +0.000 C 
ATOM      6  C   UNL     1      49.375   9.856  14.122  0.00  0.00    +0.000 C 
ENDROOT
BRANCH   1   7
ATOM      7  C   UNL     1      48.826   8.331  16.095  0.00  0.00    +0.000 C 
BRANCH   7  16
ATOM      8  C   UNL     1      50.934   3.705  17.626  0.00  0.00    +0.000 C 
ATOM      9  C   UNL     1      49.453   3.705  17.528  0.00  0.00    +0.000 A 
ATOM     10  C   UNL     1      48.600   2.616  17.502  0.00  0.00    +0.000 A 
ATOM     11  C   UNL     1      47.283   3.100  17.376  0.00  0.00    +0.000 A 
ATOM     12  C   UNL     1      47.366   4.471  17.278  0.00  0.00    +0.000 A 
ATOM     13  N   UNL     1      48.697   4.864  17.362  0.00  0.00    +0.000 N 
ATOM     14  C   UNL     1      49.174   6.197  17.312  0.00  0.00    +0.000 C 
ATOM     15  O   UNL     1      50.099   6.556  18.023  0.00  0.00    +0.000 OA
ATOM     16  N   UNL     1      48.514   6.935  16.353  0.00  0.00    +0.000 N 
ATOM     17  H   UNL     1      47.926   6.448  15.687  0.00  0.00    +0.000 HD
ENDBRANCH   7  16
ENDBRANCH   1   7
BRANCH   4  18
ATOM     18  C   UNL     1      46.618   8.414  11.789  0.00  0.00    +0.000 C 
BRANCH  18  19
ATOM     19  N   UNL     1      46.168   7.043  11.722  0.00  0.00    +0.000 N 
ATOM     20  C   UNL     1      44.850   6.730  11.499  0.00  0.00    +0.000 C 
ATOM     21  O   UNL     1      43.975   7.586  11.429  0.00  0.00    +0.000 OA
ATOM     22  H   UNL     1      46.871   6.317  11.615  0.00  0.00    +0.000 HD
BRANCH  20  23
ATOM     23  C   UNL     1      44.534   5.304  11.354  0.00  0.00    +0.000 A 
ATOM     24  C   UNL     1      43.828   4.648  12.355  0.00  0.00    +0.000 A 
ATOM     25  S   UNL     1      43.467   3.022  11.985  0.00  0.00    +0.000 S 
ATOM     26  C   UNL     1      44.191   3.160  10.453  0.00  0.00    +0.000 A 
ATOM     27  N   UNL     1      44.136   2.134   9.557  0.00  0.00    +0.000 NA
ATOM     28  C   UNL     1      44.710   2.382   8.427  0.00  0.00    +0.000 A 
ATOM     29  N   UNL     1      45.377   3.541   8.126  0.00  0.00    +0.000 N 
ATOM     30  C   UNL     1      45.520   4.573   9.024  0.00  0.00    +0.000 A 
ATOM     31  O   UNL     1      46.236   5.536   8.781  0.00  0.00    +0.000 OA
ATOM     32  C   UNL     1      44.796   4.386  10.269  0.00  0.00    +0.000 A 
ATOM     33  H   UNL     1      45.863   3.644   7.246  0.00  0.00    +0.000 HD
ENDBRANCH  20  23
ENDBRANCH  18  19
ENDBRANCH   4  18
TORSDOF 5
ENDMDL
MODEL 9
REMARK VINA RESULT:    -7.388      2.684      4.412
REMARK INTER + INTRA:         -10.406
REMARK INTER:                  -9.309
REMARK INTRA:                  -1.098
REMARK UNBOUND:                -0.858
REMARK  Name = 
REMARK  6 active torsions:
REMARK  status: ('A' for Active; 'I' for Inactive)
REMARK    1  A    between atoms: C_1  and  C_2
REMARK    2  A    between atoms: N_9  and  C_10
REMARK    3  A    between atoms: C_10  and  C_11
REMARK    4  A    between atoms: C_14  and  C_15
REMARK    5  A    between atoms: C_15  and  N_16
REMARK    6  A    between atoms: C_17  and  C_19
REMARK                            x       y       z     vdW  Elec       q    Type
REMARK                         _______ _______ _______ _____ _____    ______ ____
ROOT
ATOM      1  C   UNL     1      47.582   8.202  12.039  0.00  0.00    +0.000 C 
ATOM      2  C   UNL     1      47.510   9.461  12.916  0.00  0.00    +0.000 C 
ATOM      3  C   UNL     1      48.114   9.261  14.306  0.00  0.00    +0.000 C 
ATOM      4  C   UNL     1      49.556   8.724  14.258  0.00  0.00    +0.000 C 
ATOM      5  C   UNL     1      49.664   7.490  13.348  0.00  0.00    +0.000 C 
ATOM      6  C   UNL     1      49.050   7.736  11.969  0.00  0.00    +0.000 C 
ENDROOT
BRANCH   1   7
ATOM      7  C   UNL     1      46.647   7.068  12.520  0.00  0.00    +0.000 C 
BRANCH   7  16
ATOM      8  C   UNL     1      43.485   2.939  11.454  0.00  0.00    +0.000 C 
ATOM      9  C   UNL     1      44.264   3.434  10.292  0.00  0.00    +0.000 A 
ATOM     10  C   UNL     1      44.487   2.802   9.081  0.00  0.00    +0.000 A 
ATOM     11  C   UNL     1      45.302   3.642   8.297  0.00  0.00    +0.000 A 
ATOM     12  C   UNL     1      45.599   4.745   9.065  0.00  0.00    +0.000 A 
ATOM     13  N   UNL     1      44.975   4.633  10.302  0.00  0.00    +0.000 N 
ATOM     14  C   UNL     1      45.040   5.580  11.355  0.00  0.00    +0.000 C 
ATOM     15  O   UNL     1      44.058   5.822  12.038  0.00  0.00    +0.000 OA
ATOM     16  N   UNL     1      46.314   6.087  11.502  0.00  0.00    +0.000 N 
ATOM     17  H   UNL     1      47.076   5.631  11.013  0.00  0.00    +0.000 HD
ENDBRANCH   7  16
ENDBRANCH   1   7
BRANCH   4  18
ATOM     18  C   UNL     1      50.086   8.384  15.662  0.00  0.00    +0.000 C 
BRANCH  18  19
ATOM     19  N   UNL     1      49.909   6.991  15.998  0.00  0.00    +0.000 N 
ATOM     20  C   UNL     1      49.090   6.599  17.026  0.00  0.00    +0.000 C 
ATOM     21  O   UNL     1      48.535   7.403  17.766  0.00  0.00    +0.000 OA
ATOM     22  H   UNL     1      50.216   6.297  15.322  0.00  0.00    +0.000 HD
BRANCH  20  23
ATOM     23  C   UNL     1      48.915   5.152  17.206  0.00  0.00    +0.000 A 
ATOM     24  C   UNL     1      47.639   4.600  17.167  0.00  0.00    +0.000 A 
ATOM     25  S   UNL     1      47.626   2.900  17.302  0.00  0.00    +0.000 S 
ATOM     26  C   UNL     1      49.324   2.843  17.358  0.00  0.00    +0.000 A 
ATOM     27  N   UNL     1      49.985   1.651  17.365  0.00  0.00    +0.000 NA
ATOM     28  C   UNL     1      51.272   1.755  17.390  0.00  0.00    +0.000 A 
ATOM     29  N   UNL     1      51.960   2.938  17.457  0.00  0.00    +0.000 N 
ATOM     30  C   UNL     1      51.333   4.162  17.524  0.00  0.00    +0.000 A 
ATOM     31  O   UNL     1      51.964   5.192  17.724  0.00  0.00    +0.000 OA
ATOM     32  C   UNL     1      49.889   4.101  17.387  0.00  0.00    +0.000 A 
ATOM     33  H   UNL     1      52.967   2.947  17.541  0.00  0.00    +0.000 HD
ENDBRANCH  20  23
ENDBRANCH  18  19
ENDBRANCH   4  18
TORSDOF 5
ENDMDL
