MODEL 1
REMARK VINA RESULT:    -9.379      0.000      0.000
REMARK INTER + INTRA:         -11.685
REMARK INTER:                 -11.572
REMARK INTRA:                  -0.113
REMARK UNBOUND:                -0.113
REMARK  Name = 
REMARK  4 active torsions:
REMARK  status: ('A' for Active; 'I' for Inactive)
REMARK    1  A    between atoms: C_2  and  C_4
REMARK    2  A    between atoms: N_8  and  C_9
REMARK    3  A    between atoms: C_9  and  C_10
REMARK    4  A    between atoms: C_12  and  C_13
REMARK                            x       y       z     vdW  Elec       q    Type
REMARK                         _______ _______ _______ _____ _____    ______ ____
ROOT
ATOM      1  C   UNL     1      43.988   4.415  11.467  0.00  0.00    +0.000 C 
ATOM      2  C   UNL     1      42.630   4.803  12.031  0.00  0.00    +0.000 C 
ATOM      3  C   UNL     1      43.219   5.617  10.926  0.00  0.00    +0.000 C 
ENDROOT
BRANCH   1   8
ATOM      4  C   UNL     1      46.605   2.656   7.384  0.00  0.00    +0.000 A 
ATOM      5  C   UNL     1      46.236   3.956   7.718  0.00  0.00    +0.000 A 
ATOM      6  C   UNL     1      45.377   4.163   8.802  0.00  0.00    +0.000 A 
ATOM      7  C   UNL     1      44.919   3.071   9.538  0.00  0.00    +0.000 A 
ATOM      8  N   UNL     1      44.077   3.194  10.645  0.00  0.00    +0.000 N 
ATOM      9  N   UNL     1      45.247   1.807   9.202  0.00  0.00    +0.000 NA
ATOM     10  C   UNL     1      46.069   1.622   8.134  0.00  0.00    +0.000 A 
ATOM     11  H   UNL     1      43.980   2.282  11.078  0.00  0.00    +0.000 HD
BRANCH   4  13
ATOM     12  N   UNL     1      47.427   3.109   5.143  0.00  0.00    +0.000 N 
ATOM     13  C   UNL     1      47.515   2.333   6.266  0.00  0.00    +0.000 C 
ATOM     14  O   UNL     1      48.343   1.437   6.354  0.00  0.00    +0.000 OA
ATOM     15  H   UNL     1      48.123   2.946   4.426  0.00  0.00    +0.000 HD
ATOM     16  H   UNL     1      46.949   4.000   5.135  0.00  0.00    +0.000 HD
ENDBRANCH   4  13
ENDBRANCH   1   8
BRANCH   1  17
ATOM     17  C   UNL     1      45.274   4.788  12.220  0.00  0.00    +0.000 A 
ATOM     18  C   UNL     1      46.011   5.921  11.839  0.00  0.00    +0.000 A 
ATOM     19  C   UNL     1      47.141   6.330  12.560  0.00  0.00    +0.000 A 
ATOM     20  C   UNL     1      47.487   5.555  13.670  0.00  0.00    +0.000 A 
ATOM     21  C   UNL     1      46.723   4.447  13.995  0.00  0.00    +0.000 A 
ATOM     22  N   UNL     1      45.645   4.045  13.295  0.00  0.00    +0.000 NA
BRANCH  19  23
ATOM     23  C   UNL     1      47.928   7.528  12.176  0.00  0.00    +0.000 A 
ATOM     24  C   UNL     1      47.344   8.809  12.149  0.00  0.00    +0.000 A 
ATOM     25  C   UNL     1      48.085   9.950  11.831  0.00  0.00    +0.000 A 
ATOM     26  C   UNL     1      49.436   9.837  11.513  0.00  0.00    +0.000 A 
ATOM     27  C   UNL     1      50.037   8.583  11.511  0.00  0.00    +0.000 A 
ATOM     28  C   UNL     1      49.293   7.444  11.840  0.00  0.00    +0.000 A 
ENDBRANCH  19  23
ENDBRANCH   1  17
TORSDOF 4
ENDMDL
MODEL 2
REMARK VINA RESULT:    -8.946      1.656      3.408
REMARK INTER + INTRA:         -11.151
REMARK INTER:                 -11.102
REMARK INTRA:                  -0.049
REMARK UNBOUND:                -0.113
REMARK  Name = 
REMARK  4 active torsions:
REMARK  status: ('A' for Active; 'I' for Inactive)
REMARK    1  A    between atoms: C_2  and  C_4
REMARK    2  A    between atoms: N_8  and  C_9
REMARK    3  A    between atoms: C_9  and  C_10
REMARK    4  A    between atoms: C_12  and  C_13
REMARK                            x       y       z     vdW  Elec       q    Type
REMARK                         _______ _______ _______ _____ _____    ______ ____
ROOT
ATOM      1  C   UNL     1      43.973   4.797  11.586  0.00  0.00    +0.000 C 
ATOM      2  C   UNL     1      42.658   5.140  12.267  0.00  0.00    +0.000 C 
ATOM      3  C   UNL     1      43.045   5.868  11.021  0.00  0.00    +0.000 C 
ENDROOT
BRANCH   1   8
ATOM      4  C   UNL     1      46.424   2.747   7.535  0.00  0.00    +0.000 A 
ATOM      5  C   UNL     1      46.005   4.055   7.759  0.00  0.00    +0.000 A 
ATOM      6  C   UNL     1      45.205   4.333   8.873  0.00  0.00    +0.000 A 
ATOM      7  C   UNL     1      44.855   3.304   9.744  0.00  0.00    +0.000 A 
ATOM      8  N   UNL     1      44.078   3.502  10.888  0.00  0.00    +0.000 N 
ATOM      9  N   UNL     1      45.232   2.029   9.518  0.00  0.00    +0.000 NA
ATOM     10  C   UNL     1      45.994   1.773   8.421  0.00  0.00    +0.000 A 
ATOM     11  H   UNL     1      44.059   2.637  11.417  0.00  0.00    +0.000 HD
BRANCH   4  13
ATOM     12  N   UNL     1      47.319   3.199   5.323  0.00  0.00    +0.000 N 
ATOM     13  C   UNL     1      47.279   2.353   6.397  0.00  0.00    +0.000 C 
ATOM     14  O   UNL     1      47.958   1.336   6.429  0.00  0.00    +0.000 OA
ATOM     15  H   UNL     1      47.986   2.971   4.594  0.00  0.00    +0.000 HD
ATOM     16  H   UNL     1      46.986   4.152   5.369  0.00  0.00    +0.000 HD
ENDBRANCH   4  13
ENDBRANCH   1   8
BRANCH   1  17
ATOM     17  C   UNL     1      45.297   5.348  12.137  0.00  0.00    +0.000 A 
ATOM     18  C   UNL     1      45.776   4.913  13.383  0.00  0.00    +0.000 A 
ATOM     19  C   UNL     1      47.020   5.336  13.872  0.00  0.00    +0.000 A 
ATOM     20  C   UNL     1      47.749   6.203  13.054  0.00  0.00    +0.000 A 
ATOM     21  C   UNL     1      47.223   6.599  11.837  0.00  0.00    +0.000 A 
ATOM     22  N   UNL     1      46.022   6.204  11.372  0.00  0.00    +0.000 NA
BRANCH  19  23
ATOM     23  C   UNL     1      47.546   4.883  15.183  0.00  0.00    +0.000 A 
ATOM     24  C   UNL     1      48.401   5.698  15.949  0.00  0.00    +0.000 A 
ATOM     25  C   UNL     1      48.869   5.300  17.205  0.00  0.00    +0.000 A 
ATOM     26  C   UNL     1      48.505   4.061  17.723  0.00  0.00    +0.000 A 
ATOM     27  C   UNL     1      47.678   3.224  16.981  0.00  0.00    +0.000 A 
ATOM     28  C   UNL     1      47.204   3.631  15.728  0.00  0.00    +0.000 A 
ENDBRANCH  19  23
ENDBRANCH   1  17
TORSDOF 4
ENDMDL
MODEL 3
REMARK VINA RESULT:    -7.772      3.833      7.559
REMARK INTER + INTRA:          -9.702
REMARK INTER:                  -9.269
REMARK INTRA:                  -0.433
REMARK UNBOUND:                -0.113
REMARK  Name = 
REMARK  4 active torsions:
REMARK  status: ('A' for Active; 'I' for Inactive)
REMARK    1  A    between atoms: C_2  and  C_4
REMARK    2  A    between atoms: N_8  and  C_9
REMARK    3  A    between atoms: C_9  and  C_10
REMARK    4  A    between atoms: C_12  and  C_13
REMARK                            x       y       z     vdW  Elec       q    Type
REMARK                         _______ _______ _______ _____ _____    ______ ____
ROOT
ATOM      1  C   UNL     1      48.462   7.755  12.792  0.00  0.00    +0.000 C 
ATOM      2  C   UNL     1      49.700   7.395  11.985  0.00  0.00    +0.000 C 
ATOM      3  C   UNL     1      49.247   8.817  12.028  0.00  0.00    +0.000 C 
ENDROOT
BRANCH   1   8
ATOM      4  C   UNL     1      47.893   4.367  16.640  0.00  0.00    +0.000 A 
ATOM      5  C   UNL     1      47.278   4.416  15.394  0.00  0.00    +0.000 A 
ATOM      6  C   UNL     1      47.474   5.537  14.580  0.00  0.00    +0.000 A 
ATOM      7  C   UNL     1      48.292   6.575  15.022  0.00  0.00    +0.000 A 
ATOM      8  N   UNL     1      48.556   7.717  14.263  0.00  0.00    +0.000 N 
ATOM      9  N   UNL     1      48.868   6.548  16.242  0.00  0.00    +0.000 NA
ATOM     10  C   UNL     1      48.652   5.459  17.027  0.00  0.00    +0.000 A 
ATOM     11  H   UNL     1      49.264   8.264  14.741  0.00  0.00    +0.000 HD
BRANCH   4  13
ATOM     12  N   UNL     1      48.835   2.929  18.357  0.00  0.00    +0.000 N 
ATOM     13  C   UNL     1      47.758   3.224  17.567  0.00  0.00    +0.000 C 
ATOM     14  O   UNL     1      46.714   2.593  17.657  0.00  0.00    +0.000 OA
ATOM     15  H   UNL     1      48.696   2.212  19.059  0.00  0.00    +0.000 HD
ATOM     16  H   UNL     1      49.601   3.574  18.495  0.00  0.00    +0.000 HD
ENDBRANCH   4  13
ENDBRANCH   1   8
BRANCH   1  17
ATOM     17  C   UNL     1      47.061   7.485  12.222  0.00  0.00    +0.000 A 
ATOM     18  C   UNL     1      46.836   6.364  11.408  0.00  0.00    +0.000 A 
ATOM     19  C   UNL     1      45.552   6.048  10.943  0.00  0.00    +0.000 A 
ATOM     20  C   UNL     1      44.519   6.904  11.336  0.00  0.00    +0.000 A 
ATOM     21  C   UNL     1      44.804   7.996  12.137  0.00  0.00    +0.000 A 
ATOM     22  N   UNL     1      46.039   8.307  12.573  0.00  0.00    +0.000 NA
BRANCH  19  23
ATOM     23  C   UNL     1      45.293   4.865  10.086  0.00  0.00    +0.000 A 
ATOM     24  C   UNL     1      45.688   4.840   8.735  0.00  0.00    +0.000 A 
ATOM     25  C   UNL     1      45.488   3.715   7.930  0.00  0.00    +0.000 A 
ATOM     26  C   UNL     1      44.868   2.584   8.454  0.00  0.00    +0.000 A 
ATOM     27  C   UNL     1      44.448   2.585   9.780  0.00  0.00    +0.000 A 
ATOM     28  C   UNL     1      44.660   3.711  10.586  0.00  0.00    +0.000 A 
ENDBRANCH  19  23
ENDBRANCH   1  17
TORSDOF 4
ENDMDL
MODEL 4
REMARK VINA RESULT:    -7.638      3.094      6.800
REMARK INTER + INTRA:          -9.536
REMARK INTER:                  -9.381
REMARK INTRA:                  -0.155
REMARK UNBOUND:                -0.113
REMARK  Name = 
REMARK  4 active torsions:
REMARK  status: ('A' for Active; 'I' for Inactive)
REMARK    1  A    between atoms: C_2  and  C_4
REMARK    2  A    between atoms: N_8  and  C_9
REMARK    3  A    between atoms: C_9  and  C_10
REMARK    4  A    between atoms: C_12  and  C_13
REMARK                            x       y       z     vdW  Elec       q    Type
REMARK                         _______ _______ _______ _____ _____    ______ ____
ROOT
ATOM      1  C   UNL     1      44.999   5.834  12.095  0.00  0.00    +0.000 C 
ATOM      2  C   UNL     1      44.717   7.200  11.492  0.00  0.00    +0.000 C 
ATOM      3  C   UNL     1      43.781   6.649  12.516  0.00  0.00    +0.000 C 
ENDROOT
BRANCH   1   8
ATOM      4  C   UNL     1      49.668   7.892  12.853  0.00  0.00    +0.000 A 
ATOM      5  C   UNL     1      48.949   7.716  11.675  0.00  0.00    +0.000 A 
ATOM      6  C   UNL     1      47.763   6.974  11.705  0.00  0.00    +0.000 A 
ATOM      7  C   UNL     1      47.315   6.440  12.911  0.00  0.00    +0.000 A 
ATOM      8  N   UNL     1      46.132   5.706  13.030  0.00  0.00    +0.000 N 
ATOM      9  N   UNL     1      48.021   6.582  14.052  0.00  0.00    +0.000 NA
ATOM     10  C   UNL     1      49.181   7.290  14.001  0.00  0.00    +0.000 A 
ATOM     11  H   UNL     1      45.961   5.530  14.014  0.00  0.00    +0.000 HD
BRANCH   4  13
ATOM     12  N   UNL     1      52.087   8.001  12.660  0.00  0.00    +0.000 N 
ATOM     13  C   UNL     1      50.924   8.668  12.928  0.00  0.00    +0.000 C 
ATOM     14  O   UNL     1      50.922   9.866  13.176  0.00  0.00    +0.000 OA
ATOM     15  H   UNL     1      52.929   8.563  12.613  0.00  0.00    +0.000 HD
ATOM     16  H   UNL     1      52.104   7.098  12.206  0.00  0.00    +0.000 HD
ENDBRANCH   4  13
ENDBRANCH   1   8
BRANCH   1  17
ATOM     17  C   UNL     1      44.654   4.556  11.314  0.00  0.00    +0.000 A 
ATOM     18  C   UNL     1      45.358   4.235  10.142  0.00  0.00    +0.000 A 
ATOM     19  C   UNL     1      45.121   3.036   9.456  0.00  0.00    +0.000 A 
ATOM     20  C   UNL     1      44.155   2.186  10.002  0.00  0.00    +0.000 A 
ATOM     21  C   UNL     1      43.492   2.559  11.159  0.00  0.00    +0.000 A 
ATOM     22  N   UNL     1      43.710   3.716  11.811  0.00  0.00    +0.000 NA
BRANCH  19  23
ATOM     23  C   UNL     1      45.859   2.677   8.220  0.00  0.00    +0.000 A 
ATOM     24  C   UNL     1      46.035   3.608   7.178  0.00  0.00    +0.000 A 
ATOM     25  C   UNL     1      46.765   3.295   6.027  0.00  0.00    +0.000 A 
ATOM     26  C   UNL     1      47.326   2.029   5.881  0.00  0.00    +0.000 A 
ATOM     27  C   UNL     1      47.151   1.082   6.883  0.00  0.00    +0.000 A 
ATOM     28  C   UNL     1      46.428   1.403   8.039  0.00  0.00    +0.000 A 
ENDBRANCH  19  23
ENDBRANCH   1  17
TORSDOF 4
ENDMDL
MODEL 5
REMARK VINA RESULT:    -7.151      5.723      8.785
REMARK INTER + INTRA:          -8.936
REMARK INTER:                  -8.544
REMARK INTRA:                  -0.392
REMARK UNBOUND:                -0.113
REMARK  Name = 
REMARK  4 active torsions:
REMARK  status: ('A' for Active; 'I' for Inactive)
REMARK    1  A    between atoms: C_2  and  C_4
REMARK    2  A    between atoms: N_8  and  C_9
REMARK    3  A    between atoms: C_9  and  C_10
REMARK    4  A    between atoms: C_12  and  C_13
REMARK                            x       y       z     vdW  Elec       q    Type
REMARK                         _______ _______ _______ _____ _____    ______ ____
ROOT
ATOM      1  C   UNL     1      48.263   3.271  17.003  0.00  0.00    +0.000 C 
ATOM      2  C   UNL     1      48.033   3.649  18.457  0.00  0.00    +0.000 C 
ATOM      3  C   UNL     1      46.973   2.894  17.725  0.00  0.00    +0.000 C 
ENDROOT
BRANCH   1   8
ATOM      4  C   UNL     1      53.145   2.072  18.162  0.00  0.00    +0.000 A 
ATOM      5  C   UNL     1      52.527   3.315  18.070  0.00  0.00    +0.000 A 
ATOM      6  C   UNL     1      51.222   3.392  17.572  0.00  0.00    +0.000 A 
ATOM      7  C   UNL     1      50.559   2.227  17.192  0.00  0.00    +0.000 A 
ATOM      8  N   UNL     1      49.250   2.215  16.706  0.00  0.00    +0.000 N 
ATOM      9  N   UNL     1      51.162   1.021  17.251  0.00  0.00    +0.000 NA
ATOM     10  C   UNL     1      52.436   0.967  17.720  0.00  0.00    +0.000 A 
ATOM     11  H   UNL     1      48.950   1.251  16.613  0.00  0.00    +0.000 HD
BRANCH   4  13
ATOM     12  N   UNL     1      54.646   1.196  19.860  0.00  0.00    +0.000 N 
ATOM     13  C   UNL     1      54.514   1.884  18.685  0.00  0.00    +0.000 C 
ATOM     14  O   UNL     1      55.494   2.287  18.074  0.00  0.00    +0.000 OA
ATOM     15  H   UNL     1      55.591   0.984  20.155  0.00  0.00    +0.000 HD
ATOM     16  H   UNL     1      53.899   0.635  20.248  0.00  0.00    +0.000 HD
ENDBRANCH   4  13
ENDBRANCH   1   8
BRANCH   1  17
ATOM     17  C   UNL     1      48.074   4.315  15.892  0.00  0.00    +0.000 A 
ATOM     18  C   UNL     1      47.213   4.049  14.815  0.00  0.00    +0.000 A 
ATOM     19  C   UNL     1      46.958   5.015  13.832  0.00  0.00    +0.000 A 
ATOM     20  C   UNL     1      47.600   6.247  13.987  0.00  0.00    +0.000 A 
ATOM     21  C   UNL     1      48.439   6.449  15.069  0.00  0.00    +0.000 A 
ATOM     22  N   UNL     1      48.696   5.517  16.006  0.00  0.00    +0.000 NA
BRANCH  19  23
ATOM     23  C   UNL     1      46.047   4.755  12.690  0.00  0.00    +0.000 A 
ATOM     24  C   UNL     1      45.773   5.750  11.732  0.00  0.00    +0.000 A 
ATOM     25  C   UNL     1      44.951   5.504  10.629  0.00  0.00    +0.000 A 
ATOM     26  C   UNL     1      44.364   4.253  10.463  0.00  0.00    +0.000 A 
ATOM     27  C   UNL     1      44.599   3.256  11.403  0.00  0.00    +0.000 A 
ATOM     28  C   UNL     1      45.431   3.503  12.501  0.00  0.00    +0.000 A 
ENDBRANCH  19  23
ENDBRANCH   1  17
TORSDOF 4
ENDMDL
MODEL 6
REMARK VINA RESULT:    -7.113      3.429      7.004
REMARK INTER + INTRA:          -8.889
REMARK INTER:                  -8.433
REMARK INTRA:                  -0.456
REMARK UNBOUND:                -0.113
REMARK  Name = 
REMARK  4 active torsions:
REMARK  status: ('A' for Active; 'I' for Inactive)
REMARK    1  A    between atoms: C_2  and  C_4
REMARK    2  A    between atoms: N_8  and  C_9
REMARK    3  A    between atoms: C_9  and  C_10
REMARK    4  A    between atoms: C_12  and  C_13
REMARK                            x       y       z     vdW  Elec       q    Type
REMARK                         _______ _______ _______ _____ _____    ______ ____
ROOT
ATOM      1  C   UNL     1      46.192   4.827  12.950  0.00  0.00    +0.000 C 
ATOM      2  C   UNL     1      45.874   4.647  14.426  0.00  0.00    +0.000 C 
ATOM      3  C   UNL     1      47.044   3.928  13.840  0.00  0.00    +0.000 C 
ENDROOT
BRANCH   1   8
ATOM      4  C   UNL     1      44.495   9.481  11.511  0.00  0.00    +0.000 A 
ATOM      5  C   UNL     1      43.894   8.233  11.388  0.00  0.00    +0.000 A 
ATOM      6  C   UNL     1      44.631   7.087  11.705  0.00  0.00    +0.000 A 
ATOM      7  C   UNL     1      45.945   7.215  12.153  0.00  0.00    +0.000 A 
ATOM      8  N   UNL     1      46.740   6.124  12.510  0.00  0.00    +0.000 N 
ATOM      9  N   UNL     1      46.544   8.419  12.247  0.00  0.00    +0.000 NA
ATOM     10  C   UNL     1      45.819   9.521  11.917  0.00  0.00    +0.000 A 
ATOM     11  H   UNL     1      47.603   6.473  12.912  0.00  0.00    +0.000 HD
BRANCH   4  13
ATOM     12  N   UNL     1      42.820  11.146  12.083  0.00  0.00    +0.000 N 
ATOM     13  C   UNL     1      43.798  10.750  11.213  0.00  0.00    +0.000 C 
ATOM     14  O   UNL     1      44.111  11.441  10.253  0.00  0.00    +0.000 OA
ATOM     15  H   UNL     1      42.422  12.064  11.926  0.00  0.00    +0.000 HD
ATOM     16  H   UNL     1      42.718  10.744  13.005  0.00  0.00    +0.000 HD
ENDBRANCH   4  13
ENDBRANCH   1   8
BRANCH   1  17
ATOM     17  C   UNL     1      45.387   4.066  11.886  0.00  0.00    +0.000 A 
ATOM     18  C   UNL     1      45.965   3.776  10.639  0.00  0.00    +0.000 A 
ATOM     19  C   UNL     1      45.284   3.012   9.681  0.00  0.00    +0.000 A 
ATOM     20  C   UNL     1      44.011   2.558  10.037  0.00  0.00    +0.000 A 
ATOM     21  C   UNL     1      43.493   2.879  11.280  0.00  0.00    +0.000 A 
ATOM     22  N   UNL     1      44.141   3.624  12.195  0.00  0.00    +0.000 NA
BRANCH  19  23
ATOM     23  C   UNL     1      45.880   2.691   8.361  0.00  0.00    +0.000 A 
ATOM     24  C   UNL     1      45.964   3.659   7.342  0.00  0.00    +0.000 A 
ATOM     25  C   UNL     1      46.562   3.380   6.110  0.00  0.00    +0.000 A 
ATOM     26  C   UNL     1      47.079   2.112   5.857  0.00  0.00    +0.000 A 
ATOM     27  C   UNL     1      46.993   1.129   6.836  0.00  0.00    +0.000 A 
ATOM     28  C   UNL     1      46.402   1.415   8.073  0.00  0.00    +0.000 A 
ENDBRANCH  19  23
ENDBRANCH   1  17
TORSDOF 4
ENDMDL
MODEL 7
REMARK VINA RESULT:    -7.075      3.388      6.905
REMARK INTER + INTRA:          -8.842
REMARK INTER:                  -8.384
REMARK INTRA:                  -0.458
REMARK UNBOUND:                -0.113
REMARK  Name = 
REMARK  4 active torsions:
REMARK  status: ('A' for Active; 'I' for Inactive)
REMARK    1  A    between atoms: C_2  and  C_4
REMARK    2  A    between atoms: N_8  and  C_9
REMARK    3  A    between atoms: C_9  and  C_10
REMARK    4  A    between atoms: C_12  and  C_13
REMARK                            x       y       z     vdW  Elec       q    Type
REMARK                         _______ _______ _______ _____ _____    ______ ____
ROOT
ATOM      1  C   UNL     1      45.654   7.926  12.514  0.00  0.00    +0.000 C 
ATOM      2  C   UNL     1      45.722   9.080  11.527  0.00  0.00    +0.000 C 
ATOM      3  C   UNL     1      44.693   9.107  12.609  0.00  0.00    +0.000 C 
ENDROOT
BRANCH   1   8
ATOM      4  C   UNL     1      50.798   8.242  12.745  0.00  0.00    +0.000 A 
ATOM      5  C   UNL     1      49.972   7.862  11.692  0.00  0.00    +0.000 A 
ATOM      6  C   UNL     1      48.603   7.694  11.926  0.00  0.00    +0.000 A 
ATOM      7  C   UNL     1      48.088   7.925  13.201  0.00  0.00    +0.000 A 
ATOM      8  N   UNL     1      46.733   7.800  13.512  0.00  0.00    +0.000 N 
ATOM      9  N   UNL     1      48.887   8.264  14.233  0.00  0.00    +0.000 NA
ATOM     10  C   UNL     1      50.218   8.405  13.992  0.00  0.00    +0.000 A 
ATOM     11  H   UNL     1      46.589   8.131  14.460  0.00  0.00    +0.000 HD
BRANCH   4  13
ATOM     12  N   UNL     1      53.064   7.927  13.562  0.00  0.00    +0.000 N 
ATOM     13  C   UNL     1      52.253   8.457  12.597  0.00  0.00    +0.000 C 
ATOM     14  O   UNL     1      52.718   9.046  11.631  0.00  0.00    +0.000 OA
ATOM     15  H   UNL     1      54.061   7.991  13.398  0.00  0.00    +0.000 HD
ATOM     16  H   UNL     1      52.743   7.228  14.218  0.00  0.00    +0.000 HD
ENDBRANCH   4  13
ENDBRANCH   1   8
BRANCH   1  17
ATOM     17  C   UNL     1      44.980   6.604  12.115  0.00  0.00    +0.000 A 
ATOM     18  C   UNL     1      45.437   5.890  10.997  0.00  0.00    +0.000 A 
ATOM     19  C   UNL     1      44.895   4.642  10.659  0.00  0.00    +0.000 A 
ATOM     20  C   UNL     1      43.886   4.154  11.493  0.00  0.00    +0.000 A 
ATOM     21  C   UNL     1      43.475   4.906  12.580  0.00  0.00    +0.000 A 
ATOM     22  N   UNL     1      43.986   6.111  12.898  0.00  0.00    +0.000 NA
BRANCH  19  23
ATOM     23  C   UNL     1      45.370   3.869   9.484  0.00  0.00    +0.000 A 
ATOM     24  C   UNL     1      45.920   4.513   8.360  0.00  0.00    +0.000 A 
ATOM     25  C   UNL     1      46.410   3.794   7.265  0.00  0.00    +0.000 A 
ATOM     26  C   UNL     1      46.345   2.404   7.260  0.00  0.00    +0.000 A 
ATOM     27  C   UNL     1      45.789   1.740   8.347  0.00  0.00    +0.000 A 
ATOM     28  C   UNL     1      45.309   2.463   9.446  0.00  0.00    +0.000 A 
ENDBRANCH  19  23
ENDBRANCH   1  17
TORSDOF 4
ENDMDL
MODEL 8
REMARK VINA RESULT:    -7.032      1.642      2.544
REMARK INTER + INTRA:          -8.789
REMARK INTER:                  -8.166
REMARK INTRA:                  -0.623
REMARK UNBOUND:                -0.113
REMARK  Name = 
REMARK  4 active torsions:
REMARK  status: ('A' for Active; 'I' for Inactive)
REMARK    1  A    between atoms: C_2  and  C_4
REMARK    2  A    between atoms: N_8  and  C_9
REMARK    3  A    between atoms: C_9  and  C_10
REMARK    4  A    between atoms: C_12  and  C_13
REMARK                            x       y       z     vdW  Elec       q    Type
REMARK                         _______ _______ _______ _____ _____    ______ ____
ROOT
ATOM      1  C   UNL     1      44.055   4.660  11.820  0.00  0.00    +0.000 C 
ATOM      2  C   UNL     1      44.903   3.979  12.883  0.00  0.00    +0.000 C 
ATOM      3  C   UNL     1      43.451   4.211  13.147  0.00  0.00    +0.000 C 
ENDROOT
BRANCH   1   8
ATOM      4  C   UNL     1      46.300   3.324   7.371  0.00  0.00    +0.000 A 
ATOM      5  C   UNL     1      46.500   4.443   8.173  0.00  0.00    +0.000 A 
ATOM      6  C   UNL     1      45.644   4.667   9.256  0.00  0.00    +0.000 A 
ATOM      7  C   UNL     1      44.618   3.762   9.523  0.00  0.00    +0.000 A 
ATOM      8  N   UNL     1      43.735   3.902  10.596  0.00  0.00    +0.000 N 
ATOM      9  N   UNL     1      44.399   2.691   8.733  0.00  0.00    +0.000 NA
ATOM     10  C   UNL     1      45.229   2.499   7.673  0.00  0.00    +0.000 A 
ATOM     11  H   UNL     1      43.161   3.067  10.651  0.00  0.00    +0.000 HD
BRANCH   4  13
ATOM     12  N   UNL     1      48.437   2.597   6.475  0.00  0.00    +0.000 N 
ATOM     13  C   UNL     1      47.155   2.993   6.212  0.00  0.00    +0.000 C 
ATOM     14  O   UNL     1      46.725   3.030   5.068  0.00  0.00    +0.000 OA
ATOM     15  H   UNL     1      48.981   2.275   5.684  0.00  0.00    +0.000 HD
ATOM     16  H   UNL     1      48.739   2.310   7.396  0.00  0.00    +0.000 HD
ENDBRANCH   4  13
ENDBRANCH   1   8
BRANCH   1  17
ATOM     17  C   UNL     1      44.110   6.185  11.645  0.00  0.00    +0.000 A 
ATOM     18  C   UNL     1      45.291   6.886  11.941  0.00  0.00    +0.000 A 
ATOM     19  C   UNL     1      45.396   8.265  11.712  0.00  0.00    +0.000 A 
ATOM     20  C   UNL     1      44.270   8.894  11.175  0.00  0.00    +0.000 A 
ATOM     21  C   UNL     1      43.133   8.151  10.907  0.00  0.00    +0.000 A 
ATOM     22  N   UNL     1      43.027   6.829  11.139  0.00  0.00    +0.000 NA
BRANCH  19  23
ATOM     23  C   UNL     1      46.636   9.021  12.013  0.00  0.00    +0.000 A 
ATOM     24  C   UNL     1      47.839   8.357  12.323  0.00  0.00    +0.000 A 
ATOM     25  C   UNL     1      49.025   9.058  12.566  0.00  0.00    +0.000 A 
ATOM     26  C   UNL     1      49.033  10.449  12.522  0.00  0.00    +0.000 A 
ATOM     27  C   UNL     1      47.856  11.133  12.240  0.00  0.00    +0.000 A 
ATOM     28  C   UNL     1      46.673  10.428  11.987  0.00  0.00    +0.000 A 
ENDBRANCH  19  23
ENDBRANCH   1  17
TORSDOF 4
ENDMDL
MODEL 9
REMARK VINA RESULT:    -6.932      4.099      6.417
REMARK INTER + INTRA:          -8.666
REMARK INTER:                  -8.186
REMARK INTRA:                  -0.480
REMARK UNBOUND:                -0.113
REMARK  Name = 
REMARK  4 active torsions:
REMARK  status: ('A' for Active; 'I' for Inactive)
REMARK    1  A    between atoms: C_2  and  C_4
REMARK    2  A    between atoms: N_8  and  C_9
REMARK    3  A    between atoms: C_9  and  C_10
REMARK    4  A    between atoms: C_12  and  C_13
REMARK                            x       y       z     vdW  Elec       q    Type
REMARK                         _______ _______ _______ _____ _____    ______ ____
ROOT
ATOM      1  C   UNL     1      45.766   4.771  12.826  0.00  0.00    +0.000 C 
ATOM      2  C   UNL     1      44.324   4.364  13.080  0.00  0.00    +0.000 C 
ATOM      3  C   UNL     1      44.880   4.251  11.699  0.00  0.00    +0.000 C 
ENDROOT
BRANCH   1   8
ATOM      4  C   UNL     1      48.226   3.887  17.273  0.00  0.00    +0.000 A 
ATOM      5  C   UNL     1      47.637   5.053  16.794  0.00  0.00    +0.000 A 
ATOM      6  C   UNL     1      47.173   5.089  15.474  0.00  0.00    +0.000 A 
ATOM      7  C   UNL     1      47.293   3.957  14.670  0.00  0.00    +0.000 A 
ATOM      8  N   UNL     1      46.837   3.904  13.351  0.00  0.00    +0.000 N 
ATOM      9  N   UNL     1      47.890   2.833  15.118  0.00  0.00    +0.000 NA
ATOM     10  C   UNL     1      48.352   2.822  16.397  0.00  0.00    +0.000 A 
ATOM     11  H   UNL     1      46.928   2.950  13.018  0.00  0.00    +0.000 HD
BRANCH   4  13
ATOM     12  N   UNL     1      48.150   2.793  19.441  0.00  0.00    +0.000 N 
ATOM     13  C   UNL     1      48.736   3.745  18.653  0.00  0.00    +0.000 C 
ATOM     14  O   UNL     1      49.671   4.419  19.062  0.00  0.00    +0.000 OA
ATOM     15  H   UNL     1      48.574   2.634  20.347  0.00  0.00    +0.000 HD
ATOM     16  H   UNL     1      47.567   2.058  19.063  0.00  0.00    +0.000 HD
ENDBRANCH   4  13
ENDBRANCH   1   8
BRANCH   1  17
ATOM     17  C   UNL     1      46.139   6.256  12.690  0.00  0.00    +0.000 A 
ATOM     18  C   UNL     1      47.426   6.622  12.265  0.00  0.00    +0.000 A 
ATOM     19  C   UNL     1      47.768   7.965  12.053  0.00  0.00    +0.000 A 
ATOM     20  C   UNL     1      46.762   8.907  12.283  0.00  0.00    +0.000 A 
ATOM     21  C   UNL     1      45.513   8.485  12.704  0.00  0.00    +0.000 A 
ATOM     22  N   UNL     1      45.188   7.196  12.921  0.00  0.00    +0.000 NA
BRANCH  19  23
ATOM     23  C   UNL     1      49.120   8.371  11.599  0.00  0.00    +0.000 A 
ATOM     24  C   UNL     1      49.463   9.729  11.448  0.00  0.00    +0.000 A 
ATOM     25  C   UNL     1      50.747  10.125  11.062  0.00  0.00    +0.000 A 
ATOM     26  C   UNL     1      51.722   9.167  10.798  0.00  0.00    +0.000 A 
ATOM     27  C   UNL     1      51.408   7.819  10.918  0.00  0.00    +0.000 A 
ATOM     28  C   UNL     1      50.124   7.426  11.316  0.00  0.00    +0.000 A 
ENDBRANCH  19  23
ENDBRANCH   1  17
TORSDOF 4
ENDMDL
