MODEL 1
REMARK VINA RESULT:    -9.270      0.000      0.000
REMARK INTER + INTRA:         -12.823
REMARK INTER:                 -11.980
REMARK INTRA:                  -0.843
REMARK UNBOUND:                -0.843
REMARK  Name = 
REMARK  5 active torsions:
REMARK  status: ('A' for Active; 'I' for Inactive)
REMARK    1  A    between atoms: C_2  and  C_4
REMARK    2  A    between atoms: C_7  and  N_8
REMARK    3  A    between atoms: N_8  and  C_9
REMARK    4  A    between atoms: C_9  and  C_10
REMARK    5  A    between atoms: C_12  and  C_13
REMARK                            x       y       z     vdW  Elec       q    Type
REMARK                         _______ _______ _______ _____ _____    ______ ____
ROOT
ATOM      1  C   UNL     1      44.872   5.015  11.753  0.00  0.00    +0.000 A 
ATOM      2  C   UNL     1      45.514   6.261  11.582  0.00  0.00    +0.000 A 
ATOM      3  C   UNL     1      46.706   6.598  12.255  0.00  0.00    +0.000 A 
ATOM      4  C   UNL     1      47.250   5.628  13.115  0.00  0.00    +0.000 A 
ATOM      5  C   UNL     1      46.627   4.393  13.286  0.00  0.00    +0.000 A 
ATOM      6  F   UNL     1      47.177   3.493  14.115  0.00  0.00    +0.000 F 
ATOM      7  C   UNL     1      45.447   4.089  12.619  0.00  0.00    +0.000 A 
ATOM      8  F   UNL     1      44.862   2.898  12.811  0.00  0.00    +0.000 F 
ENDROOT
BRANCH   3   9
ATOM      9  C   UNL     1      47.355   7.920  12.068  0.00  0.00    +0.000 A 
ATOM     10  C   UNL     1      46.649   9.122  12.279  0.00  0.00    +0.000 A 
ATOM     11  C   UNL     1      47.253  10.373  12.102  0.00  0.00    +0.000 A 
ATOM     12  C   UNL     1      48.587  10.450  11.718  0.00  0.00    +0.000 A 
ATOM     13  C   UNL     1      49.299   9.278  11.512  0.00  0.00    +0.000 A 
ATOM     14  F   UNL     1      50.586   9.346  11.147  0.00  0.00    +0.000 F 
ATOM     15  C   UNL     1      48.700   8.030  11.676  0.00  0.00    +0.000 A 
ENDBRANCH   3   9
BRANCH   1  16
ATOM     16  C   UNL     1      43.572   4.726  11.044  0.00  0.00    +0.000 C 
BRANCH  16  17
ATOM     17  N   UNL     1      43.776   4.911   9.611  0.00  0.00    +0.000 N 
ATOM     18  H   UNL     1      44.088   5.856   9.402  0.00  0.00    +0.000 HD
BRANCH  17  22
ATOM     19  C   UNL     1      46.206   2.053   7.936  0.00  0.00    +0.000 A 
ATOM     20  C   UNL     1      46.342   3.387   7.585  0.00  0.00    +0.000 A 
ATOM     21  N   UNL     1      45.541   4.363   8.094  0.00  0.00    +0.000 NA
ATOM     22  C   UNL     1      44.592   3.973   8.971  0.00  0.00    +0.000 A 
ATOM     23  C   UNL     1      44.479   2.617   9.316  0.00  0.00    +0.000 A 
ATOM     24  N   UNL     1      45.260   1.624   8.812  0.00  0.00    +0.000 NA
BRANCH  19  26
ATOM     25  N   UNL     1      46.826  -0.270   7.646  0.00  0.00    +0.000 N 
ATOM     26  C   UNL     1      47.121   1.035   7.351  0.00  0.00    +0.000 C 
ATOM     27  O   UNL     1      48.075   1.339   6.648  0.00  0.00    +0.000 OA
ATOM     28  H   UNL     1      47.403  -1.007   7.269  0.00  0.00    +0.000 HD
ATOM     29  H   UNL     1      46.020  -0.492   8.220  0.00  0.00    +0.000 HD
ENDBRANCH  19  26
ENDBRANCH  17  22
ENDBRANCH  16  17
ENDBRANCH   1  16
TORSDOF 5
ENDMDL
MODEL 2
REMARK VINA RESULT:    -9.270      0.949      1.334
REMARK INTER + INTRA:         -12.823
REMARK INTER:                 -11.971
REMARK INTRA:                  -0.852
REMARK UNBOUND:                -0.843
REMARK  Name = 
REMARK  5 active torsions:
REMARK  status: ('A' for Active; 'I' for Inactive)
REMARK    1  A    between atoms: C_2  and  C_4
REMARK    2  A    between atoms: C_7  and  N_8
REMARK    3  A    between atoms: N_8  and  C_9
REMARK    4  A    between atoms: C_9  and  C_10
REMARK    5  A    between atoms: C_12  and  C_13
REMARK                            x       y       z     vdW  Elec       q    Type
REMARK                         _______ _______ _______ _____ _____    ______ ____
ROOT
ATOM      1  C   UNL     1      44.843   5.017  11.722  0.00  0.00    +0.000 A 
ATOM      2  C   UNL     1      45.467   6.273  11.567  0.00  0.00    +0.000 A 
ATOM      3  C   UNL     1      46.643   6.626  12.263  0.00  0.00    +0.000 A 
ATOM      4  C   UNL     1      47.186   5.661  13.128  0.00  0.00    +0.000 A 
ATOM      5  C   UNL     1      46.580   4.415  13.282  0.00  0.00    +0.000 A 
ATOM      6  F   UNL     1      47.130   3.521  14.117  0.00  0.00    +0.000 F 
ATOM      7  C   UNL     1      45.417   4.095  12.593  0.00  0.00    +0.000 A 
ATOM      8  F   UNL     1      44.848   2.895  12.770  0.00  0.00    +0.000 F 
ENDROOT
BRANCH   3   9
ATOM      9  C   UNL     1      47.273   7.959  12.094  0.00  0.00    +0.000 A 
ATOM     10  C   UNL     1      48.654   8.093  11.841  0.00  0.00    +0.000 A 
ATOM     11  C   UNL     1      49.257   9.348  11.683  0.00  0.00    +0.000 A 
ATOM     12  C   UNL     1      48.486  10.501  11.764  0.00  0.00    +0.000 A 
ATOM     13  C   UNL     1      47.125  10.388  12.005  0.00  0.00    +0.000 A 
ATOM     14  F   UNL     1      46.375  11.497  12.078  0.00  0.00    +0.000 F 
ATOM     15  C   UNL     1      46.521   9.143  12.174  0.00  0.00    +0.000 A 
ENDBRANCH   3   9
BRANCH   1  16
ATOM     16  C   UNL     1      43.560   4.710  10.989  0.00  0.00    +0.000 C 
BRANCH  16  17
ATOM     17  N   UNL     1      43.787   4.906   9.560  0.00  0.00    +0.000 N 
ATOM     18  H   UNL     1      44.110   5.849   9.363  0.00  0.00    +0.000 HD
BRANCH  17  22
ATOM     19  C   UNL     1      46.221   2.044   7.898  0.00  0.00    +0.000 A 
ATOM     20  C   UNL     1      46.350   3.375   7.536  0.00  0.00    +0.000 A 
ATOM     21  N   UNL     1      45.548   4.352   8.041  0.00  0.00    +0.000 NA
ATOM     22  C   UNL     1      44.604   3.965   8.924  0.00  0.00    +0.000 A 
ATOM     23  C   UNL     1      44.496   2.611   9.280  0.00  0.00    +0.000 A 
ATOM     24  N   UNL     1      45.279   1.618   8.780  0.00  0.00    +0.000 NA
BRANCH  19  26
ATOM     25  N   UNL     1      46.870  -0.276   7.653  0.00  0.00    +0.000 N 
ATOM     26  C   UNL     1      47.138   1.024   7.317  0.00  0.00    +0.000 C 
ATOM     27  O   UNL     1      48.070   1.324   6.583  0.00  0.00    +0.000 OA
ATOM     28  H   UNL     1      47.450  -1.015   7.282  0.00  0.00    +0.000 HD
ATOM     29  H   UNL     1      46.082  -0.495   8.252  0.00  0.00    +0.000 HD
ENDBRANCH  19  26
ENDBRANCH  17  22
ENDBRANCH  16  17
ENDBRANCH   1  16
TORSDOF 5
ENDMDL
MODEL 3
REMARK VINA RESULT:    -8.594      4.118      7.238
REMARK INTER + INTRA:         -11.950
REMARK INTER:                 -11.403
REMARK INTRA:                  -0.546
REMARK UNBOUND:                -0.843
REMARK  Name = 
REMARK  5 active torsions:
REMARK  status: ('A' for Active; 'I' for Inactive)
REMARK    1  A    between atoms: C_2  and  C_4
REMARK    2  A    between atoms: C_7  and  N_8
REMARK    3  A    between atoms: N_8  and  C_9
REMARK    4  A    between atoms: C_9  and  C_10
REMARK    5  A    between atoms: C_12  and  C_13
REMARK                            x       y       z     vdW  Elec       q    Type
REMARK                         _______ _______ _______ _____ _____    ______ ____
ROOT
ATOM      1  C   UNL     1      45.495   6.131  11.201  0.00  0.00    +0.000 A 
ATOM      2  C   UNL     1      46.012   5.298  10.187  0.00  0.00    +0.000 A 
ATOM      3  C   UNL     1      45.230   4.317   9.540  0.00  0.00    +0.000 A 
ATOM      4  C   UNL     1      43.890   4.200   9.945  0.00  0.00    +0.000 A 
ATOM      5  C   UNL     1      43.369   5.023  10.941  0.00  0.00    +0.000 A 
ATOM      6  F   UNL     1      42.084   4.882  11.299  0.00  0.00    +0.000 F 
ATOM      7  C   UNL     1      44.162   5.975  11.571  0.00  0.00    +0.000 A 
ATOM      8  F   UNL     1      43.638   6.745  12.535  0.00  0.00    +0.000 F 
ENDROOT
BRANCH   3   9
ATOM      9  C   UNL     1      45.801   3.444   8.484  0.00  0.00    +0.000 A 
ATOM     10  C   UNL     1      46.272   3.974   7.265  0.00  0.00    +0.000 A 
ATOM     11  C   UNL     1      46.809   3.156   6.263  0.00  0.00    +0.000 A 
ATOM     12  C   UNL     1      46.897   1.783   6.464  0.00  0.00    +0.000 A 
ATOM     13  C   UNL     1      46.446   1.245   7.659  0.00  0.00    +0.000 A 
ATOM     14  F   UNL     1      46.534  -0.077   7.860  0.00  0.00    +0.000 F 
ATOM     15  C   UNL     1      45.900   2.052   8.655  0.00  0.00    +0.000 A 
ENDBRANCH   3   9
BRANCH   1  16
ATOM     16  C   UNL     1      46.388   7.131  11.893  0.00  0.00    +0.000 C 
BRANCH  16  17
ATOM     17  N   UNL     1      47.629   6.460  12.268  0.00  0.00    +0.000 N 
ATOM     18  H   UNL     1      48.427   7.084  12.181  0.00  0.00    +0.000 HD
BRANCH  17  22
ATOM     19  C   UNL     1      47.431   4.555  15.903  0.00  0.00    +0.000 A 
ATOM     20  C   UNL     1      48.211   5.689  15.743  0.00  0.00    +0.000 A 
ATOM     21  N   UNL     1      48.327   6.336  14.551  0.00  0.00    +0.000 NA
ATOM     22  C   UNL     1      47.640   5.819  13.511  0.00  0.00    +0.000 A 
ATOM     23  C   UNL     1      46.851   4.673  13.699  0.00  0.00    +0.000 A 
ATOM     24  N   UNL     1      46.729   4.005  14.877  0.00  0.00    +0.000 NA
BRANCH  19  26
ATOM     25  N   UNL     1      48.148   4.417  18.211  0.00  0.00    +0.000 N 
ATOM     26  C   UNL     1      47.337   3.900  17.236  0.00  0.00    +0.000 C 
ATOM     27  O   UNL     1      46.583   2.961  17.452  0.00  0.00    +0.000 OA
ATOM     28  H   UNL     1      48.121   4.023  19.140  0.00  0.00    +0.000 HD
ATOM     29  H   UNL     1      48.752   5.205  18.006  0.00  0.00    +0.000 HD
ENDBRANCH  19  26
ENDBRANCH  17  22
ENDBRANCH  16  17
ENDBRANCH   1  16
TORSDOF 5
ENDMDL
MODEL 4
REMARK VINA RESULT:    -8.503      2.408      2.834
REMARK INTER + INTRA:         -11.832
REMARK INTER:                 -10.948
REMARK INTRA:                  -0.884
REMARK UNBOUND:                -0.843
REMARK  Name = 
REMARK  5 active torsions:
REMARK  status: ('A' for Active; 'I' for Inactive)
REMARK    1  A    between atoms: C_2  and  C_4
REMARK    2  A    between atoms: C_7  and  N_8
REMARK    3  A    between atoms: N_8  and  C_9
REMARK    4  A    between atoms: C_9  and  C_10
REMARK    5  A    between atoms: C_12  and  C_13
REMARK                            x       y       z     vdW  Elec       q    Type
REMARK                         _______ _______ _______ _____ _____    ______ ____
ROOT
ATOM      1  C   UNL     1      44.917   4.866  12.012  0.00  0.00    +0.000 A 
ATOM      2  C   UNL     1      44.578   6.184  11.640  0.00  0.00    +0.000 A 
ATOM      3  C   UNL     1      45.291   7.310  12.102  0.00  0.00    +0.000 A 
ATOM      4  C   UNL     1      46.379   7.068  12.959  0.00  0.00    +0.000 A 
ATOM      5  C   UNL     1      46.726   5.769  13.326  0.00  0.00    +0.000 A 
ATOM      6  F   UNL     1      47.771   5.580  14.145  0.00  0.00    +0.000 F 
ATOM      7  C   UNL     1      46.001   4.677  12.866  0.00  0.00    +0.000 A 
ATOM      8  F   UNL     1      46.348   3.440  13.245  0.00  0.00    +0.000 F 
ENDROOT
BRANCH   3   9
ATOM      9  C   UNL     1      44.906   8.688  11.707  0.00  0.00    +0.000 A 
ATOM     10  C   UNL     1      45.707   9.800  12.040  0.00  0.00    +0.000 A 
ATOM     11  C   UNL     1      45.348  11.103  11.673  0.00  0.00    +0.000 A 
ATOM     12  C   UNL     1      44.180  11.323  10.953  0.00  0.00    +0.000 A 
ATOM     13  C   UNL     1      43.384  10.241  10.611  0.00  0.00    +0.000 A 
ATOM     14  F   UNL     1      42.260  10.447   9.911  0.00  0.00    +0.000 F 
ATOM     15  C   UNL     1      43.730   8.943  10.982  0.00  0.00    +0.000 A 
ENDBRANCH   3   9
BRANCH   1  16
ATOM     16  C   UNL     1      44.090   3.702  11.525  0.00  0.00    +0.000 C 
BRANCH  16  17
ATOM     17  N   UNL     1      43.745   3.933  10.126  0.00  0.00    +0.000 N 
ATOM     18  H   UNL     1      43.471   4.899   9.968  0.00  0.00    +0.000 HD
BRANCH  17  22
ATOM     19  C   UNL     1      46.625   2.626   7.503  0.00  0.00    +0.000 A 
ATOM     20  C   UNL     1      46.234   3.956   7.515  0.00  0.00    +0.000 A 
ATOM     21  N   UNL     1      45.265   4.426   8.348  0.00  0.00    +0.000 NA
ATOM     22  C   UNL     1      44.690   3.530   9.177  0.00  0.00    +0.000 A 
ATOM     23  C   UNL     1      45.107   2.190   9.150  0.00  0.00    +0.000 A 
ATOM     24  N   UNL     1      46.064   1.696   8.320  0.00  0.00    +0.000 NA
BRANCH  19  26
ATOM     25  N   UNL     1      47.917   2.977   5.486  0.00  0.00    +0.000 N 
ATOM     26  C   UNL     1      47.698   2.177   6.575  0.00  0.00    +0.000 C 
ATOM     27  O   UNL     1      48.349   1.159   6.771  0.00  0.00    +0.000 OA
ATOM     28  H   UNL     1      48.640   2.732   4.825  0.00  0.00    +0.000 HD
ATOM     29  H   UNL     1      47.372   3.822   5.357  0.00  0.00    +0.000 HD
ENDBRANCH  19  26
ENDBRANCH  17  22
ENDBRANCH  16  17
ENDBRANCH   1  16
TORSDOF 5
ENDMDL
MODEL 5
REMARK VINA RESULT:    -8.351      3.944      6.726
REMARK INTER + INTRA:         -11.634
REMARK INTER:                 -10.853
REMARK INTRA:                  -0.781
REMARK UNBOUND:                -0.843
REMARK  Name = 
REMARK  5 active torsions:
REMARK  status: ('A' for Active; 'I' for Inactive)
REMARK    1  A    between atoms: C_2  and  C_4
REMARK    2  A    between atoms: C_7  and  N_8
REMARK    3  A    between atoms: N_8  and  C_9
REMARK    4  A    between atoms: C_9  and  C_10
REMARK    5  A    between atoms: C_12  and  C_13
REMARK                            x       y       z     vdW  Elec       q    Type
REMARK                         _______ _______ _______ _____ _____    ______ ____
ROOT
ATOM      1  C   UNL     1      43.986   5.230  11.120  0.00  0.00    +0.000 A 
ATOM      2  C   UNL     1      44.703   4.760   9.999  0.00  0.00    +0.000 A 
ATOM      3  C   UNL     1      44.868   3.386   9.726  0.00  0.00    +0.000 A 
ATOM      4  C   UNL     1      44.275   2.481  10.624  0.00  0.00    +0.000 A 
ATOM      5  C   UNL     1      43.560   2.936  11.729  0.00  0.00    +0.000 A 
ATOM      6  F   UNL     1      43.007   2.041  12.562  0.00  0.00    +0.000 F 
ATOM      7  C   UNL     1      43.420   4.295  11.982  0.00  0.00    +0.000 A 
ATOM      8  F   UNL     1      42.737   4.705  13.060  0.00  0.00    +0.000 F 
ENDROOT
BRANCH   3   9
ATOM      9  C   UNL     1      45.639   2.917   8.547  0.00  0.00    +0.000 A 
ATOM     10  C   UNL     1      46.042   3.806   7.530  0.00  0.00    +0.000 A 
ATOM     11  C   UNL     1      46.767   3.371   6.413  0.00  0.00    +0.000 A 
ATOM     12  C   UNL     1      47.115   2.030   6.294  0.00  0.00    +0.000 A 
ATOM     13  C   UNL     1      46.733   1.142   7.288  0.00  0.00    +0.000 A 
ATOM     14  F   UNL     1      47.071  -0.150   7.182  0.00  0.00    +0.000 F 
ATOM     15  C   UNL     1      46.003   1.568   8.396  0.00  0.00    +0.000 A 
ENDBRANCH   3   9
BRANCH   1  16
ATOM     16  C   UNL     1      43.882   6.711  11.390  0.00  0.00    +0.000 C 
BRANCH  16  17
ATOM     17  N   UNL     1      44.581   7.003  12.636  0.00  0.00    +0.000 N 
ATOM     18  H   UNL     1      44.367   6.312  13.351  0.00  0.00    +0.000 HD
BRANCH  17  22
ATOM     19  C   UNL     1      48.661   7.486  12.573  0.00  0.00    +0.000 A 
ATOM     20  C   UNL     1      47.823   8.515  12.173  0.00  0.00    +0.000 A 
ATOM     21  N   UNL     1      46.468   8.389  12.152  0.00  0.00    +0.000 NA
ATOM     22  C   UNL     1      45.963   7.201  12.544  0.00  0.00    +0.000 A 
ATOM     23  C   UNL     1      46.831   6.176  12.952  0.00  0.00    +0.000 A 
ATOM     24  N   UNL     1      48.187   6.276  12.970  0.00  0.00    +0.000 NA
BRANCH  19  26
ATOM     25  N   UNL     1      50.798   7.305  11.449  0.00  0.00    +0.000 N 
ATOM     26  C   UNL     1      50.136   7.691  12.584  0.00  0.00    +0.000 C 
ATOM     27  O   UNL     1      50.722   8.176  13.542  0.00  0.00    +0.000 OA
ATOM     28  H   UNL     1      51.798   7.428  11.391  0.00  0.00    +0.000 HD
ATOM     29  H   UNL     1      50.283   6.919  10.666  0.00  0.00    +0.000 HD
ENDBRANCH  19  26
ENDBRANCH  17  22
ENDBRANCH  16  17
ENDBRANCH   1  16
TORSDOF 5
ENDMDL
MODEL 6
REMARK VINA RESULT:    -8.240      4.016      7.244
REMARK INTER + INTRA:         -11.491
REMARK INTER:                 -10.841
REMARK INTRA:                  -0.651
REMARK UNBOUND:                -0.843
REMARK  Name = 
REMARK  5 active torsions:
REMARK  status: ('A' for Active; 'I' for Inactive)
REMARK    1  A    between atoms: C_2  and  C_4
REMARK    2  A    between atoms: C_7  and  N_8
REMARK    3  A    between atoms: N_8  and  C_9
REMARK    4  A    between atoms: C_9  and  C_10
REMARK    5  A    between atoms: C_12  and  C_13
REMARK                            x       y       z     vdW  Elec       q    Type
REMARK                         _______ _______ _______ _____ _____    ______ ____
ROOT
ATOM      1  C   UNL     1      44.774   5.533  11.015  0.00  0.00    +0.000 A 
ATOM      2  C   UNL     1      45.406   4.930   9.906  0.00  0.00    +0.000 A 
ATOM      3  C   UNL     1      45.145   3.600   9.516  0.00  0.00    +0.000 A 
ATOM      4  C   UNL     1      44.210   2.882  10.281  0.00  0.00    +0.000 A 
ATOM      5  C   UNL     1      43.577   3.471  11.374  0.00  0.00    +0.000 A 
ATOM      6  F   UNL     1      42.689   2.753  12.078  0.00  0.00    +0.000 F 
ATOM      7  C   UNL     1      43.858   4.780  11.744  0.00  0.00    +0.000 A 
ATOM      8  F   UNL     1      43.243   5.317  12.807  0.00  0.00    +0.000 F 
ENDROOT
BRANCH   3   9
ATOM      9  C   UNL     1      45.833   2.984   8.354  0.00  0.00    +0.000 A 
ATOM     10  C   UNL     1      46.237   3.756   7.245  0.00  0.00    +0.000 A 
ATOM     11  C   UNL     1      46.884   3.182   6.143  0.00  0.00    +0.000 A 
ATOM     12  C   UNL     1      47.152   1.818   6.130  0.00  0.00    +0.000 A 
ATOM     13  C   UNL     1      46.768   1.045   7.216  0.00  0.00    +0.000 A 
ATOM     14  F   UNL     1      47.029  -0.270   7.212  0.00  0.00    +0.000 F 
ATOM     15  C   UNL     1      46.114   1.608   8.310  0.00  0.00    +0.000 A 
ENDBRANCH   3   9
BRANCH   1  16
ATOM     16  C   UNL     1      45.126   6.944  11.416  0.00  0.00    +0.000 C 
BRANCH  16  17
ATOM     17  N   UNL     1      46.579   7.076  11.412  0.00  0.00    +0.000 N 
ATOM     18  H   UNL     1      46.869   7.957  10.995  0.00  0.00    +0.000 HD
BRANCH  17  22
ATOM     19  C   UNL     1      48.307   6.355  15.070  0.00  0.00    +0.000 A 
ATOM     20  C   UNL     1      48.258   7.640  14.554  0.00  0.00    +0.000 A 
ATOM     21  N   UNL     1      47.720   7.921  13.336  0.00  0.00    +0.000 NA
ATOM     22  C   UNL     1      47.227   6.878  12.636  0.00  0.00    +0.000 A 
ATOM     23  C   UNL     1      47.281   5.586  13.182  0.00  0.00    +0.000 A 
ATOM     24  N   UNL     1      47.823   5.281  14.391  0.00  0.00    +0.000 NA
BRANCH  19  26
ATOM     25  N   UNL     1      48.393   6.879  17.432  0.00  0.00    +0.000 N 
ATOM     26  C   UNL     1      48.899   6.116  16.414  0.00  0.00    +0.000 C 
ATOM     27  O   UNL     1      49.779   5.287  16.603  0.00  0.00    +0.000 OA
ATOM     28  H   UNL     1      48.746   6.756  18.370  0.00  0.00    +0.000 HD
ATOM     29  H   UNL     1      47.653   7.548  17.247  0.00  0.00    +0.000 HD
ENDBRANCH  19  26
ENDBRANCH  17  22
ENDBRANCH  16  17
ENDBRANCH   1  16
TORSDOF 5
ENDMDL
MODEL 7
REMARK VINA RESULT:    -8.152      2.492      4.198
REMARK INTER + INTRA:         -11.378
REMARK INTER:                 -11.192
REMARK INTRA:                  -0.187
REMARK UNBOUND:                -0.843
REMARK  Name = 
REMARK  5 active torsions:
REMARK  status: ('A' for Active; 'I' for Inactive)
REMARK    1  A    between atoms: C_2  and  C_4
REMARK    2  A    between atoms: C_7  and  N_8
REMARK    3  A    between atoms: N_8  and  C_9
REMARK    4  A    between atoms: C_9  and  C_10
REMARK    5  A    between atoms: C_12  and  C_13
REMARK                            x       y       z     vdW  Elec       q    Type
REMARK                         _______ _______ _______ _____ _____    ______ ____
ROOT
ATOM      1  C   UNL     1      45.249   5.224  12.250  0.00  0.00    +0.000 A 
ATOM      2  C   UNL     1      45.873   4.679  13.392  0.00  0.00    +0.000 A 
ATOM      3  C   UNL     1      46.945   5.319  14.049  0.00  0.00    +0.000 A 
ATOM      4  C   UNL     1      47.375   6.548  13.520  0.00  0.00    +0.000 A 
ATOM      5  C   UNL     1      46.760   7.097  12.396  0.00  0.00    +0.000 A 
ATOM      6  F   UNL     1      47.199   8.273  11.922  0.00  0.00    +0.000 F 
ATOM      7  C   UNL     1      45.713   6.442  11.760  0.00  0.00    +0.000 A 
ATOM      8  F   UNL     1      45.148   6.987  10.674  0.00  0.00    +0.000 F 
ENDROOT
BRANCH   3   9
ATOM      9  C   UNL     1      47.593   4.718  15.241  0.00  0.00    +0.000 A 
ATOM     10  C   UNL     1      47.556   3.328  15.477  0.00  0.00    +0.000 A 
ATOM     11  C   UNL     1      48.162   2.754  16.602  0.00  0.00    +0.000 A 
ATOM     12  C   UNL     1      48.833   3.560  17.514  0.00  0.00    +0.000 A 
ATOM     13  C   UNL     1      48.886   4.928  17.294  0.00  0.00    +0.000 A 
ATOM     14  F   UNL     1      49.536   5.710  18.167  0.00  0.00    +0.000 F 
ATOM     15  C   UNL     1      48.275   5.507  16.183  0.00  0.00    +0.000 A 
ENDBRANCH   3   9
BRANCH   1  16
ATOM     16  C   UNL     1      44.137   4.473  11.559  0.00  0.00    +0.000 C 
BRANCH  16  17
ATOM     17  N   UNL     1      44.133   4.849  10.149  0.00  0.00    +0.000 N 
ATOM     18  H   UNL     1      44.375   5.829  10.027  0.00  0.00    +0.000 HD
BRANCH  17  22
ATOM     19  C   UNL     1      46.422   2.371   7.803  0.00  0.00    +0.000 A 
ATOM     20  C   UNL     1      46.448   3.743   7.613  0.00  0.00    +0.000 A 
ATOM     21  N   UNL     1      45.687   4.599   8.348  0.00  0.00    +0.000 NA
ATOM     22  C   UNL     1      44.890   4.047   9.288  0.00  0.00    +0.000 A 
ATOM     23  C   UNL     1      44.885   2.655   9.466  0.00  0.00    +0.000 A 
ATOM     24  N   UNL     1      45.629   1.781   8.736  0.00  0.00    +0.000 NA
BRANCH  19  26
ATOM     25  N   UNL     1      48.368   2.096   6.388  0.00  0.00    +0.000 N 
ATOM     26  C   UNL     1      47.288   1.490   6.973  0.00  0.00    +0.000 C 
ATOM     27  O   UNL     1      47.056   0.298   6.823  0.00  0.00    +0.000 OA
ATOM     28  H   UNL     1      48.999   1.549   5.822  0.00  0.00    +0.000 HD
ATOM     29  H   UNL     1      48.542   3.083   6.542  0.00  0.00    +0.000 HD
ENDBRANCH  19  26
ENDBRANCH  17  22
ENDBRANCH  16  17
ENDBRANCH   1  16
TORSDOF 5
ENDMDL
MODEL 8
REMARK VINA RESULT:    -8.118      2.271      2.975
REMARK INTER + INTRA:         -11.333
REMARK INTER:                 -10.681
REMARK INTRA:                  -0.652
REMARK UNBOUND:                -0.843
REMARK  Name = 
REMARK  5 active torsions:
REMARK  status: ('A' for Active; 'I' for Inactive)
REMARK    1  A    between atoms: C_2  and  C_4
REMARK    2  A    between atoms: C_7  and  N_8
REMARK    3  A    between atoms: N_8  and  C_9
REMARK    4  A    between atoms: C_9  and  C_10
REMARK    5  A    between atoms: C_12  and  C_13
REMARK                            x       y       z     vdW  Elec       q    Type
REMARK                         _______ _______ _______ _____ _____    ______ ____
ROOT
ATOM      1  C   UNL     1      44.717   5.445  11.774  0.00  0.00    +0.000 A 
ATOM      2  C   UNL     1      46.047   5.766  12.122  0.00  0.00    +0.000 A 
ATOM      3  C   UNL     1      46.528   7.092  12.131  0.00  0.00    +0.000 A 
ATOM      4  C   UNL     1      45.619   8.104  11.781  0.00  0.00    +0.000 A 
ATOM      5  C   UNL     1      44.302   7.797  11.442  0.00  0.00    +0.000 A 
ATOM      6  F   UNL     1      43.463   8.792  11.114  0.00  0.00    +0.000 F 
ATOM      7  C   UNL     1      43.854   6.482  11.430  0.00  0.00    +0.000 A 
ATOM      8  F   UNL     1      42.586   6.214  11.088  0.00  0.00    +0.000 F 
ENDROOT
BRANCH   3   9
ATOM      9  C   UNL     1      47.935   7.403  12.488  0.00  0.00    +0.000 A 
ATOM     10  C   UNL     1      48.828   7.958  11.548  0.00  0.00    +0.000 A 
ATOM     11  C   UNL     1      50.157   8.251  11.877  0.00  0.00    +0.000 A 
ATOM     12  C   UNL     1      50.623   8.004  13.163  0.00  0.00    +0.000 A 
ATOM     13  C   UNL     1      49.758   7.465  14.103  0.00  0.00    +0.000 A 
ATOM     14  F   UNL     1      50.200   7.230  15.345  0.00  0.00    +0.000 F 
ATOM     15  C   UNL     1      48.437   7.161  13.778  0.00  0.00    +0.000 A 
ENDBRANCH   3   9
BRANCH   1  16
ATOM     16  C   UNL     1      44.268   4.005  11.734  0.00  0.00    +0.000 C 
BRANCH  16  17
ATOM     17  N   UNL     1      43.779   3.711  10.391  0.00  0.00    +0.000 N 
ATOM     18  H   UNL     1      43.202   4.468  10.034  0.00  0.00    +0.000 HD
BRANCH  17  22
ATOM     19  C   UNL     1      46.484   2.739   7.455  0.00  0.00    +0.000 A 
ATOM     20  C   UNL     1      46.033   1.777   8.344  0.00  0.00    +0.000 A 
ATOM     21  N   UNL     1      45.159   2.060   9.348  0.00  0.00    +0.000 NA
ATOM     22  C   UNL     1      44.740   3.339   9.445  0.00  0.00    +0.000 A 
ATOM     23  C   UNL     1      45.206   4.295   8.528  0.00  0.00    +0.000 A 
ATOM     24  N   UNL     1      46.086   4.037   7.525  0.00  0.00    +0.000 NA
BRANCH  19  26
ATOM     25  N   UNL     1      47.377   3.131   5.239  0.00  0.00    +0.000 N 
ATOM     26  C   UNL     1      47.432   2.362   6.371  0.00  0.00    +0.000 C 
ATOM     27  O   UNL     1      48.215   1.429   6.482  0.00  0.00    +0.000 OA
ATOM     28  H   UNL     1      48.003   2.932   4.472  0.00  0.00    +0.000 HD
ATOM     29  H   UNL     1      46.727   3.906   5.181  0.00  0.00    +0.000 HD
ENDBRANCH  19  26
ENDBRANCH  17  22
ENDBRANCH  16  17
ENDBRANCH   1  16
TORSDOF 5
ENDMDL
