MODEL 1
REMARK VINA RESULT:    -9.278      0.000      0.000
REMARK INTER + INTRA:         -12.821
REMARK INTER:                 -11.990
REMARK INTRA:                  -0.831
REMARK UNBOUND:                -0.831
REMARK  Name = 
REMARK  5 active torsions:
REMARK  status: ('A' for Active; 'I' for Inactive)
REMARK    1  A    between atoms: C_2  and  C_4
REMARK    2  A    between atoms: N_8  and  C_9
REMARK    3  A    between atoms: C_9  and  C_10
REMARK    4  A    between atoms: C_10  and  C_13
REMARK    5  A    between atoms: C_17  and  C_18
REMARK                            x       y       z     vdW  Elec       q    Type
REMARK                         _______ _______ _______ _____ _____    ______ ____
ROOT
ATOM      1  C   UNL     1      43.325   4.634  12.627  0.00  0.00    +0.000 C 
ATOM      2  F   UNL     1      42.305   5.551  12.612  0.00  0.00    +0.000 F 
ATOM      3  F   UNL     1      43.011   3.779  13.646  0.00  0.00    +0.000 F 
ENDROOT
BRANCH   1   4
ATOM      4  C   UNL     1      44.677   5.288  12.830  0.00  0.00    +0.000 A 
ATOM      5  C   UNL     1      45.787   4.523  13.208  0.00  0.00    +0.000 A 
ATOM      6  C   UNL     1      47.034   5.124  13.348  0.00  0.00    +0.000 A 
ATOM      7  C   UNL     1      47.187   6.488  13.089  0.00  0.00    +0.000 A 
ATOM      8  C   UNL     1      46.103   7.285  12.677  0.00  0.00    +0.000 A 
ATOM      9  C   UNL     1      44.846   6.661  12.579  0.00  0.00    +0.000 A 
BRANCH   8  10
ATOM     10  C   UNL     1      46.284   8.706  12.318  0.00  0.00    +0.000 A 
ATOM     11  C   UNL     1      47.551   9.291  12.159  0.00  0.00    +0.000 A 
ATOM     12  C   UNL     1      47.676  10.644  11.848  0.00  0.00    +0.000 A 
ATOM     13  C   UNL     1      46.523  11.394  11.685  0.00  0.00    +0.000 A 
ATOM     14  N   UNL     1      45.283  10.887  11.830  0.00  0.00    +0.000 NA
ATOM     15  C   UNL     1      45.199   9.569  12.145  0.00  0.00    +0.000 A 
ENDBRANCH   8  10
ENDBRANCH   1   4
BRANCH   1  16
ATOM     16  C   UNL     1      43.289   3.865  11.282  0.00  0.00    +0.000 C 
BRANCH  16  21
ATOM     17  C   UNL     1      46.442   2.352   7.712  0.00  0.00    +0.000 A 
ATOM     18  C   UNL     1      46.366   3.733   7.549  0.00  0.00    +0.000 A 
ATOM     19  C   UNL     1      45.544   4.474   8.398  0.00  0.00    +0.000 A 
ATOM     20  C   UNL     1      44.827   3.834   9.408  0.00  0.00    +0.000 A 
ATOM     21  N   UNL     1      43.958   4.604  10.189  0.00  0.00    +0.000 N 
ATOM     22  N   UNL     1      44.890   2.498   9.571  0.00  0.00    +0.000 NA
ATOM     23  C   UNL     1      45.681   1.786   8.730  0.00  0.00    +0.000 A 
ATOM     24  H   UNL     1      44.405   5.454  10.517  0.00  0.00    +0.000 HD
BRANCH  17  26
ATOM     25  N   UNL     1      48.287   2.068   6.163  0.00  0.00    +0.000 N 
ATOM     26  C   UNL     1      47.263   1.478   6.850  0.00  0.00    +0.000 C 
ATOM     27  O   UNL     1      47.055   0.277   6.780  0.00  0.00    +0.000 OA
ATOM     28  H   UNL     1      48.897   1.448   5.645  0.00  0.00    +0.000 HD
ATOM     29  H   UNL     1      48.634   2.992   6.378  0.00  0.00    +0.000 HD
ENDBRANCH  17  26
ENDBRANCH  16  21
ENDBRANCH   1  16
TORSDOF 5
ENDMDL
MODEL 2
REMARK VINA RESULT:    -9.191      1.433      1.709
REMARK INTER + INTRA:         -12.709
REMARK INTER:                 -11.736
REMARK INTRA:                  -0.973
REMARK UNBOUND:                -0.831
REMARK  Name = 
REMARK  5 active torsions:
REMARK  status: ('A' for Active; 'I' for Inactive)
REMARK    1  A    between atoms: C_2  and  C_4
REMARK    2  A    between atoms: N_8  and  C_9
REMARK    3  A    between atoms: C_9  and  C_10
REMARK    4  A    between atoms: C_10  and  C_13
REMARK    5  A    between atoms: C_17  and  C_18
REMARK                            x       y       z     vdW  Elec       q    Type
REMARK                         _______ _______ _______ _____ _____    ______ ____
ROOT
ATOM      1  C   UNL     1      43.363   5.518  12.184  0.00  0.00    +0.000 C 
ATOM      2  F   UNL     1      42.850   6.725  11.781  0.00  0.00    +0.000 F 
ATOM      3  F   UNL     1      42.541   5.110  13.196  0.00  0.00    +0.000 F 
ENDROOT
BRANCH   1   4
ATOM      4  C   UNL     1      44.805   5.633  12.634  0.00  0.00    +0.000 A 
ATOM      5  C   UNL     1      45.427   4.574  13.305  0.00  0.00    +0.000 A 
ATOM      6  C   UNL     1      46.765   4.670  13.674  0.00  0.00    +0.000 A 
ATOM      7  C   UNL     1      47.498   5.816  13.357  0.00  0.00    +0.000 A 
ATOM      8  C   UNL     1      46.919   6.890  12.657  0.00  0.00    +0.000 A 
ATOM      9  C   UNL     1      45.555   6.783  12.328  0.00  0.00    +0.000 A 
BRANCH   8  10
ATOM     10  C   UNL     1      47.717   8.062  12.245  0.00  0.00    +0.000 A 
ATOM     11  C   UNL     1      47.177   9.355  12.164  0.00  0.00    +0.000 A 
ATOM     12  C   UNL     1      47.960  10.428  11.742  0.00  0.00    +0.000 A 
ATOM     13  C   UNL     1      49.286  10.193  11.418  0.00  0.00    +0.000 A 
ATOM     14  N   UNL     1      49.855   8.973  11.472  0.00  0.00    +0.000 NA
ATOM     15  C   UNL     1      49.060   7.949  11.876  0.00  0.00    +0.000 A 
ENDBRANCH   8  10
ENDBRANCH   1   4
BRANCH   1  16
ATOM     16  C   UNL     1      43.241   4.532  10.995  0.00  0.00    +0.000 C 
BRANCH  16  21
ATOM     17  C   UNL     1      46.314   2.100   7.894  0.00  0.00    +0.000 A 
ATOM     18  C   UNL     1      46.361   3.424   7.465  0.00  0.00    +0.000 A 
ATOM     19  C   UNL     1      45.591   4.381   8.126  0.00  0.00    +0.000 A 
ATOM     20  C   UNL     1      44.804   4.011   9.215  0.00  0.00    +0.000 A 
ATOM     21  N   UNL     1      43.990   4.986   9.803  0.00  0.00    +0.000 N 
ATOM     22  N   UNL     1      44.748   2.731   9.636  0.00  0.00    +0.000 NA
ATOM     23  C   UNL     1      45.490   1.807   8.975  0.00  0.00    +0.000 A 
ATOM     24  H   UNL     1      44.504   5.845   9.975  0.00  0.00    +0.000 HD
BRANCH  17  26
ATOM     25  N   UNL     1      46.771  -0.267   7.625  0.00  0.00    +0.000 N 
ATOM     26  C   UNL     1      47.072   1.011   7.246  0.00  0.00    +0.000 C 
ATOM     27  O   UNL     1      47.908   1.242   6.386  0.00  0.00    +0.000 OA
ATOM     28  H   UNL     1      47.232  -1.009   7.113  0.00  0.00    +0.000 HD
ATOM     29  H   UNL     1      45.936  -0.506   8.142  0.00  0.00    +0.000 HD
ENDBRANCH  17  26
ENDBRANCH  16  21
ENDBRANCH   1  16
TORSDOF 5
ENDMDL
MODEL 3
REMARK VINA RESULT:    -8.961      2.566      4.108
REMARK INTER + INTRA:         -12.411
REMARK INTER:                 -11.471
REMARK INTRA:                  -0.940
REMARK UNBOUND:                -0.831
REMARK  Name = 
REMARK  5 active torsions:
REMARK  status: ('A' for Active; 'I' for Inactive)
REMARK    1  A    between atoms: C_2  and  C_4
REMARK    2  A    between atoms: N_8  and  C_9
REMARK    3  A    between atoms: C_9  and  C_10
REMARK    4  A    between atoms: C_10  and  C_13
REMARK    5  A    between atoms: C_17  and  C_18
REMARK                            x       y       z     vdW  Elec       q    Type
REMARK                         _______ _______ _______ _____ _____    ______ ____
ROOT
ATOM      1  C   UNL     1      43.600   4.813  12.426  0.00  0.00    +0.000 C 
ATOM      2  F   UNL     1      42.723   5.826  12.720  0.00  0.00    +0.000 F 
ATOM      3  F   UNL     1      43.204   3.768  13.213  0.00  0.00    +0.000 F 
ENDROOT
BRANCH   1   4
ATOM      4  C   UNL     1      45.038   5.210  12.690  0.00  0.00    +0.000 A 
ATOM      5  C   UNL     1      45.698   6.102  11.836  0.00  0.00    +0.000 A 
ATOM      6  C   UNL     1      47.003   6.496  12.110  0.00  0.00    +0.000 A 
ATOM      7  C   UNL     1      47.653   6.021  13.252  0.00  0.00    +0.000 A 
ATOM      8  C   UNL     1      47.015   5.147  14.152  0.00  0.00    +0.000 A 
ATOM      9  C   UNL     1      45.708   4.735  13.832  0.00  0.00    +0.000 A 
BRANCH   8  10
ATOM     10  C   UNL     1      47.671   4.715  15.403  0.00  0.00    +0.000 A 
ATOM     11  C   UNL     1      47.547   3.413  15.911  0.00  0.00    +0.000 A 
ATOM     12  C   UNL     1      48.159   3.056  17.112  0.00  0.00    +0.000 A 
ATOM     13  C   UNL     1      48.904   4.012  17.783  0.00  0.00    +0.000 A 
ATOM     14  N   UNL     1      49.053   5.277  17.345  0.00  0.00    +0.000 NA
ATOM     15  C   UNL     1      48.432   5.592  16.179  0.00  0.00    +0.000 A 
ENDBRANCH   8  10
ENDBRANCH   1   4
BRANCH   1  16
ATOM     16  C   UNL     1      43.405   4.435  10.935  0.00  0.00    +0.000 C 
BRANCH  16  21
ATOM     17  C   UNL     1      46.435   2.784   7.321  0.00  0.00    +0.000 A 
ATOM     18  C   UNL     1      46.030   1.632   7.991  0.00  0.00    +0.000 A 
ATOM     19  C   UNL     1      45.169   1.747   9.083  0.00  0.00    +0.000 A 
ATOM     20  C   UNL     1      44.710   3.002   9.479  0.00  0.00    +0.000 A 
ATOM     21  N   UNL     1      43.909   3.080  10.624  0.00  0.00    +0.000 N 
ATOM     22  N   UNL     1      45.099   4.123   8.840  0.00  0.00    +0.000 NA
ATOM     23  C   UNL     1      45.948   4.000   7.789  0.00  0.00    +0.000 A 
ATOM     24  H   UNL     1      43.166   2.387  10.607  0.00  0.00    +0.000 HD
BRANCH  17  26
ATOM     25  N   UNL     1      48.674   2.496   6.435  0.00  0.00    +0.000 N 
ATOM     26  C   UNL     1      47.362   2.769   6.171  0.00  0.00    +0.000 C 
ATOM     27  O   UNL     1      46.965   2.962   5.032  0.00  0.00    +0.000 OA
ATOM     28  H   UNL     1      49.284   2.401   5.632  0.00  0.00    +0.000 HD
ATOM     29  H   UNL     1      48.990   2.100   7.309  0.00  0.00    +0.000 HD
ENDBRANCH  17  26
ENDBRANCH  16  21
ENDBRANCH   1  16
TORSDOF 5
ENDMDL
MODEL 4
REMARK VINA RESULT:    -8.556      2.041      2.772
REMARK INTER + INTRA:         -11.888
REMARK INTER:                 -11.404
REMARK INTRA:                  -0.484
REMARK UNBOUND:                -0.831
REMARK  Name = 
REMARK  5 active torsions:
REMARK  status: ('A' for Active; 'I' for Inactive)
REMARK    1  A    between atoms: C_2  and  C_4
REMARK    2  A    between atoms: N_8  and  C_9
REMARK    3  A    between atoms: C_9  and  C_10
REMARK    4  A    between atoms: C_10  and  C_13
REMARK    5  A    between atoms: C_17  and  C_18
REMARK                            x       y       z     vdW  Elec       q    Type
REMARK                         _______ _______ _______ _____ _____    ______ ____
ROOT
ATOM      1  C   UNL     1      43.822   4.830  12.400  0.00  0.00    +0.000 C 
ATOM      2  F   UNL     1      42.806   4.961  13.312  0.00  0.00    +0.000 F 
ATOM      3  F   UNL     1      44.550   3.760  12.839  0.00  0.00    +0.000 F 
ENDROOT
BRANCH   1   4
ATOM      4  C   UNL     1      44.662   6.087  12.297  0.00  0.00    +0.000 A 
ATOM      5  C   UNL     1      44.144   7.240  11.696  0.00  0.00    +0.000 A 
ATOM      6  C   UNL     1      44.906   8.404  11.647  0.00  0.00    +0.000 A 
ATOM      7  C   UNL     1      46.181   8.431  12.216  0.00  0.00    +0.000 A 
ATOM      8  C   UNL     1      46.725   7.302  12.856  0.00  0.00    +0.000 A 
ATOM      9  C   UNL     1      45.950   6.128  12.861  0.00  0.00    +0.000 A 
BRANCH   8  10
ATOM     10  C   UNL     1      48.036   7.358  13.536  0.00  0.00    +0.000 A 
ATOM     11  C   UNL     1      49.111   8.114  13.043  0.00  0.00    +0.000 A 
ATOM     12  C   UNL     1      50.340   8.115  13.701  0.00  0.00    +0.000 A 
ATOM     13  C   UNL     1      50.471   7.365  14.858  0.00  0.00    +0.000 A 
ATOM     14  N   UNL     1      49.475   6.618  15.373  0.00  0.00    +0.000 NA
ATOM     15  C   UNL     1      48.297   6.631  14.700  0.00  0.00    +0.000 A 
ENDBRANCH   8  10
ENDBRANCH   1   4
BRANCH   1  16
ATOM     16  C   UNL     1      43.184   4.488  11.028  0.00  0.00    +0.000 C 
BRANCH  16  21
ATOM     17  C   UNL     1      46.306   2.095   7.947  0.00  0.00    +0.000 A 
ATOM     18  C   UNL     1      46.413   3.434   7.581  0.00  0.00    +0.000 A 
ATOM     19  C   UNL     1      45.648   4.386   8.254  0.00  0.00    +0.000 A 
ATOM     20  C   UNL     1      44.803   3.995   9.292  0.00  0.00    +0.000 A 
ATOM     21  N   UNL     1      43.998   4.970   9.890  0.00  0.00    +0.000 N 
ATOM     22  N   UNL     1      44.689   2.700   9.650  0.00  0.00    +0.000 NA
ATOM     23  C   UNL     1      45.428   1.782   8.979  0.00  0.00    +0.000 A 
ATOM     24  H   UNL     1      44.531   5.803  10.123  0.00  0.00    +0.000 HD
BRANCH  17  26
ATOM     25  N   UNL     1      46.750  -0.271   7.645  0.00  0.00    +0.000 N 
ATOM     26  C   UNL     1      47.056   1.010   7.280  0.00  0.00    +0.000 C 
ATOM     27  O   UNL     1      47.888   1.249   6.419  0.00  0.00    +0.000 OA
ATOM     28  H   UNL     1      47.205  -1.009   7.121  0.00  0.00    +0.000 HD
ATOM     29  H   UNL     1      45.917  -0.512   8.163  0.00  0.00    +0.000 HD
ENDBRANCH  17  26
ENDBRANCH  16  21
ENDBRANCH   1  16
TORSDOF 5
ENDMDL
MODEL 5
REMARK VINA RESULT:    -7.961      3.756      7.303
REMARK INTER + INTRA:         -11.119
REMARK INTER:                 -10.470
REMARK INTRA:                  -0.649
REMARK UNBOUND:                -0.831
REMARK  Name = 
REMARK  5 active torsions:
REMARK  status: ('A' for Active; 'I' for Inactive)
REMARK    1  A    between atoms: C_2  and  C_4
REMARK    2  A    between atoms: N_8  and  C_9
REMARK    3  A    between atoms: C_9  and  C_10
REMARK    4  A    between atoms: C_10  and  C_13
REMARK    5  A    between atoms: C_17  and  C_18
REMARK                            x       y       z     vdW  Elec       q    Type
REMARK                         _______ _______ _______ _____ _____    ______ ____
ROOT
ATOM      1  C   UNL     1      45.979   7.564  12.000  0.00  0.00    +0.000 C 
ATOM      2  F   UNL     1      45.623   7.851  13.293  0.00  0.00    +0.000 F 
ATOM      3  F   UNL     1      45.823   8.741  11.324  0.00  0.00    +0.000 F 
ENDROOT
BRANCH   1   4
ATOM      4  C   UNL     1      45.135   6.453  11.409  0.00  0.00    +0.000 A 
ATOM      5  C   UNL     1      43.757   6.401  11.650  0.00  0.00    +0.000 A 
ATOM      6  C   UNL     1      42.983   5.403  11.068  0.00  0.00    +0.000 A 
ATOM      7  C   UNL     1      43.574   4.462  10.221  0.00  0.00    +0.000 A 
ATOM      8  C   UNL     1      44.950   4.497   9.929  0.00  0.00    +0.000 A 
ATOM      9  C   UNL     1      45.717   5.494  10.560  0.00  0.00    +0.000 A 
BRANCH   8  10
ATOM     10  C   UNL     1      45.557   3.557   8.966  0.00  0.00    +0.000 A 
ATOM     11  C   UNL     1      46.212   3.986   7.800  0.00  0.00    +0.000 A 
ATOM     12  C   UNL     1      46.746   3.062   6.903  0.00  0.00    +0.000 A 
ATOM     13  C   UNL     1      46.629   1.713   7.195  0.00  0.00    +0.000 A 
ATOM     14  N   UNL     1      46.008   1.245   8.295  0.00  0.00    +0.000 NA
ATOM     15  C   UNL     1      45.488   2.172   9.140  0.00  0.00    +0.000 A 
ENDBRANCH   8  10
ENDBRANCH   1   4
BRANCH   1  16
ATOM     16  C   UNL     1      47.478   7.167  11.999  0.00  0.00    +0.000 C 
BRANCH  16  21
ATOM     17  C   UNL     1      47.809   4.457  16.185  0.00  0.00    +0.000 A 
ATOM     18  C   UNL     1      48.417   5.669  16.504  0.00  0.00    +0.000 A 
ATOM     19  C   UNL     1      48.501   6.665  15.531  0.00  0.00    +0.000 A 
ATOM     20  C   UNL     1      47.965   6.448  14.263  0.00  0.00    +0.000 A 
ATOM     21  N   UNL     1      48.137   7.442  13.295  0.00  0.00    +0.000 N 
ATOM     22  N   UNL     1      47.379   5.276  13.943  0.00  0.00    +0.000 NA
ATOM     23  C   UNL     1      47.315   4.311  14.893  0.00  0.00    +0.000 A 
ATOM     24  H   UNL     1      47.903   8.361  13.658  0.00  0.00    +0.000 HD
BRANCH  17  26
ATOM     25  N   UNL     1      48.853   2.844  17.666  0.00  0.00    +0.000 N 
ATOM     26  C   UNL     1      47.692   3.333  17.137  0.00  0.00    +0.000 C 
ATOM     27  O   UNL     1      46.603   2.884  17.459  0.00  0.00    +0.000 OA
ATOM     28  H   UNL     1      48.757   2.134  18.382  0.00  0.00    +0.000 HD
ATOM     29  H   UNL     1      49.734   3.336  17.612  0.00  0.00    +0.000 HD
ENDBRANCH  17  26
ENDBRANCH  16  21
ENDBRANCH   1  16
TORSDOF 5
ENDMDL
MODEL 6
REMARK VINA RESULT:    -7.803      4.580      8.138
REMARK INTER + INTRA:         -10.915
REMARK INTER:                 -10.202
REMARK INTRA:                  -0.712
REMARK UNBOUND:                -0.831
REMARK  Name = 
REMARK  5 active torsions:
REMARK  status: ('A' for Active; 'I' for Inactive)
REMARK    1  A    between atoms: C_2  and  C_4
REMARK    2  A    between atoms: N_8  and  C_9
REMARK    3  A    between atoms: C_9  and  C_10
REMARK    4  A    between atoms: C_10  and  C_13
REMARK    5  A    between atoms: C_17  and  C_18
REMARK                            x       y       z     vdW  Elec       q    Type
REMARK                         _______ _______ _______ _____ _____    ______ ____
ROOT
ATOM      1  C   UNL     1      45.336   5.635  12.420  0.00  0.00    +0.000 C 
ATOM      2  F   UNL     1      44.371   6.038  13.308  0.00  0.00    +0.000 F 
ATOM      3  F   UNL     1      45.548   6.720  11.617  0.00  0.00    +0.000 F 
ENDROOT
BRANCH   1   4
ATOM      4  C   UNL     1      44.907   4.417  11.627  0.00  0.00    +0.000 A 
ATOM      5  C   UNL     1      43.771   3.689  12.001  0.00  0.00    +0.000 A 
ATOM      6  C   UNL     1      43.359   2.598  11.242  0.00  0.00    +0.000 A 
ATOM      7  C   UNL     1      44.065   2.239  10.091  0.00  0.00    +0.000 A 
ATOM      8  C   UNL     1      45.193   2.963   9.664  0.00  0.00    +0.000 A 
ATOM      9  C   UNL     1      45.611   4.039  10.470  0.00  0.00    +0.000 A 
BRANCH   8  10
ATOM     10  C   UNL     1      45.885   2.638   8.400  0.00  0.00    +0.000 A 
ATOM     11  C   UNL     1      46.070   3.580   7.375  0.00  0.00    +0.000 A 
ATOM     12  C   UNL     1      46.703   3.222   6.186  0.00  0.00    +0.000 A 
ATOM     13  C   UNL     1      47.159   1.921   6.045  0.00  0.00    +0.000 A 
ATOM     14  N   UNL     1      47.004   0.976   6.993  0.00  0.00    +0.000 NA
ATOM     15  C   UNL     1      46.372   1.356   8.132  0.00  0.00    +0.000 A 
ENDBRANCH   8  10
ENDBRANCH   1   4
BRANCH   1  16
ATOM     16  C   UNL     1      46.625   5.333  13.226  0.00  0.00    +0.000 C 
BRANCH  16  21
ATOM     17  C   UNL     1      48.885   4.873  17.659  0.00  0.00    +0.000 A 
ATOM     18  C   UNL     1      47.964   3.829  17.627  0.00  0.00    +0.000 A 
ATOM     19  C   UNL     1      47.147   3.677  16.506  0.00  0.00    +0.000 A 
ATOM     20  C   UNL     1      47.271   4.553  15.429  0.00  0.00    +0.000 A 
ATOM     21  N   UNL     1      46.382   4.413  14.358  0.00  0.00    +0.000 N 
ATOM     22  N   UNL     1      48.156   5.570  15.453  0.00  0.00    +0.000 NA
ATOM     23  C   UNL     1      48.936   5.715  16.554  0.00  0.00    +0.000 A 
ATOM     24  H   UNL     1      46.309   3.445  14.059  0.00  0.00    +0.000 HD
BRANCH  17  26
ATOM     25  N   UNL     1      50.525   4.081  19.262  0.00  0.00    +0.000 N 
ATOM     26  C   UNL     1      49.778   5.131  18.808  0.00  0.00    +0.000 C 
ATOM     27  O   UNL     1      49.865   6.241  19.308  0.00  0.00    +0.000 OA
ATOM     28  H   UNL     1      51.197   4.289  19.991  0.00  0.00    +0.000 HD
ATOM     29  H   UNL     1      50.659   3.230  18.733  0.00  0.00    +0.000 HD
ENDBRANCH  17  26
ENDBRANCH  16  21
ENDBRANCH   1  16
TORSDOF 5
ENDMDL
MODEL 7
REMARK VINA RESULT:    -7.698      2.116      3.023
REMARK INTER + INTRA:         -10.779
REMARK INTER:                  -9.938
REMARK INTRA:                  -0.841
REMARK UNBOUND:                -0.831
REMARK  Name = 
REMARK  5 active torsions:
REMARK  status: ('A' for Active; 'I' for Inactive)
REMARK    1  A    between atoms: C_2  and  C_4
REMARK    2  A    between atoms: N_8  and  C_9
REMARK    3  A    between atoms: C_9  and  C_10
REMARK    4  A    between atoms: C_10  and  C_13
REMARK    5  A    between atoms: C_17  and  C_18
REMARK                            x       y       z     vdW  Elec       q    Type
REMARK                         _______ _______ _______ _____ _____    ______ ____
ROOT
ATOM      1  C   UNL     1      44.749   5.830  12.258  0.00  0.00    +0.000 C 
ATOM      2  F   UNL     1      43.849   5.829  13.293  0.00  0.00    +0.000 F 
ATOM      3  F   UNL     1      45.652   4.856  12.578  0.00  0.00    +0.000 F 
ENDROOT
BRANCH   1   4
ATOM      4  C   UNL     1      45.410   7.182  12.080  0.00  0.00    +0.000 A 
ATOM      5  C   UNL     1      44.636   8.338  11.926  0.00  0.00    +0.000 A 
ATOM      6  C   UNL     1      45.251   9.580  11.808  0.00  0.00    +0.000 A 
ATOM      7  C   UNL     1      46.643   9.681  11.865  0.00  0.00    +0.000 A 
ATOM      8  C   UNL     1      47.456   8.548  12.050  0.00  0.00    +0.000 A 
ATOM      9  C   UNL     1      46.811   7.299  12.129  0.00  0.00    +0.000 A 
BRANCH   8  10
ATOM     10  C   UNL     1      48.920   8.665  12.200  0.00  0.00    +0.000 A 
ATOM     11  C   UNL     1      49.823   7.948  11.398  0.00  0.00    +0.000 A 
ATOM     12  C   UNL     1      51.197   8.068  11.593  0.00  0.00    +0.000 A 
ATOM     13  C   UNL     1      51.653   8.920  12.585  0.00  0.00    +0.000 A 
ATOM     14  N   UNL     1      50.833   9.628  13.387  0.00  0.00    +0.000 NA
ATOM     15  C   UNL     1      49.501   9.478  13.177  0.00  0.00    +0.000 A 
ENDBRANCH   8  10
ENDBRANCH   1   4
BRANCH   1  16
ATOM     16  C   UNL     1      43.989   5.423  10.970  0.00  0.00    +0.000 C 
BRANCH  16  21
ATOM     17  C   UNL     1      46.462   2.748   7.549  0.00  0.00    +0.000 A 
ATOM     18  C   UNL     1      45.685   1.814   8.228  0.00  0.00    +0.000 A 
ATOM     19  C   UNL     1      44.866   2.241   9.273  0.00  0.00    +0.000 A 
ATOM     20  C   UNL     1      44.819   3.591   9.615  0.00  0.00    +0.000 A 
ATOM     21  N   UNL     1      44.043   3.967  10.717  0.00  0.00    +0.000 N 
ATOM     22  N   UNL     1      45.571   4.503   8.967  0.00  0.00    +0.000 NA
ATOM     23  C   UNL     1      46.374   4.074   7.961  0.00  0.00    +0.000 A 
ATOM     24  H   UNL     1      43.118   3.547  10.682  0.00  0.00    +0.000 HD
BRANCH  17  26
ATOM     25  N   UNL     1      47.294   3.140   5.304  0.00  0.00    +0.000 N 
ATOM     26  C   UNL     1      47.378   2.393   6.445  0.00  0.00    +0.000 C 
ATOM     27  O   UNL     1      48.193   1.491   6.561  0.00  0.00    +0.000 OA
ATOM     28  H   UNL     1      47.984   2.947   4.588  0.00  0.00    +0.000 HD
ATOM     29  H   UNL     1      46.813   4.028   5.261  0.00  0.00    +0.000 HD
ENDBRANCH  17  26
ENDBRANCH  16  21
ENDBRANCH   1  16
TORSDOF 5
ENDMDL
MODEL 8
REMARK VINA RESULT:    -7.524      1.468      2.126
REMARK INTER + INTRA:         -10.555
REMARK INTER:                  -9.653
REMARK INTRA:                  -0.901
REMARK UNBOUND:                -0.831
REMARK  Name = 
REMARK  5 active torsions:
REMARK  status: ('A' for Active; 'I' for Inactive)
REMARK    1  A    between atoms: C_2  and  C_4
REMARK    2  A    between atoms: N_8  and  C_9
REMARK    3  A    between atoms: C_9  and  C_10
REMARK    4  A    between atoms: C_10  and  C_13
REMARK    5  A    between atoms: C_17  and  C_18
REMARK                            x       y       z     vdW  Elec       q    Type
REMARK                         _______ _______ _______ _____ _____    ______ ____
ROOT
ATOM      1  C   UNL     1      44.783   4.218  12.609  0.00  0.00    +0.000 C 
ATOM      2  F   UNL     1      43.861   4.038  13.609  0.00  0.00    +0.000 F 
ATOM      3  F   UNL     1      45.658   3.178  12.750  0.00  0.00    +0.000 F 
ENDROOT
BRANCH   1   4
ATOM      4  C   UNL     1      45.476   5.562  12.707  0.00  0.00    +0.000 A 
ATOM      5  C   UNL     1      46.741   5.669  13.297  0.00  0.00    +0.000 A 
ATOM      6  C   UNL     1      47.388   6.899  13.343  0.00  0.00    +0.000 A 
ATOM      7  C   UNL     1      46.789   8.028  12.780  0.00  0.00    +0.000 A 
ATOM      8  C   UNL     1      45.532   7.957  12.151  0.00  0.00    +0.000 A 
ATOM      9  C   UNL     1      44.882   6.709  12.151  0.00  0.00    +0.000 A 
BRANCH   8  10
ATOM     10  C   UNL     1      44.939   9.131  11.478  0.00  0.00    +0.000 A 
ATOM     11  C   UNL     1      43.764   9.051  10.714  0.00  0.00    +0.000 A 
ATOM     12  C   UNL     1      43.255  10.178  10.072  0.00  0.00    +0.000 A 
ATOM     13  C   UNL     1      43.926  11.381  10.217  0.00  0.00    +0.000 A 
ATOM     14  N   UNL     1      45.059  11.515  10.935  0.00  0.00    +0.000 NA
ATOM     15  C   UNL     1      45.533  10.394  11.536  0.00  0.00    +0.000 A 
ENDBRANCH   8  10
ENDBRANCH   1   4
BRANCH   1  16
ATOM     16  C   UNL     1      44.042   4.086  11.254  0.00  0.00    +0.000 C 
BRANCH  16  21
ATOM     17  C   UNL     1      46.619   2.446   7.299  0.00  0.00    +0.000 A 
ATOM     18  C   UNL     1      45.907   1.333   7.737  0.00  0.00    +0.000 A 
ATOM     19  C   UNL     1      45.079   1.451   8.854  0.00  0.00    +0.000 A 
ATOM     20  C   UNL     1      44.958   2.678   9.505  0.00  0.00    +0.000 A 
ATOM     21  N   UNL     1      44.177   2.736  10.664  0.00  0.00    +0.000 N 
ATOM     22  N   UNL     1      45.648   3.760   9.091  0.00  0.00    +0.000 NA
ATOM     23  C   UNL     1      46.460   3.629   8.013  0.00  0.00    +0.000 A 
ATOM     24  H   UNL     1      43.278   2.282  10.531  0.00  0.00    +0.000 HD
BRANCH  17  26
ATOM     25  N   UNL     1      47.301   3.310   5.137  0.00  0.00    +0.000 N 
ATOM     26  C   UNL     1      47.539   2.416   6.143  0.00  0.00    +0.000 C 
ATOM     27  O   UNL     1      48.487   1.648   6.104  0.00  0.00    +0.000 OA
ATOM     28  H   UNL     1      47.986   3.342   4.392  0.00  0.00    +0.000 HD
ATOM     29  H   UNL     1      46.688   4.106   5.241  0.00  0.00    +0.000 HD
ENDBRANCH  17  26
ENDBRANCH  16  21
ENDBRANCH   1  16
TORSDOF 5
ENDMDL
MODEL 9
REMARK VINA RESULT:    -7.347      3.409      7.264
REMARK INTER + INTRA:         -10.325
REMARK INTER:                  -9.558
REMARK INTRA:                  -0.767
REMARK UNBOUND:                -0.831
REMARK  Name = 
REMARK  5 active torsions:
REMARK  status: ('A' for Active; 'I' for Inactive)
REMARK    1  A    between atoms: C_2  and  C_4
REMARK    2  A    between atoms: N_8  and  C_9
REMARK    3  A    between atoms: C_9  and  C_10
REMARK    4  A    between atoms: C_10  and  C_13
REMARK    5  A    between atoms: C_17  and  C_18
REMARK                            x       y       z     vdW  Elec       q    Type
REMARK                         _______ _______ _______ _____ _____    ______ ____
ROOT
ATOM      1  C   UNL     1      44.607   6.239  11.482  0.00  0.00    +0.000 C 
ATOM      2  F   UNL     1      43.373   6.816  11.642  0.00  0.00    +0.000 F 
ATOM      3  F   UNL     1      45.256   7.043  10.588  0.00  0.00    +0.000 F 
ENDROOT
BRANCH   1   4
ATOM      4  C   UNL     1      44.508   4.809  10.993  0.00  0.00    +0.000 A 
ATOM      5  C   UNL     1      43.598   3.919  11.576  0.00  0.00    +0.000 A 
ATOM      6  C   UNL     1      43.482   2.620  11.091  0.00  0.00    +0.000 A 
ATOM      7  C   UNL     1      44.258   2.206  10.006  0.00  0.00    +0.000 A 
ATOM      8  C   UNL     1      45.163   3.078   9.373  0.00  0.00    +0.000 A 
ATOM      9  C   UNL     1      45.288   4.374   9.906  0.00  0.00    +0.000 A 
BRANCH   8  10
ATOM     10  C   UNL     1      45.918   2.667   8.172  0.00  0.00    +0.000 A 
ATOM     11  C   UNL     1      46.108   3.517   7.071  0.00  0.00    +0.000 A 
ATOM     12  C   UNL     1      46.802   3.078   5.945  0.00  0.00    +0.000 A 
ATOM     13  C   UNL     1      47.312   1.790   5.942  0.00  0.00    +0.000 A 
ATOM     14  N   UNL     1      47.155   0.931   6.968  0.00  0.00    +0.000 NA
ATOM     15  C   UNL     1      46.463   1.387   8.043  0.00  0.00    +0.000 A 
ENDBRANCH   8  10
ENDBRANCH   1   4
BRANCH   1  16
ATOM     16  C   UNL     1      45.337   6.298  12.849  0.00  0.00    +0.000 C 
BRANCH  16  21
ATOM     17  C   UNL     1      49.777   8.566  12.517  0.00  0.00    +0.000 A 
ATOM     18  C   UNL     1      48.955   9.497  13.147  0.00  0.00    +0.000 A 
ATOM     19  C   UNL     1      47.620   9.173  13.387  0.00  0.00    +0.000 A 
ATOM     20  C   UNL     1      47.127   7.924  13.014  0.00  0.00    +0.000 A 
ATOM     21  N   UNL     1      45.765   7.668  13.204  0.00  0.00    +0.000 N 
ATOM     22  N   UNL     1      47.913   7.018  12.399  0.00  0.00    +0.000 NA
ATOM     23  C   UNL     1      49.206   7.349  12.158  0.00  0.00    +0.000 A 
ATOM     24  H   UNL     1      45.462   7.937  14.135  0.00  0.00    +0.000 HD
BRANCH  17  26
ATOM     25  N   UNL     1      52.001   7.731  12.026  0.00  0.00    +0.000 N 
ATOM     26  C   UNL     1      51.196   8.822  12.198  0.00  0.00    +0.000 C 
ATOM     27  O   UNL     1      51.623   9.958  12.063  0.00  0.00    +0.000 OA
ATOM     28  H   UNL     1      52.949   7.915  11.722  0.00  0.00    +0.000 HD
ATOM     29  H   UNL     1      51.641   6.796  11.892  0.00  0.00    +0.000 HD
ENDBRANCH  17  26
ENDBRANCH  16  21
ENDBRANCH   1  16
TORSDOF 5
ENDMDL
