MODEL 1
REMARK VINA RESULT:    -9.181      0.000      0.000
REMARK INTER + INTRA:         -12.104
REMARK INTER:                 -11.328
REMARK INTRA:                  -0.775
REMARK UNBOUND:                -0.775
REMARK  Name = 
REMARK  5 active torsions:
REMARK  status: ('A' for Active; 'I' for Inactive)
REMARK    1  A    between atoms: C_1  and  C_2
REMARK    2  A    between atoms: C_12  and  C_13
REMARK    3  A    between atoms: C_13  and  N_14
REMARK    4  A    between atoms: N_14  and  C_15
REMARK    5  A    between atoms: C_18  and  C_19
REMARK                            x       y       z     vdW  Elec       q    Type
REMARK                         _______ _______ _______ _____ _____    ______ ____
ROOT
ATOM      1  C   UNL     1      43.807   4.910  11.383  0.00  0.00    +0.000 C 
ATOM      2  C   UNL     1      43.183   6.265  11.108  0.00  0.00    +0.000 C 
ATOM      3  C   UNL     1      42.517   5.350  12.082  0.00  0.00    +0.000 C 
ENDROOT
BRANCH   1  15
ATOM      4  C   UNL     1      49.763   7.769  14.284  0.00  0.00    +0.000 C 
ATOM      5  C   UNL     1      49.009   7.307  13.037  0.00  0.00    +0.000 C 
ATOM      6  C   UNL     1      49.222   8.287  11.859  0.00  0.00    +0.000 C 
ATOM      7  O   UNL     1      48.575   9.549  12.075  0.00  0.00    +0.000 OA
ATOM      8  C   UNL     1      47.157   9.348  12.181  0.00  0.00    +0.000 C 
ATOM      9  C   UNL     1      46.800   8.445  13.366  0.00  0.00    +0.000 C 
ATOM     10  N   UNL     1      47.577   7.196  13.374  0.00  0.00    +0.000 N 
ATOM     11  C   UNL     1      46.915   6.005  13.142  0.00  0.00    +0.000 A 
ATOM     12  C   UNL     1      47.404   4.817  13.682  0.00  0.00    +0.000 A 
ATOM     13  C   UNL     1      46.678   3.640  13.546  0.00  0.00    +0.000 A 
ATOM     14  C   UNL     1      45.495   3.664  12.825  0.00  0.00    +0.000 A 
ATOM     15  C   UNL     1      45.067   4.860  12.256  0.00  0.00    +0.000 A 
ATOM     16  N   UNL     1      45.759   6.020  12.449  0.00  0.00    +0.000 NA
ENDBRANCH   1  15
BRANCH   1  17
ATOM     17  N   UNL     1      43.626   3.734  10.506  0.00  0.00    +0.000 N 
ATOM     18  H   UNL     1      43.259   2.934  11.018  0.00  0.00    +0.000 HD
BRANCH  17  19
ATOM     19  C   UNL     1      44.509   3.326   9.488  0.00  0.00    +0.000 A 
ATOM     20  C   UNL     1      44.953   2.016   9.304  0.00  0.00    +0.000 A 
ATOM     21  C   UNL     1      45.915   1.712   8.328  0.00  0.00    +0.000 A 
ATOM     22  C   UNL     1      46.469   2.726   7.533  0.00  0.00    +0.000 A 
ATOM     23  C   UNL     1      46.060   4.043   7.733  0.00  0.00    +0.000 A 
ATOM     24  C   UNL     1      45.099   4.335   8.704  0.00  0.00    +0.000 A 
BRANCH  22  25
ATOM     25  C   UNL     1      47.525   2.374   6.543  0.00  0.00    +0.000 C 
ATOM     26  N   UNL     1      47.522   3.049   5.355  0.00  0.00    +0.000 N 
ATOM     27  O   UNL     1      48.352   1.505   6.773  0.00  0.00    +0.000 OA
ATOM     28  H   UNL     1      46.750   3.615   5.038  0.00  0.00    +0.000 HD
ATOM     29  H   UNL     1      48.202   2.751   4.667  0.00  0.00    +0.000 HD
ENDBRANCH  22  25
ENDBRANCH  17  19
ENDBRANCH   1  17
TORSDOF 4
ENDMDL
MODEL 2
REMARK VINA RESULT:    -7.842      2.352      3.232
REMARK INTER + INTRA:         -10.451
REMARK INTER:                 -10.617
REMARK INTRA:                   0.166
REMARK UNBOUND:                -0.775
REMARK  Name = 
REMARK  5 active torsions:
REMARK  status: ('A' for Active; 'I' for Inactive)
REMARK    1  A    between atoms: C_1  and  C_2
REMARK    2  A    between atoms: C_12  and  C_13
REMARK    3  A    between atoms: C_13  and  N_14
REMARK    4  A    between atoms: N_14  and  C_15
REMARK    5  A    between atoms: C_18  and  C_19
REMARK                            x       y       z     vdW  Elec       q    Type
REMARK                         _______ _______ _______ _____ _____    ______ ____
ROOT
ATOM      1  C   UNL     1      44.279   4.811  12.038  0.00  0.00    +0.000 C 
ATOM      2  C   UNL     1      43.164   4.798  13.067  0.00  0.00    +0.000 C 
ATOM      3  C   UNL     1      43.864   3.519  12.748  0.00  0.00    +0.000 C 
ENDROOT
BRANCH   1  15
ATOM      4  C   UNL     1      49.829   5.704  16.560  0.00  0.00    +0.000 C 
ATOM      5  C   UNL     1      48.343   5.903  16.260  0.00  0.00    +0.000 C 
ATOM      6  C   UNL     1      47.479   5.648  17.516  0.00  0.00    +0.000 C 
ATOM      7  O   UNL     1      47.461   4.264  17.895  0.00  0.00    +0.000 OA
ATOM      8  C   UNL     1      46.878   3.485  16.838  0.00  0.00    +0.000 C 
ATOM      9  C   UNL     1      47.688   3.594  15.542  0.00  0.00    +0.000 C 
ATOM     10  N   UNL     1      47.964   4.988  15.167  0.00  0.00    +0.000 N 
ATOM     11  C   UNL     1      47.361   5.499  14.032  0.00  0.00    +0.000 A 
ATOM     12  C   UNL     1      47.976   6.522  13.315  0.00  0.00    +0.000 A 
ATOM     13  C   UNL     1      47.429   6.956  12.113  0.00  0.00    +0.000 A 
ATOM     14  C   UNL     1      46.244   6.388  11.675  0.00  0.00    +0.000 A 
ATOM     15  C   UNL     1      45.632   5.405  12.448  0.00  0.00    +0.000 A 
ATOM     16  N   UNL     1      46.212   4.947  13.594  0.00  0.00    +0.000 NA
ENDBRANCH   1  15
BRANCH   1  17
ATOM     17  N   UNL     1      44.044   4.778  10.579  0.00  0.00    +0.000 N 
ATOM     18  H   UNL     1      43.050   4.807  10.356  0.00  0.00    +0.000 HD
BRANCH  17  19
ATOM     19  C   UNL     1      44.753   3.993   9.651  0.00  0.00    +0.000 A 
ATOM     20  C   UNL     1      44.807   2.599   9.672  0.00  0.00    +0.000 A 
ATOM     21  C   UNL     1      45.623   1.895   8.772  0.00  0.00    +0.000 A 
ATOM     22  C   UNL     1      46.421   2.583   7.847  0.00  0.00    +0.000 A 
ATOM     23  C   UNL     1      46.403   3.977   7.840  0.00  0.00    +0.000 A 
ATOM     24  C   UNL     1      45.584   4.667   8.737  0.00  0.00    +0.000 A 
BRANCH  22  25
ATOM     25  C   UNL     1      47.313   1.806   6.941  0.00  0.00    +0.000 C 
ATOM     26  N   UNL     1      48.305   2.490   6.298  0.00  0.00    +0.000 N 
ATOM     27  O   UNL     1      47.155   0.608   6.764  0.00  0.00    +0.000 OA
ATOM     28  H   UNL     1      48.346   3.497   6.247  0.00  0.00    +0.000 HD
ATOM     29  H   UNL     1      48.858   1.962   5.635  0.00  0.00    +0.000 HD
ENDBRANCH  22  25
ENDBRANCH  17  19
ENDBRANCH   1  17
TORSDOF 4
ENDMDL
MODEL 3
REMARK VINA RESULT:    -7.841      1.224      2.662
REMARK INTER + INTRA:         -10.449
REMARK INTER:                 -10.296
REMARK INTRA:                  -0.153
REMARK UNBOUND:                -0.775
REMARK  Name = 
REMARK  5 active torsions:
REMARK  status: ('A' for Active; 'I' for Inactive)
REMARK    1  A    between atoms: C_1  and  C_2
REMARK    2  A    between atoms: C_12  and  C_13
REMARK    3  A    between atoms: C_13  and  N_14
REMARK    4  A    between atoms: N_14  and  C_15
REMARK    5  A    between atoms: C_18  and  C_19
REMARK                            x       y       z     vdW  Elec       q    Type
REMARK                         _______ _______ _______ _____ _____    ______ ____
ROOT
ATOM      1  C   UNL     1      43.969   4.219  11.628  0.00  0.00    +0.000 C 
ATOM      2  C   UNL     1      43.449   3.673  12.944  0.00  0.00    +0.000 C 
ATOM      3  C   UNL     1      44.889   3.475  12.600  0.00  0.00    +0.000 C 
ENDROOT
BRANCH   1  15
ATOM      4  C   UNL     1      47.835  10.258  12.425  0.00  0.00    +0.000 C 
ATOM      5  C   UNL     1      47.100   9.082  13.069  0.00  0.00    +0.000 C 
ATOM      6  C   UNL     1      47.883   8.529  14.283  0.00  0.00    +0.000 C 
ATOM      7  O   UNL     1      49.095   7.867  13.894  0.00  0.00    +0.000 OA
ATOM      8  C   UNL     1      48.779   6.736  13.067  0.00  0.00    +0.000 C 
ATOM      9  C   UNL     1      48.058   7.157  11.783  0.00  0.00    +0.000 C 
ATOM     10  N   UNL     1      46.910   8.036  12.047  0.00  0.00    +0.000 N 
ATOM     11  C   UNL     1      45.638   7.555  11.795  0.00  0.00    +0.000 A 
ATOM     12  C   UNL     1      44.611   8.437  11.462  0.00  0.00    +0.000 A 
ATOM     13  C   UNL     1      43.363   7.946  11.098  0.00  0.00    +0.000 A 
ATOM     14  C   UNL     1      43.151   6.576  11.121  0.00  0.00    +0.000 A 
ATOM     15  C   UNL     1      44.188   5.732  11.511  0.00  0.00    +0.000 A 
ATOM     16  N   UNL     1      45.424   6.224  11.807  0.00  0.00    +0.000 NA
ENDBRANCH   1  15
BRANCH   1  17
ATOM     17  N   UNL     1      43.802   3.525  10.333  0.00  0.00    +0.000 N 
ATOM     18  H   UNL     1      43.185   2.719  10.413  0.00  0.00    +0.000 HD
BRANCH  17  19
ATOM     19  C   UNL     1      44.820   3.297   9.387  0.00  0.00    +0.000 A 
ATOM     20  C   UNL     1      45.365   4.278   8.559  0.00  0.00    +0.000 A 
ATOM     21  C   UNL     1      46.304   3.946   7.570  0.00  0.00    +0.000 A 
ATOM     22  C   UNL     1      46.695   2.613   7.378  0.00  0.00    +0.000 A 
ATOM     23  C   UNL     1      46.130   1.619   8.175  0.00  0.00    +0.000 A 
ATOM     24  C   UNL     1      45.199   1.961   9.160  0.00  0.00    +0.000 A 
BRANCH  22  25
ATOM     25  C   UNL     1      47.655   2.290   6.285  0.00  0.00    +0.000 C 
ATOM     26  N   UNL     1      47.700   3.141   5.217  0.00  0.00    +0.000 N 
ATOM     27  O   UNL     1      48.364   1.297   6.331  0.00  0.00    +0.000 OA
ATOM     28  H   UNL     1      47.001   3.845   5.035  0.00  0.00    +0.000 HD
ATOM     29  H   UNL     1      48.306   2.872   4.453  0.00  0.00    +0.000 HD
ENDBRANCH  22  25
ENDBRANCH  17  19
ENDBRANCH   1  17
TORSDOF 4
ENDMDL
MODEL 4
REMARK VINA RESULT:    -6.617      3.404      5.839
REMARK INTER + INTRA:          -8.939
REMARK INTER:                  -8.467
REMARK INTRA:                  -0.472
REMARK UNBOUND:                -0.775
REMARK  Name = 
REMARK  5 active torsions:
REMARK  status: ('A' for Active; 'I' for Inactive)
REMARK    1  A    between atoms: C_1  and  C_2
REMARK    2  A    between atoms: C_12  and  C_13
REMARK    3  A    between atoms: C_13  and  N_14
REMARK    4  A    between atoms: N_14  and  C_15
REMARK    5  A    between atoms: C_18  and  C_19
REMARK                            x       y       z     vdW  Elec       q    Type
REMARK                         _______ _______ _______ _____ _____    ______ ____
ROOT
ATOM      1  C   UNL     1      48.313   7.738  13.138  0.00  0.00    +0.000 C 
ATOM      2  C   UNL     1      48.766   8.079  11.732  0.00  0.00    +0.000 C 
ATOM      3  C   UNL     1      48.266   9.176  12.612  0.00  0.00    +0.000 C 
ENDROOT
BRANCH   1  15
ATOM      4  C   UNL     1      50.629   4.965  19.383  0.00  0.00    +0.000 C 
ATOM      5  C   UNL     1      49.758   5.985  18.649  0.00  0.00    +0.000 C 
ATOM      6  C   UNL     1      48.381   6.142  19.335  0.00  0.00    +0.000 C 
ATOM      7  O   UNL     1      47.560   4.975  19.182  0.00  0.00    +0.000 OA
ATOM      8  C   UNL     1      47.295   4.755  17.787  0.00  0.00    +0.000 C 
ATOM      9  C   UNL     1      48.585   4.512  16.998  0.00  0.00    +0.000 C 
ATOM     10  N   UNL     1      49.602   5.543  17.252  0.00  0.00    +0.000 N 
ATOM     11  C   UNL     1      49.940   6.404  16.224  0.00  0.00    +0.000 A 
ATOM     12  C   UNL     1      51.212   6.971  16.178  0.00  0.00    +0.000 A 
ATOM     13  C   UNL     1      51.590   7.745  15.087  0.00  0.00    +0.000 A 
ATOM     14  C   UNL     1      50.666   7.977  14.080  0.00  0.00    +0.000 A 
ATOM     15  C   UNL     1      49.388   7.436  14.190  0.00  0.00    +0.000 A 
ATOM     16  N   UNL     1      49.050   6.630  15.236  0.00  0.00    +0.000 NA
ENDBRANCH   1  15
BRANCH   1  17
ATOM     17  N   UNL     1      46.978   7.187  13.456  0.00  0.00    +0.000 N 
ATOM     18  H   UNL     1      46.838   7.092  14.460  0.00  0.00    +0.000 HD
BRANCH  17  19
ATOM     19  C   UNL     1      46.326   6.158  12.750  0.00  0.00    +0.000 A 
ATOM     20  C   UNL     1      45.560   6.349  11.601  0.00  0.00    +0.000 A 
ATOM     21  C   UNL     1      44.857   5.284  11.017  0.00  0.00    +0.000 A 
ATOM     22  C   UNL     1      44.892   4.006  11.594  0.00  0.00    +0.000 A 
ATOM     23  C   UNL     1      45.626   3.811  12.763  0.00  0.00    +0.000 A 
ATOM     24  C   UNL     1      46.325   4.877  13.334  0.00  0.00    +0.000 A 
BRANCH  22  25
ATOM     25  C   UNL     1      44.094   2.910  10.977  0.00  0.00    +0.000 C 
ATOM     26  N   UNL     1      44.637   2.266   9.902  0.00  0.00    +0.000 N 
ATOM     27  O   UNL     1      42.989   2.609  11.401  0.00  0.00    +0.000 OA
ATOM     28  H   UNL     1      45.437   2.609   9.392  0.00  0.00    +0.000 HD
ATOM     29  H   UNL     1      44.055   1.571   9.453  0.00  0.00    +0.000 HD
ENDBRANCH  22  25
ENDBRANCH  17  19
ENDBRANCH   1  17
TORSDOF 4
ENDMDL
MODEL 5
REMARK VINA RESULT:    -6.400      3.666      5.953
REMARK INTER + INTRA:          -8.671
REMARK INTER:                  -8.131
REMARK INTRA:                  -0.541
REMARK UNBOUND:                -0.775
REMARK  Name = 
REMARK  5 active torsions:
REMARK  status: ('A' for Active; 'I' for Inactive)
REMARK    1  A    between atoms: C_1  and  C_2
REMARK    2  A    between atoms: C_12  and  C_13
REMARK    3  A    between atoms: C_13  and  N_14
REMARK    4  A    between atoms: N_14  and  C_15
REMARK    5  A    between atoms: C_18  and  C_19
REMARK                            x       y       z     vdW  Elec       q    Type
REMARK                         _______ _______ _______ _____ _____    ______ ____
ROOT
ATOM      1  C   UNL     1      47.926   7.591  13.435  0.00  0.00    +0.000 C 
ATOM      2  C   UNL     1      48.944   6.826  12.610  0.00  0.00    +0.000 C 
ATOM      3  C   UNL     1      48.674   8.256  12.275  0.00  0.00    +0.000 C 
ENDROOT
BRANCH   1  15
ATOM      4  C   UNL     1      50.029   6.378  20.229  0.00  0.00    +0.000 C 
ATOM      5  C   UNL     1      48.954   6.244  19.150  0.00  0.00    +0.000 C 
ATOM      6  C   UNL     1      48.268   4.859  19.211  0.00  0.00    +0.000 C 
ATOM      7  O   UNL     1      49.145   3.798  18.806  0.00  0.00    +0.000 OA
ATOM      8  C   UNL     1      49.536   3.995  17.438  0.00  0.00    +0.000 C 
ATOM      9  C   UNL     1      50.297   5.311  17.251  0.00  0.00    +0.000 C 
ATOM     10  N   UNL     1      49.586   6.459  17.835  0.00  0.00    +0.000 N 
ATOM     11  C   UNL     1      49.075   7.422  16.984  0.00  0.00    +0.000 A 
ATOM     12  C   UNL     1      48.932   8.736  17.423  0.00  0.00    +0.000 A 
ATOM     13  C   UNL     1      48.527   9.726  16.536  0.00  0.00    +0.000 A 
ATOM     14  C   UNL     1      48.225   9.371  15.231  0.00  0.00    +0.000 A 
ATOM     15  C   UNL     1      48.330   8.037  14.845  0.00  0.00    +0.000 A 
ATOM     16  N   UNL     1      48.786   7.087  15.711  0.00  0.00    +0.000 NA
ENDBRANCH   1  15
BRANCH   1  17
ATOM     17  N   UNL     1      46.466   7.505  13.218  0.00  0.00    +0.000 N 
ATOM     18  H   UNL     1      45.947   7.989  13.948  0.00  0.00    +0.000 HD
BRANCH  17  19
ATOM     19  C   UNL     1      45.770   6.368  12.764  0.00  0.00    +0.000 A 
ATOM     20  C   UNL     1      45.627   5.186  13.490  0.00  0.00    +0.000 A 
ATOM     21  C   UNL     1      45.006   4.062  12.923  0.00  0.00    +0.000 A 
ATOM     22  C   UNL     1      44.539   4.098  11.601  0.00  0.00    +0.000 A 
ATOM     23  C   UNL     1      44.709   5.262  10.854  0.00  0.00    +0.000 A 
ATOM     24  C   UNL     1      45.324   6.376  11.429  0.00  0.00    +0.000 A 
BRANCH  22  25
ATOM     25  C   UNL     1      43.932   2.870  11.014  0.00  0.00    +0.000 C 
ATOM     26  N   UNL     1      44.525   2.347   9.900  0.00  0.00    +0.000 N 
ATOM     27  O   UNL     1      42.933   2.359  11.496  0.00  0.00    +0.000 OA
ATOM     28  H   UNL     1      45.212   2.841   9.350  0.00  0.00    +0.000 HD
ATOM     29  H   UNL     1      44.062   1.555   9.475  0.00  0.00    +0.000 HD
ENDBRANCH  22  25
ENDBRANCH  17  19
ENDBRANCH   1  17
TORSDOF 4
ENDMDL
MODEL 6
REMARK VINA RESULT:    -6.378      3.484      5.019
REMARK INTER + INTRA:          -8.644
REMARK INTER:                  -8.432
REMARK INTRA:                  -0.212
REMARK UNBOUND:                -0.775
REMARK  Name = 
REMARK  5 active torsions:
REMARK  status: ('A' for Active; 'I' for Inactive)
REMARK    1  A    between atoms: C_1  and  C_2
REMARK    2  A    between atoms: C_12  and  C_13
REMARK    3  A    between atoms: C_13  and  N_14
REMARK    4  A    between atoms: N_14  and  C_15
REMARK    5  A    between atoms: C_18  and  C_19
REMARK                            x       y       z     vdW  Elec       q    Type
REMARK                         _______ _______ _______ _____ _____    ______ ____
ROOT
ATOM      1  C   UNL     1      47.554   6.223  13.973  0.00  0.00    +0.000 C 
ATOM      2  C   UNL     1      48.677   6.612  13.032  0.00  0.00    +0.000 C 
ATOM      3  C   UNL     1      48.082   7.659  13.914  0.00  0.00    +0.000 C 
ENDROOT
BRANCH   1  15
ATOM      4  C   UNL     1      51.733   4.617  19.631  0.00  0.00    +0.000 C 
ATOM      5  C   UNL     1      51.552   4.672  18.114  0.00  0.00    +0.000 C 
ATOM      6  C   UNL     1      52.843   5.156  17.413  0.00  0.00    +0.000 C 
ATOM      7  O   UNL     1      53.117   6.541  17.670  0.00  0.00    +0.000 OA
ATOM      8  C   UNL     1      52.048   7.346  17.149  0.00  0.00    +0.000 C 
ATOM      9  C   UNL     1      50.711   7.014  17.818  0.00  0.00    +0.000 C 
ATOM     10  N   UNL     1      50.423   5.572  17.813  0.00  0.00    +0.000 N 
ATOM     11  C   UNL     1      49.374   5.111  17.039  0.00  0.00    +0.000 A 
ATOM     12  C   UNL     1      48.694   3.951  17.404  0.00  0.00    +0.000 A 
ATOM     13  C   UNL     1      47.569   3.551  16.693  0.00  0.00    +0.000 A 
ATOM     14  C   UNL     1      47.173   4.296  15.594  0.00  0.00    +0.000 A 
ATOM     15  C   UNL     1      47.911   5.420  15.230  0.00  0.00    +0.000 A 
ATOM     16  N   UNL     1      48.976   5.834  15.973  0.00  0.00    +0.000 NA
ENDBRANCH   1  15
BRANCH   1  17
ATOM     17  N   UNL     1      46.141   6.101  13.554  0.00  0.00    +0.000 N 
ATOM     18  H   UNL     1      45.511   6.072  14.353  0.00  0.00    +0.000 HD
BRANCH  17  19
ATOM     19  C   UNL     1      45.664   5.299  12.500  0.00  0.00    +0.000 A 
ATOM     20  C   UNL     1      45.293   3.960  12.629  0.00  0.00    +0.000 A 
ATOM     21  C   UNL     1      44.927   3.202  11.506  0.00  0.00    +0.000 A 
ATOM     22  C   UNL     1      44.950   3.770  10.224  0.00  0.00    +0.000 A 
ATOM     23  C   UNL     1      45.354   5.096  10.079  0.00  0.00    +0.000 A 
ATOM     24  C   UNL     1      45.712   5.844  11.203  0.00  0.00    +0.000 A 
BRANCH  22  25
ATOM     25  C   UNL     1      44.605   2.921   9.050  0.00  0.00    +0.000 C 
ATOM     26  N   UNL     1      44.286   3.560   7.885  0.00  0.00    +0.000 N 
ATOM     27  O   UNL     1      44.588   1.702   9.125  0.00  0.00    +0.000 OA
ATOM     28  H   UNL     1      44.083   4.547   7.828  0.00  0.00    +0.000 HD
ATOM     29  H   UNL     1      43.988   2.973   7.117  0.00  0.00    +0.000 HD
ENDBRANCH  22  25
ENDBRANCH  17  19
ENDBRANCH   1  17
TORSDOF 4
ENDMDL
