MODEL 1
REMARK VINA RESULT:    -9.297      0.000      0.000
REMARK INTER + INTRA:         -13.497
REMARK INTER:                 -12.559
REMARK INTRA:                  -0.938
REMARK UNBOUND:                -0.938
REMARK  Name = 
REMARK  6 active torsions:
REMARK  status: ('A' for Active; 'I' for Inactive)
REMARK    1  A    between atoms: C_2  and  C_25
REMARK    2  A    between atoms: N_3  and  C_4
REMARK    3  A    between atoms: C_4  and  C_5
REMARK    4  A    between atoms: C_8  and  C_9
REMARK    5  A    between atoms: C_9  and  N_10
REMARK    6  A    between atoms: C_11  and  C_13
REMARK                            x       y       z     vdW  Elec       q    Type
REMARK                         _______ _______ _______ _____ _____    ______ ____
ROOT
ATOM      1  C   UNL     1      43.123   4.156  11.629  0.00  0.00    +0.000 C 
ATOM      2  C   UNL     1      43.137   4.923  12.955  0.00  0.00    +0.000 C 
ATOM      3  C   UNL     1      44.495   5.555  13.246  0.00  0.00    +0.000 C 
ATOM      4  C   UNL     1      44.964   6.490  12.121  0.00  0.00    +0.000 C 
ATOM      5  C   UNL     1      44.844   5.836  10.733  0.00  0.00    +0.000 C 
ATOM      6  C   UNL     1      43.513   5.121  10.497  0.00  0.00    +0.000 C 
ENDROOT
BRANCH   1   7
ATOM      7  C   UNL     1      44.011   2.894  11.648  0.00  0.00    +0.000 C 
BRANCH   7  10
ATOM      8  O   UNL     1      43.761   1.302   9.244  0.00  0.00    +0.000 OA
ATOM      9  C   UNL     1      44.713   2.057   9.400  0.00  0.00    +0.000 C 
ATOM     10  N   UNL     1      44.917   2.843  10.516  0.00  0.00    +0.000 N 
ATOM     11  H   UNL     1      45.739   3.440  10.493  0.00  0.00    +0.000 HD
BRANCH   9  12
ATOM     12  C   UNL     1      45.769   2.196   8.344  0.00  0.00    +0.000 A 
ATOM     13  C   UNL     1      45.930   3.409   7.684  0.00  0.00    +0.000 A 
ATOM     14  C   UNL     1      46.894   3.488   6.684  0.00  0.00    +0.000 A 
ATOM     15  C   UNL     1      47.654   2.363   6.380  0.00  0.00    +0.000 A 
ATOM     16  C   UNL     1      47.431   1.198   7.101  0.00  0.00    +0.000 A 
ATOM     17  N   UNL     1      46.512   1.084   8.084  0.00  0.00    +0.000 NA
ENDBRANCH   9  12
ENDBRANCH   7  10
ENDBRANCH   1   7
BRANCH   4  18
ATOM     18  C   UNL     1      46.418   6.951  12.337  0.00  0.00    +0.000 C 
BRANCH  18  19
ATOM     19  N   UNL     1      46.882   6.688  13.682  0.00  0.00    +0.000 N 
ATOM     20  C   UNL     1      48.207   6.478  13.973  0.00  0.00    +0.000 C 
ATOM     21  O   UNL     1      49.093   6.569  13.129  0.00  0.00    +0.000 OA
ATOM     22  H   UNL     1      46.200   6.285  14.319  0.00  0.00    +0.000 HD
BRANCH  20  23
ATOM     23  C   UNL     1      48.520   6.222  15.384  0.00  0.00    +0.000 A 
ATOM     24  C   UNL     1      49.281   7.137  16.094  0.00  0.00    +0.000 A 
ATOM     25  S   UNL     1      49.502   6.721  17.731  0.00  0.00    +0.000 S 
ATOM     26  C   UNL     1      48.628   5.272  17.538  0.00  0.00    +0.000 A 
ATOM     27  N   UNL     1      48.455   4.415  18.577  0.00  0.00    +0.000 NA
ATOM     28  C   UNL     1      47.798   3.344  18.283  0.00  0.00    +0.000 A 
ATOM     29  N   UNL     1      47.296   3.052  17.041  0.00  0.00    +0.000 N 
ATOM     30  C   UNL     1      47.427   3.901  15.966  0.00  0.00    +0.000 A 
ATOM     31  O   UNL     1      46.928   3.634  14.876  0.00  0.00    +0.000 OA
ATOM     32  C   UNL     1      48.164   5.117  16.244  0.00  0.00    +0.000 A 
ATOM     33  H   UNL     1      46.784   2.199  16.875  0.00  0.00    +0.000 HD
ENDBRANCH  20  23
ENDBRANCH  18  19
ENDBRANCH   4  18
TORSDOF 6
ENDMDL
MODEL 2
REMARK VINA RESULT:    -8.975      1.644      2.170
REMARK INTER + INTRA:         -13.061
REMARK INTER:                 -12.197
REMARK INTRA:                  -0.865
REMARK UNBOUND:                -0.938
REMARK  Name = 
REMARK  6 active torsions:
REMARK  status: ('A' for Active; 'I' for Inactive)
REMARK    1  A    between atoms: C_2  and  C_25
REMARK    2  A    between atoms: N_3  and  C_4
REMARK    3  A    between atoms: C_4  and  C_5
REMARK    4  A    between atoms: C_8  and  C_9
REMARK    5  A    between atoms: C_9  and  N_10
REMARK    6  A    between atoms: C_11  and  C_13
REMARK                            x       y       z     vdW  Elec       q    Type
REMARK                         _______ _______ _______ _____ _____    ______ ____
ROOT
ATOM      1  C   UNL     1      43.105   4.150  11.697  0.00  0.00    +0.000 C 
ATOM      2  C   UNL     1      44.062   3.001  12.031  0.00  0.00    +0.000 C 
ATOM      3  C   UNL     1      45.481   3.489  12.307  0.00  0.00    +0.000 C 
ATOM      4  C   UNL     1      45.537   4.533  13.433  0.00  0.00    +0.000 C 
ATOM      5  C   UNL     1      44.499   5.652  13.242  0.00  0.00    +0.000 C 
ATOM      6  C   UNL     1      43.105   5.147  12.867  0.00  0.00    +0.000 C 
ENDROOT
BRANCH   1   7
ATOM      7  C   UNL     1      43.423   4.834  10.351  0.00  0.00    +0.000 C 
BRANCH   7  10
ATOM      8  O   UNL     1      45.843   5.468   8.896  0.00  0.00    +0.000 OA
ATOM      9  C   UNL     1      45.334   4.356   8.813  0.00  0.00    +0.000 C 
ATOM     10  N   UNL     1      44.178   3.973   9.462  0.00  0.00    +0.000 N 
ATOM     11  H   UNL     1      43.889   3.009   9.317  0.00  0.00    +0.000 HD
BRANCH   9  12
ATOM     12  C   UNL     1      45.957   3.284   7.971  0.00  0.00    +0.000 A 
ATOM     13  C   UNL     1      46.024   1.981   8.451  0.00  0.00    +0.000 A 
ATOM     14  C   UNL     1      46.643   1.020   7.657  0.00  0.00    +0.000 A 
ATOM     15  C   UNL     1      47.172   1.393   6.425  0.00  0.00    +0.000 A 
ATOM     16  C   UNL     1      47.047   2.715   6.023  0.00  0.00    +0.000 A 
ATOM     17  N   UNL     1      46.445   3.674   6.759  0.00  0.00    +0.000 NA
ENDBRANCH   9  12
ENDBRANCH   7  10
ENDBRANCH   1   7
BRANCH   4  18
ATOM     18  C   UNL     1      46.939   5.161  13.553  0.00  0.00    +0.000 C 
BRANCH  18  19
ATOM     19  N   UNL     1      47.274   5.495  14.921  0.00  0.00    +0.000 N 
ATOM     20  C   UNL     1      48.439   6.139  15.254  0.00  0.00    +0.000 C 
ATOM     21  O   UNL     1      49.238   6.540  14.412  0.00  0.00    +0.000 OA
ATOM     22  H   UNL     1      46.843   4.919  15.639  0.00  0.00    +0.000 HD
BRANCH  20  23
ATOM     23  C   UNL     1      48.637   6.407  16.683  0.00  0.00    +0.000 A 
ATOM     24  C   UNL     1      48.881   7.703  17.110  0.00  0.00    +0.000 A 
ATOM     25  S   UNL     1      49.026   7.852  18.801  0.00  0.00    +0.000 S 
ATOM     26  C   UNL     1      48.819   6.175  19.021  0.00  0.00    +0.000 A 
ATOM     27  N   UNL     1      48.857   5.621  20.261  0.00  0.00    +0.000 NA
ATOM     28  C   UNL     1      48.714   4.339  20.278  0.00  0.00    +0.000 A 
ATOM     29  N   UNL     1      48.535   3.558  19.165  0.00  0.00    +0.000 N 
ATOM     30  C   UNL     1      48.466   4.078  17.894  0.00  0.00    +0.000 A 
ATOM     31  O   UNL     1      48.260   3.360  16.920  0.00  0.00    +0.000 OA
ATOM     32  C   UNL     1      48.628   5.516  17.820  0.00  0.00    +0.000 A 
ATOM     33  H   UNL     1      48.422   2.559  19.245  0.00  0.00    +0.000 HD
ENDBRANCH  20  23
ENDBRANCH  18  19
ENDBRANCH   4  18
TORSDOF 6
ENDMDL
MODEL 3
REMARK VINA RESULT:    -8.895      1.935      2.980
REMARK INTER + INTRA:         -12.954
REMARK INTER:                 -12.121
REMARK INTRA:                  -0.833
REMARK UNBOUND:                -0.938
REMARK  Name = 
REMARK  6 active torsions:
REMARK  status: ('A' for Active; 'I' for Inactive)
REMARK    1  A    between atoms: C_2  and  C_25
REMARK    2  A    between atoms: N_3  and  C_4
REMARK    3  A    between atoms: C_4  and  C_5
REMARK    4  A    between atoms: C_8  and  C_9
REMARK    5  A    between atoms: C_9  and  N_10
REMARK    6  A    between atoms: C_11  and  C_13
REMARK                            x       y       z     vdW  Elec       q    Type
REMARK                         _______ _______ _______ _____ _____    ______ ____
ROOT
ATOM      1  C   UNL     1      42.998   4.279  11.600  0.00  0.00    +0.000 C 
ATOM      2  C   UNL     1      43.822   3.024  11.907  0.00  0.00    +0.000 C 
ATOM      3  C   UNL     1      45.291   3.345  12.167  0.00  0.00    +0.000 C 
ATOM      4  C   UNL     1      45.481   4.361  13.304  0.00  0.00    +0.000 C 
ATOM      5  C   UNL     1      44.574   5.594  13.140  0.00  0.00    +0.000 C 
ATOM      6  C   UNL     1      43.127   5.255  12.781  0.00  0.00    +0.000 C 
ENDROOT
BRANCH   1   7
ATOM      7  C   UNL     1      43.373   4.939  10.257  0.00  0.00    +0.000 C 
BRANCH   7  10
ATOM      8  O   UNL     1      45.860   5.484   8.882  0.00  0.00    +0.000 OA
ATOM      9  C   UNL     1      45.318   4.389   8.788  0.00  0.00    +0.000 C 
ATOM     10  N   UNL     1      44.129   4.047   9.399  0.00  0.00    +0.000 N 
ATOM     11  H   UNL     1      43.814   3.092   9.251  0.00  0.00    +0.000 HD
BRANCH   9  12
ATOM     12  C   UNL     1      45.935   3.291   7.974  0.00  0.00    +0.000 A 
ATOM     13  C   UNL     1      45.990   2.000   8.487  0.00  0.00    +0.000 A 
ATOM     14  C   UNL     1      46.604   1.015   7.718  0.00  0.00    +0.000 A 
ATOM     15  C   UNL     1      47.137   1.353   6.478  0.00  0.00    +0.000 A 
ATOM     16  C   UNL     1      47.024   2.666   6.043  0.00  0.00    +0.000 A 
ATOM     17  N   UNL     1      46.428   3.648   6.754  0.00  0.00    +0.000 NA
ENDBRANCH   9  12
ENDBRANCH   7  10
ENDBRANCH   1   7
BRANCH   4  18
ATOM     18  C   UNL     1      46.946   4.824  13.410  0.00  0.00    +0.000 C 
BRANCH  18  19
ATOM     19  N   UNL     1      47.265   5.336  14.725  0.00  0.00    +0.000 N 
ATOM     20  C   UNL     1      47.604   4.513  15.770  0.00  0.00    +0.000 C 
ATOM     21  O   UNL     1      47.730   3.298  15.642  0.00  0.00    +0.000 OA
ATOM     22  H   UNL     1      46.866   6.241  14.960  0.00  0.00    +0.000 HD
BRANCH  20  23
ATOM     23  C   UNL     1      47.899   5.181  17.043  0.00  0.00    +0.000 A 
ATOM     24  C   UNL     1      47.138   4.887  18.164  0.00  0.00    +0.000 A 
ATOM     25  S   UNL     1      47.648   5.700  19.571  0.00  0.00    +0.000 S 
ATOM     26  C   UNL     1      48.877   6.517  18.720  0.00  0.00    +0.000 A 
ATOM     27  N   UNL     1      49.692   7.405  19.346  0.00  0.00    +0.000 NA
ATOM     28  C   UNL     1      50.559   7.971  18.577  0.00  0.00    +0.000 A 
ATOM     29  N   UNL     1      50.687   7.727  17.233  0.00  0.00    +0.000 N 
ATOM     30  C   UNL     1      49.900   6.820  16.562  0.00  0.00    +0.000 A 
ATOM     31  O   UNL     1      50.066   6.590  15.368  0.00  0.00    +0.000 OA
ATOM     32  C   UNL     1      48.904   6.161  17.383  0.00  0.00    +0.000 A 
ATOM     33  H   UNL     1      51.389   8.198  16.685  0.00  0.00    +0.000 HD
ENDBRANCH  20  23
ENDBRANCH  18  19
ENDBRANCH   4  18
TORSDOF 6
ENDMDL
MODEL 4
REMARK VINA RESULT:    -8.702      1.885      2.528
REMARK INTER + INTRA:         -12.692
REMARK INTER:                 -12.009
REMARK INTRA:                  -0.683
REMARK UNBOUND:                -0.938
REMARK  Name = 
REMARK  6 active torsions:
REMARK  status: ('A' for Active; 'I' for Inactive)
REMARK    1  A    between atoms: C_2  and  C_25
REMARK    2  A    between atoms: N_3  and  C_4
REMARK    3  A    between atoms: C_4  and  C_5
REMARK    4  A    between atoms: C_8  and  C_9
REMARK    5  A    between atoms: C_9  and  N_10
REMARK    6  A    between atoms: C_11  and  C_13
REMARK                            x       y       z     vdW  Elec       q    Type
REMARK                         _______ _______ _______ _____ _____    ______ ____
ROOT
ATOM      1  C   UNL     1      43.856   5.933  11.269  0.00  0.00    +0.000 C 
ATOM      2  C   UNL     1      43.505   5.952  12.760  0.00  0.00    +0.000 C 
ATOM      3  C   UNL     1      44.282   4.904  13.551  0.00  0.00    +0.000 C 
ATOM      4  C   UNL     1      45.802   5.051  13.392  0.00  0.00    +0.000 C 
ATOM      5  C   UNL     1      46.223   5.184  11.918  0.00  0.00    +0.000 C 
ATOM      6  C   UNL     1      45.368   6.165  11.115  0.00  0.00    +0.000 C 
ENDROOT
BRANCH   1   7
ATOM      7  C   UNL     1      43.390   4.650  10.550  0.00  0.00    +0.000 C 
BRANCH   7  10
ATOM      8  O   UNL     1      44.043   1.901   9.925  0.00  0.00    +0.000 OA
ATOM      9  C   UNL     1      44.614   2.825   9.359  0.00  0.00    +0.000 C 
ATOM     10  N   UNL     1      44.374   4.162   9.603  0.00  0.00    +0.000 N 
ATOM     11  H   UNL     1      44.907   4.818   9.038  0.00  0.00    +0.000 HD
BRANCH   9  12
ATOM     12  C   UNL     1      45.655   2.563   8.313  0.00  0.00    +0.000 A 
ATOM     13  C   UNL     1      45.984   3.560   7.401  0.00  0.00    +0.000 A 
ATOM     14  C   UNL     1      46.927   3.267   6.421  0.00  0.00    +0.000 A 
ATOM     15  C   UNL     1      47.500   2.000   6.385  0.00  0.00    +0.000 A 
ATOM     16  C   UNL     1      47.120   1.073   7.344  0.00  0.00    +0.000 A 
ATOM     17  N   UNL     1      46.216   1.321   8.317  0.00  0.00    +0.000 NA
ENDBRANCH   9  12
ENDBRANCH   7  10
ENDBRANCH   1   7
BRANCH   4  18
ATOM     18  C   UNL     1      46.556   3.866  14.027  0.00  0.00    +0.000 C 
BRANCH  18  19
ATOM     19  N   UNL     1      47.561   4.299  14.973  0.00  0.00    +0.000 N 
ATOM     20  C   UNL     1      47.481   4.008  16.311  0.00  0.00    +0.000 C 
ATOM     21  O   UNL     1      46.596   3.301  16.784  0.00  0.00    +0.000 OA
ATOM     22  H   UNL     1      48.095   5.123  14.710  0.00  0.00    +0.000 HD
BRANCH  20  23
ATOM     23  C   UNL     1      48.577   4.518  17.145  0.00  0.00    +0.000 A 
ATOM     24  C   UNL     1      48.490   5.791  17.685  0.00  0.00    +0.000 A 
ATOM     25  S   UNL     1      49.813   6.207  18.676  0.00  0.00    +0.000 S 
ATOM     26  C   UNL     1      50.576   4.714  18.376  0.00  0.00    +0.000 A 
ATOM     27  N   UNL     1      51.786   4.423  18.921  0.00  0.00    +0.000 NA
ATOM     28  C   UNL     1      52.260   3.271  18.588  0.00  0.00    +0.000 A 
ATOM     29  N   UNL     1      51.631   2.378  17.759  0.00  0.00    +0.000 N 
ATOM     30  C   UNL     1      50.396   2.619  17.203  0.00  0.00    +0.000 A 
ATOM     31  O   UNL     1      49.837   1.782  16.500  0.00  0.00    +0.000 OA
ATOM     32  C   UNL     1      49.823   3.906  17.543  0.00  0.00    +0.000 A 
ATOM     33  H   UNL     1      52.051   1.488  17.540  0.00  0.00    +0.000 HD
ENDBRANCH  20  23
ENDBRANCH  18  19
ENDBRANCH   4  18
TORSDOF 6
ENDMDL
MODEL 5
REMARK VINA RESULT:    -8.131      3.158      5.183
REMARK INTER + INTRA:         -11.920
REMARK INTER:                 -10.779
REMARK INTRA:                  -1.141
REMARK UNBOUND:                -0.938
REMARK  Name = 
REMARK  6 active torsions:
REMARK  status: ('A' for Active; 'I' for Inactive)
REMARK    1  A    between atoms: C_2  and  C_25
REMARK    2  A    between atoms: N_3  and  C_4
REMARK    3  A    between atoms: C_4  and  C_5
REMARK    4  A    between atoms: C_8  and  C_9
REMARK    5  A    between atoms: C_9  and  N_10
REMARK    6  A    between atoms: C_11  and  C_13
REMARK                            x       y       z     vdW  Elec       q    Type
REMARK                         _______ _______ _______ _____ _____    ______ ____
ROOT
ATOM      1  C   UNL     1      43.712   3.210  11.907  0.00  0.00    +0.000 C 
ATOM      2  C   UNL     1      45.057   2.530  12.181  0.00  0.00    +0.000 C 
ATOM      3  C   UNL     1      46.172   3.536  12.453  0.00  0.00    +0.000 C 
ATOM      4  C   UNL     1      45.841   4.483  13.617  0.00  0.00    +0.000 C 
ATOM      5  C   UNL     1      44.437   5.099  13.486  0.00  0.00    +0.000 C 
ATOM      6  C   UNL     1      43.350   4.090  13.114  0.00  0.00    +0.000 C 
ENDROOT
BRANCH   1   7
ATOM      7  C   UNL     1      43.690   4.002  10.583  0.00  0.00    +0.000 C 
BRANCH   7  10
ATOM      8  O   UNL     1      45.590   5.219   8.770  0.00  0.00    +0.000 OA
ATOM      9  C   UNL     1      45.363   4.016   8.726  0.00  0.00    +0.000 C 
ATOM     10  N   UNL     1      44.467   3.356   9.543  0.00  0.00    +0.000 N 
ATOM     11  H   UNL     1      44.403   2.351   9.408  0.00  0.00    +0.000 HD
BRANCH   9  12
ATOM     12  C   UNL     1      46.075   3.133   7.746  0.00  0.00    +0.000 A 
ATOM     13  C   UNL     1      46.399   1.828   8.101  0.00  0.00    +0.000 A 
ATOM     14  C   UNL     1      47.093   1.050   7.179  0.00  0.00    +0.000 A 
ATOM     15  C   UNL     1      47.438   1.600   5.948  0.00  0.00    +0.000 A 
ATOM     16  C   UNL     1      47.061   2.907   5.676  0.00  0.00    +0.000 A 
ATOM     17  N   UNL     1      46.379   3.691   6.540  0.00  0.00    +0.000 NA
ENDBRANCH   9  12
ENDBRANCH   7  10
ENDBRANCH   1   7
BRANCH   4  18
ATOM     18  C   UNL     1      46.879   5.615  13.739  0.00  0.00    +0.000 C 
BRANCH  18  19
ATOM     19  N   UNL     1      46.350   6.891  13.311  0.00  0.00    +0.000 N 
ATOM     20  C   UNL     1      46.994   7.680  12.390  0.00  0.00    +0.000 C 
ATOM     21  O   UNL     1      48.019   7.326  11.816  0.00  0.00    +0.000 OA
ATOM     22  H   UNL     1      45.728   7.358  13.965  0.00  0.00    +0.000 HD
BRANCH  20  23
ATOM     23  C   UNL     1      46.333   8.948  12.059  0.00  0.00    +0.000 A 
ATOM     24  C   UNL     1      47.007  10.143  12.255  0.00  0.00    +0.000 A 
ATOM     25  S   UNL     1      46.124  11.516  11.764  0.00  0.00    +0.000 S 
ATOM     26  C   UNL     1      44.785  10.563  11.317  0.00  0.00    +0.000 A 
ATOM     27  N   UNL     1      43.654  11.131  10.825  0.00  0.00    +0.000 NA
ATOM     28  C   UNL     1      42.709  10.295  10.554  0.00  0.00    +0.000 A 
ATOM     29  N   UNL     1      42.794   8.937  10.730  0.00  0.00    +0.000 N 
ATOM     30  C   UNL     1      43.927   8.317  11.203  0.00  0.00    +0.000 A 
ATOM     31  O   UNL     1      43.990   7.095  11.307  0.00  0.00    +0.000 OA
ATOM     32  C   UNL     1      45.017   9.215  11.528  0.00  0.00    +0.000 A 
ATOM     33  H   UNL     1      42.022   8.334  10.494  0.00  0.00    +0.000 HD
ENDBRANCH  20  23
ENDBRANCH  18  19
ENDBRANCH   4  18
TORSDOF 6
ENDMDL
MODEL 6
REMARK VINA RESULT:    -7.947      1.490      2.058
REMARK INTER + INTRA:         -11.673
REMARK INTER:                 -11.087
REMARK INTRA:                  -0.586
REMARK UNBOUND:                -0.938
REMARK  Name = 
REMARK  6 active torsions:
REMARK  status: ('A' for Active; 'I' for Inactive)
REMARK    1  A    between atoms: C_2  and  C_25
REMARK    2  A    between atoms: N_3  and  C_4
REMARK    3  A    between atoms: C_4  and  C_5
REMARK    4  A    between atoms: C_8  and  C_9
REMARK    5  A    between atoms: C_9  and  N_10
REMARK    6  A    between atoms: C_11  and  C_13
REMARK                            x       y       z     vdW  Elec       q    Type
REMARK                         _______ _______ _______ _____ _____    ______ ____
ROOT
ATOM      1  C   UNL     1      43.355   4.208  11.459  0.00  0.00    +0.000 C 
ATOM      2  C   UNL     1      43.161   4.771  12.871  0.00  0.00    +0.000 C 
ATOM      3  C   UNL     1      44.478   5.209  13.506  0.00  0.00    +0.000 C 
ATOM      4  C   UNL     1      45.230   6.241  12.653  0.00  0.00    +0.000 C 
ATOM      5  C   UNL     1      45.341   5.810  11.180  0.00  0.00    +0.000 C 
ATOM      6  C   UNL     1      44.033   5.280  10.590  0.00  0.00    +0.000 C 
ENDROOT
BRANCH   1   7
ATOM      7  C   UNL     1      44.124   2.871  11.438  0.00  0.00    +0.000 C 
BRANCH   7  10
ATOM      8  O   UNL     1      43.749   1.406   8.970  0.00  0.00    +0.000 OA
ATOM      9  C   UNL     1      44.768   2.060   9.163  0.00  0.00    +0.000 C 
ATOM     10  N   UNL     1      45.033   2.778  10.311  0.00  0.00    +0.000 N 
ATOM     11  H   UNL     1      45.909   3.293  10.318  0.00  0.00    +0.000 HD
BRANCH   9  12
ATOM     12  C   UNL     1      45.843   2.138   8.120  0.00  0.00    +0.000 A 
ATOM     13  C   UNL     1      45.930   3.259   7.302  0.00  0.00    +0.000 A 
ATOM     14  C   UNL     1      46.917   3.279   6.321  0.00  0.00    +0.000 A 
ATOM     15  C   UNL     1      47.771   2.188   6.193  0.00  0.00    +0.000 A 
ATOM     16  C   UNL     1      47.617   1.119   7.064  0.00  0.00    +0.000 A 
ATOM     17  N   UNL     1      46.679   1.066   8.034  0.00  0.00    +0.000 NA
ENDBRANCH   9  12
ENDBRANCH   7  10
ENDBRANCH   1   7
BRANCH   4  18
ATOM     18  C   UNL     1      46.643   6.512  13.206  0.00  0.00    +0.000 C 
BRANCH  18  19
ATOM     19  N   UNL     1      46.888   5.811  14.448  0.00  0.00    +0.000 N 
ATOM     20  C   UNL     1      48.101   5.858  15.089  0.00  0.00    +0.000 C 
ATOM     21  O   UNL     1      49.033   6.552  14.693  0.00  0.00    +0.000 OA
ATOM     22  H   UNL     1      46.303   4.999  14.625  0.00  0.00    +0.000 HD
BRANCH  20  23
ATOM     23  C   UNL     1      48.195   5.093  16.338  0.00  0.00    +0.000 A 
ATOM     24  C   UNL     1      47.872   3.745  16.343  0.00  0.00    +0.000 A 
ATOM     25  S   UNL     1      48.094   2.992  17.855  0.00  0.00    +0.000 S 
ATOM     26  C   UNL     1      48.584   4.457  18.574  0.00  0.00    +0.000 A 
ATOM     27  N   UNL     1      48.908   4.517  19.891  0.00  0.00    +0.000 NA
ATOM     28  C   UNL     1      49.234   5.693  20.309  0.00  0.00    +0.000 A 
ATOM     29  N   UNL     1      49.266   6.819  19.526  0.00  0.00    +0.000 N 
ATOM     30  C   UNL     1      48.969   6.801  18.184  0.00  0.00    +0.000 A 
ATOM     31  O   UNL     1      49.050   7.816  17.497  0.00  0.00    +0.000 OA
ATOM     32  C   UNL     1      48.590   5.501  17.666  0.00  0.00    +0.000 A 
ATOM     33  H   UNL     1      49.535   7.711  19.911  0.00  0.00    +0.000 HD
ENDBRANCH  20  23
ENDBRANCH  18  19
ENDBRANCH   4  18
TORSDOF 6
ENDMDL
MODEL 7
REMARK VINA RESULT:    -7.665      3.322      4.301
REMARK INTER + INTRA:         -11.291
REMARK INTER:                 -10.325
REMARK INTRA:                  -0.966
REMARK UNBOUND:                -0.938
REMARK  Name = 
REMARK  6 active torsions:
REMARK  status: ('A' for Active; 'I' for Inactive)
REMARK    1  A    between atoms: C_2  and  C_25
REMARK    2  A    between atoms: N_3  and  C_4
REMARK    3  A    between atoms: C_4  and  C_5
REMARK    4  A    between atoms: C_8  and  C_9
REMARK    5  A    between atoms: C_9  and  N_10
REMARK    6  A    between atoms: C_11  and  C_13
REMARK                            x       y       z     vdW  Elec       q    Type
REMARK                         _______ _______ _______ _____ _____    ______ ____
ROOT
ATOM      1  C   UNL     1      44.183   3.182  12.194  0.00  0.00    +0.000 C 
ATOM      2  C   UNL     1      45.655   3.606  12.225  0.00  0.00    +0.000 C 
ATOM      3  C   UNL     1      45.836   5.093  11.930  0.00  0.00    +0.000 C 
ATOM      4  C   UNL     1      45.036   5.987  12.889  0.00  0.00    +0.000 C 
ATOM      5  C   UNL     1      43.571   5.533  13.023  0.00  0.00    +0.000 C 
ATOM      6  C   UNL     1      43.405   4.025  13.218  0.00  0.00    +0.000 C 
ENDROOT
BRANCH   1   7
ATOM      7  C   UNL     1      43.558   3.257  10.785  0.00  0.00    +0.000 C 
BRANCH   7  10
ATOM      8  O   UNL     1      44.613   4.788   8.568  0.00  0.00    +0.000 OA
ATOM      9  C   UNL     1      44.936   3.618   8.732  0.00  0.00    +0.000 C 
ATOM     10  N   UNL     1      44.474   2.812   9.753  0.00  0.00    +0.000 N 
ATOM     11  H   UNL     1      44.851   1.869   9.777  0.00  0.00    +0.000 HD
BRANCH   9  12
ATOM     12  C   UNL     1      45.903   2.947   7.802  0.00  0.00    +0.000 A 
ATOM     13  C   UNL     1      46.383   1.678   8.105  0.00  0.00    +0.000 A 
ATOM     14  C   UNL     1      47.307   1.103   7.237  0.00  0.00    +0.000 A 
ATOM     15  C   UNL     1      47.717   1.812   6.112  0.00  0.00    +0.000 A 
ATOM     16  C   UNL     1      47.173   3.068   5.885  0.00  0.00    +0.000 A 
ATOM     17  N   UNL     1      46.267   3.656   6.697  0.00  0.00    +0.000 NA
ENDBRANCH   9  12
ENDBRANCH   7  10
ENDBRANCH   1   7
BRANCH   4  18
ATOM     18  C   UNL     1      45.068   7.462  12.447  0.00  0.00    +0.000 C 
BRANCH  18  19
ATOM     19  N   UNL     1      46.417   7.944  12.242  0.00  0.00    +0.000 N 
ATOM     20  C   UNL     1      46.710   9.280  12.140  0.00  0.00    +0.000 C 
ATOM     21  O   UNL     1      45.864  10.158  12.287  0.00  0.00    +0.000 OA
ATOM     22  H   UNL     1      47.059   7.294  11.797  0.00  0.00    +0.000 HD
BRANCH  20  23
ATOM     23  C   UNL     1      48.125   9.612  11.932  0.00  0.00    +0.000 A 
ATOM     24  C   UNL     1      48.469  10.621  11.046  0.00  0.00    +0.000 A 
ATOM     25  S   UNL     1      50.145  10.921  10.967  0.00  0.00    +0.000 S 
ATOM     26  C   UNL     1      50.476   9.674  12.079  0.00  0.00    +0.000 A 
ATOM     27  N   UNL     1      51.751   9.381  12.444  0.00  0.00    +0.000 NA
ATOM     28  C   UNL     1      51.859   8.398  13.271  0.00  0.00    +0.000 A 
ATOM     29  N   UNL     1      50.803   7.678  13.770  0.00  0.00    +0.000 N 
ATOM     30  C   UNL     1      49.495   7.954  13.447  0.00  0.00    +0.000 A 
ATOM     31  O   UNL     1      48.567   7.322  13.944  0.00  0.00    +0.000 OA
ATOM     32  C   UNL     1      49.321   9.049  12.514  0.00  0.00    +0.000 A 
ATOM     33  H   UNL     1      50.951   6.922  14.420  0.00  0.00    +0.000 HD
ENDBRANCH  20  23
ENDBRANCH  18  19
ENDBRANCH   4  18
TORSDOF 6
ENDMDL
MODEL 8
REMARK VINA RESULT:    -7.649      2.096      2.716
REMARK INTER + INTRA:         -11.270
REMARK INTER:                 -10.308
REMARK INTRA:                  -0.962
REMARK UNBOUND:                -0.938
REMARK  Name = 
REMARK  6 active torsions:
REMARK  status: ('A' for Active; 'I' for Inactive)
REMARK    1  A    between atoms: C_2  and  C_25
REMARK    2  A    between atoms: N_3  and  C_4
REMARK    3  A    between atoms: C_4  and  C_5
REMARK    4  A    between atoms: C_8  and  C_9
REMARK    5  A    between atoms: C_9  and  N_10
REMARK    6  A    between atoms: C_11  and  C_13
REMARK                            x       y       z     vdW  Elec       q    Type
REMARK                         _______ _______ _______ _____ _____    ______ ____
ROOT
ATOM      1  C   UNL     1      43.949   3.432  12.201  0.00  0.00    +0.000 C 
ATOM      2  C   UNL     1      45.466   3.565  12.362  0.00  0.00    +0.000 C 
ATOM      3  C   UNL     1      45.945   5.002  12.177  0.00  0.00    +0.000 C 
ATOM      4  C   UNL     1      45.251   5.983  13.135  0.00  0.00    +0.000 C 
ATOM      5  C   UNL     1      43.722   5.811  13.137  0.00  0.00    +0.000 C 
ATOM      6  C   UNL     1      43.262   4.355  13.222  0.00  0.00    +0.000 C 
ENDROOT
BRANCH   1   7
ATOM      7  C   UNL     1      43.464   3.697  10.761  0.00  0.00    +0.000 C 
BRANCH   7  10
ATOM      8  O   UNL     1      43.915   1.285   9.226  0.00  0.00    +0.000 OA
ATOM      9  C   UNL     1      44.637   2.265   9.081  0.00  0.00    +0.000 C 
ATOM     10  N   UNL     1      44.500   3.449   9.778  0.00  0.00    +0.000 N 
ATOM     11  H   UNL     1      45.158   4.185   9.533  0.00  0.00    +0.000 HD
BRANCH   9  12
ATOM     12  C   UNL     1      45.764   2.254   8.093  0.00  0.00    +0.000 A 
ATOM     13  C   UNL     1      45.965   3.352   7.264  0.00  0.00    +0.000 A 
ATOM     14  C   UNL     1      46.998   3.289   6.332  0.00  0.00    +0.000 A 
ATOM     15  C   UNL     1      47.782   2.142   6.262  0.00  0.00    +0.000 A 
ATOM     16  C   UNL     1      47.515   1.101   7.139  0.00  0.00    +0.000 A 
ATOM     17  N   UNL     1      46.529   1.126   8.063  0.00  0.00    +0.000 NA
ENDBRANCH   9  12
ENDBRANCH   7  10
ENDBRANCH   1   7
BRANCH   4  18
ATOM     18  C   UNL     1      45.594   7.446  12.794  0.00  0.00    +0.000 C 
BRANCH  18  19
ATOM     19  N   UNL     1      46.762   7.915  13.506  0.00  0.00    +0.000 N 
ATOM     20  C   UNL     1      47.983   8.063  12.896  0.00  0.00    +0.000 C 
ATOM     21  O   UNL     1      48.149   7.877  11.694  0.00  0.00    +0.000 OA
ATOM     22  H   UNL     1      46.763   7.763  14.511  0.00  0.00    +0.000 HD
BRANCH  20  23
ATOM     23  C   UNL     1      49.072   8.547  13.752  0.00  0.00    +0.000 A 
ATOM     24  C   UNL     1      49.692   9.751  13.456  0.00  0.00    +0.000 A 
ATOM     25  S   UNL     1      50.892  10.199  14.581  0.00  0.00    +0.000 S 
ATOM     26  C   UNL     1      50.661   8.769  15.478  0.00  0.00    +0.000 A 
ATOM     27  N   UNL     1      51.404   8.510  16.585  0.00  0.00    +0.000 NA
ATOM     28  C   UNL     1      51.144   7.380  17.151  0.00  0.00    +0.000 A 
ATOM     29  N   UNL     1      50.204   6.484  16.710  0.00  0.00    +0.000 N 
ATOM     30  C   UNL     1      49.413   6.715  15.609  0.00  0.00    +0.000 A 
ATOM     31  O   UNL     1      48.548   5.915  15.263  0.00  0.00    +0.000 OA
ATOM     32  C   UNL     1      49.672   7.971  14.933  0.00  0.00    +0.000 A 
ATOM     33  H   UNL     1      50.043   5.618  17.200  0.00  0.00    +0.000 HD
ENDBRANCH  20  23
ENDBRANCH  18  19
ENDBRANCH   4  18
TORSDOF 6
ENDMDL
MODEL 9
REMARK VINA RESULT:    -7.418      4.272      8.996
REMARK INTER + INTRA:         -10.958
REMARK INTER:                 -10.002
REMARK INTRA:                  -0.956
REMARK UNBOUND:                -0.938
REMARK  Name = 
REMARK  6 active torsions:
REMARK  status: ('A' for Active; 'I' for Inactive)
REMARK    1  A    between atoms: C_2  and  C_25
REMARK    2  A    between atoms: N_3  and  C_4
REMARK    3  A    between atoms: C_4  and  C_5
REMARK    4  A    between atoms: C_8  and  C_9
REMARK    5  A    between atoms: C_9  and  N_10
REMARK    6  A    between atoms: C_11  and  C_13
REMARK                            x       y       z     vdW  Elec       q    Type
REMARK                         _______ _______ _______ _____ _____    ______ ____
ROOT
ATOM      1  C   UNL     1      49.424   2.871  18.102  0.00  0.00    +0.000 C 
ATOM      2  C   UNL     1      50.047   4.201  18.538  0.00  0.00    +0.000 C 
ATOM      3  C   UNL     1      50.050   5.235  17.416  0.00  0.00    +0.000 C 
ATOM      4  C   UNL     1      48.645   5.499  16.853  0.00  0.00    +0.000 C 
ATOM      5  C   UNL     1      47.896   4.196  16.523  0.00  0.00    +0.000 C 
ATOM      6  C   UNL     1      47.989   3.133  17.618  0.00  0.00    +0.000 C 
ENDROOT
BRANCH   1   7
ATOM      7  C   UNL     1      50.265   2.123  17.046  0.00  0.00    +0.000 C 
BRANCH   7  10
ATOM      8  O   UNL     1      52.992   2.979  17.499  0.00  0.00    +0.000 OA
ATOM      9  C   UNL     1      52.623   1.858  17.830  0.00  0.00    +0.000 C 
ATOM     10  N   UNL     1      51.348   1.365  17.642  0.00  0.00    +0.000 N 
ATOM     11  H   UNL     1      51.181   0.425  17.992  0.00  0.00    +0.000 HD
BRANCH   9  12
ATOM     12  C   UNL     1      53.566   0.902  18.497  0.00  0.00    +0.000 A 
ATOM     13  C   UNL     1      54.731   1.379  19.086  0.00  0.00    +0.000 A 
ATOM     14  C   UNL     1      55.600   0.457  19.663  0.00  0.00    +0.000 A 
ATOM     15  C   UNL     1      55.277  -0.897  19.626  0.00  0.00    +0.000 A 
ATOM     16  C   UNL     1      54.086  -1.279  19.027  0.00  0.00    +0.000 A 
ATOM     17  N   UNL     1      53.212  -0.414  18.466  0.00  0.00    +0.000 NA
ENDBRANCH   9  12
ENDBRANCH   7  10
ENDBRANCH   1   7
BRANCH   4  18
ATOM     18  C   UNL     1      48.697   6.384  15.592  0.00  0.00    +0.000 C 
BRANCH  18  19
ATOM     19  N   UNL     1      47.519   6.230  14.767  0.00  0.00    +0.000 N 
ATOM     20  C   UNL     1      47.581   6.219  13.396  0.00  0.00    +0.000 C 
ATOM     21  O   UNL     1      48.642   6.264  12.780  0.00  0.00    +0.000 OA
ATOM     22  H   UNL     1      46.639   6.517  15.187  0.00  0.00    +0.000 HD
BRANCH  20  23
ATOM     23  C   UNL     1      46.300   6.057  12.697  0.00  0.00    +0.000 A 
ATOM     24  C   UNL     1      45.673   7.164  12.149  0.00  0.00    +0.000 A 
ATOM     25  S   UNL     1      44.230   6.796  11.321  0.00  0.00    +0.000 S 
ATOM     26  C   UNL     1      44.364   5.143  11.711  0.00  0.00    +0.000 A 
ATOM     27  N   UNL     1      43.421   4.251  11.314  0.00  0.00    +0.000 NA
ATOM     28  C   UNL     1      43.633   3.039  11.701  0.00  0.00    +0.000 A 
ATOM     29  N   UNL     1      44.709   2.636  12.451  0.00  0.00    +0.000 N 
ATOM     30  C   UNL     1      45.700   3.500  12.856  0.00  0.00    +0.000 A 
ATOM     31  O   UNL     1      46.674   3.103  13.489  0.00  0.00    +0.000 OA
ATOM     32  C   UNL     1      45.503   4.877  12.450  0.00  0.00    +0.000 A 
ATOM     33  H   UNL     1      44.823   1.671  12.719  0.00  0.00    +0.000 HD
ENDBRANCH  20  23
ENDBRANCH  18  19
ENDBRANCH   4  18
TORSDOF 6
ENDMDL
