MODEL 1
REMARK VINA RESULT:    -9.413      0.000      0.000
REMARK INTER + INTRA:         -13.973
REMARK INTER:                 -12.990
REMARK INTRA:                  -0.983
REMARK UNBOUND:                -0.983
REMARK  Name = 
REMARK  8 active torsions:
REMARK  status: ('A' for Active; 'I' for Inactive)
REMARK    1  A    between atoms: C_1  and  C_2
REMARK    2  A    between atoms: C_2  and  O_3
REMARK    3  A    between atoms: C_5  and  O_6
REMARK    4  A    between atoms: O_6  and  C_7
REMARK    5  A    between atoms: C_12  and  C_13
REMARK    6  A    between atoms: C_13  and  C_16
REMARK    7  A    between atoms: C_16  and  N_17
REMARK    8  A    between atoms: C_21  and  C_22
REMARK                            x       y       z     vdW  Elec       q    Type
REMARK                         _______ _______ _______ _____ _____    ______ ____
ROOT
ATOM      1  C   UNL     1      43.185   5.221  12.294  0.00  0.00    +0.000 C 
ATOM      2  F   UNL     1      42.706   4.472  13.334  0.00  0.00    +0.000 F 
ATOM      3  F   UNL     1      42.289   6.254  12.165  0.00  0.00    +0.000 F 
ENDROOT
BRANCH   1   9
ATOM      4  C   UNL     1      46.821   5.561  13.558  0.00  0.00    +0.000 A 
ATOM      5  C   UNL     1      47.107   6.870  13.190  0.00  0.00    +0.000 A 
ATOM      6  C   UNL     1      46.123   7.622  12.559  0.00  0.00    +0.000 A 
ATOM      7  F   UNL     1      46.381   8.892  12.224  0.00  0.00    +0.000 F 
ATOM      8  C   UNL     1      44.870   7.083  12.279  0.00  0.00    +0.000 A 
ATOM      9  C   UNL     1      44.574   5.752  12.619  0.00  0.00    +0.000 A 
ATOM     10  C   UNL     1      45.574   5.000  13.258  0.00  0.00    +0.000 A 
BRANCH   4  11
ATOM     11  O   UNL     1      47.697   4.735  14.221  0.00  0.00    +0.000 OA
BRANCH  11  15
ATOM     12  C   UNL     1      48.732   3.343  18.427  0.00  0.00    +0.000 C 
ATOM     13  C   UNL     1      47.646   3.352  17.363  0.00  0.00    +0.000 C 
ATOM     14  C   UNL     1      48.118   2.905  15.957  0.00  0.00    +0.000 C 
ATOM     15  C   UNL     1      47.197   4.006  15.365  0.00  0.00    +0.000 C 
ATOM     16  C   UNL     1      47.340   4.735  16.726  0.00  0.00    +0.000 C 
BRANCH  13  17
ATOM     17  O   UNL     1      46.481   2.656  17.863  0.00  0.00    +0.000 OA
ATOM     18  H   UNL     1      46.509   2.761  18.830  0.00  0.00    +0.000 HD
ENDBRANCH  13  17
ENDBRANCH  11  15
ENDBRANCH   4  11
ENDBRANCH   1   9
BRANCH   1  19
ATOM     19  C   UNL     1      43.090   4.376  11.001  0.00  0.00    +0.000 C 
BRANCH  19  20
ATOM     20  N   UNL     1      43.892   4.909   9.873  0.00  0.00    +0.000 N 
ATOM     21  C   UNL     1      44.683   3.929   9.252  0.00  0.00    +0.000 A 
ATOM     22  C   UNL     1      45.500   4.259   8.161  0.00  0.00    +0.000 A 
ATOM     23  N   UNL     1      46.295   3.373   7.500  0.00  0.00    +0.000 NA
ATOM     24  C   UNL     1      46.229   2.100   7.976  0.00  0.00    +0.000 A 
ATOM     25  C   UNL     1      45.411   1.750   9.038  0.00  0.00    +0.000 A 
ATOM     26  N   UNL     1      44.628   2.650   9.686  0.00  0.00    +0.000 NA
ATOM     27  H   UNL     1      44.466   5.700  10.163  0.00  0.00    +0.000 HD
BRANCH  24  28
ATOM     28  C   UNL     1      47.080   1.059   7.341  0.00  0.00    +0.000 C 
ATOM     29  N   UNL     1      46.774  -0.238   7.647  0.00  0.00    +0.000 N 
ATOM     30  O   UNL     1      47.997   1.341   6.581  0.00  0.00    +0.000 OA
ATOM     31  H   UNL     1      46.010  -0.447   8.280  0.00  0.00    +0.000 HD
ATOM     32  H   UNL     1      47.315  -0.984   7.235  0.00  0.00    +0.000 HD
ENDBRANCH  24  28
ENDBRANCH  19  20
ENDBRANCH   1  19
TORSDOF 7
ENDMDL
MODEL 2
REMARK VINA RESULT:    -9.178      1.240      1.604
REMARK INTER + INTRA:         -13.648
REMARK INTER:                 -12.585
REMARK INTRA:                  -1.063
REMARK UNBOUND:                -0.983
REMARK  Name = 
REMARK  8 active torsions:
REMARK  status: ('A' for Active; 'I' for Inactive)
REMARK    1  A    between atoms: C_1  and  C_2
REMARK    2  A    between atoms: C_2  and  O_3
REMARK    3  A    between atoms: C_5  and  O_6
REMARK    4  A    between atoms: O_6  and  C_7
REMARK    5  A    between atoms: C_12  and  C_13
REMARK    6  A    between atoms: C_13  and  C_16
REMARK    7  A    between atoms: C_16  and  N_17
REMARK    8  A    between atoms: C_21  and  C_22
REMARK                            x       y       z     vdW  Elec       q    Type
REMARK                         _______ _______ _______ _____ _____    ______ ____
ROOT
ATOM      1  C   UNL     1      43.659   5.435  11.870  0.00  0.00    +0.000 C 
ATOM      2  F   UNL     1      42.953   4.715  12.796  0.00  0.00    +0.000 F 
ATOM      3  F   UNL     1      43.053   6.666  11.847  0.00  0.00    +0.000 F 
ENDROOT
BRANCH   1   9
ATOM      4  C   UNL     1      47.060   4.943  13.640  0.00  0.00    +0.000 A 
ATOM      5  C   UNL     1      47.826   5.918  13.011  0.00  0.00    +0.000 A 
ATOM      6  C   UNL     1      47.233   6.723  12.046  0.00  0.00    +0.000 A 
ATOM      7  F   UNL     1      47.957   7.681  11.455  0.00  0.00    +0.000 F 
ATOM      8  C   UNL     1      45.897   6.559  11.691  0.00  0.00    +0.000 A 
ATOM      9  C   UNL     1      45.115   5.560  12.295  0.00  0.00    +0.000 A 
ATOM     10  C   UNL     1      45.723   4.752  13.271  0.00  0.00    +0.000 A 
BRANCH   4  11
ATOM     11  O   UNL     1      47.523   4.116  14.634  0.00  0.00    +0.000 OA
BRANCH  11  15
ATOM     12  C   UNL     1      48.906   4.064  18.968  0.00  0.00    +0.000 C 
ATOM     13  C   UNL     1      47.749   4.416  18.047  0.00  0.00    +0.000 C 
ATOM     14  C   UNL     1      47.355   3.296  17.051  0.00  0.00    +0.000 C 
ATOM     15  C   UNL     1      47.119   4.406  15.992  0.00  0.00    +0.000 C 
ATOM     16  C   UNL     1      48.114   5.273  16.806  0.00  0.00    +0.000 C 
BRANCH  13  17
ATOM     17  O   UNL     1      46.655   4.942  18.833  0.00  0.00    +0.000 OA
ATOM     18  H   UNL     1      46.402   5.777  18.403  0.00  0.00    +0.000 HD
ENDBRANCH  13  17
ENDBRANCH  11  15
ENDBRANCH   4  11
ENDBRANCH   1   9
BRANCH   1  19
ATOM     19  C   UNL     1      43.432   4.792  10.480  0.00  0.00    +0.000 C 
BRANCH  19  20
ATOM     20  N   UNL     1      43.844   3.369  10.401  0.00  0.00    +0.000 N 
ATOM     21  C   UNL     1      44.766   3.122   9.370  0.00  0.00    +0.000 A 
ATOM     22  C   UNL     1      45.268   1.831   9.158  0.00  0.00    +0.000 A 
ATOM     23  N   UNL     1      46.164   1.505   8.185  0.00  0.00    +0.000 NA
ATOM     24  C   UNL     1      46.563   2.555   7.418  0.00  0.00    +0.000 A 
ATOM     25  C   UNL     1      46.095   3.842   7.627  0.00  0.00    +0.000 A 
ATOM     26  N   UNL     1      45.200   4.146   8.600  0.00  0.00    +0.000 NA
ATOM     27  H   UNL     1      43.040   2.750  10.316  0.00  0.00    +0.000 HD
BRANCH  24  28
ATOM     28  C   UNL     1      47.520   2.301   6.309  0.00  0.00    +0.000 C 
ATOM     29  N   UNL     1      47.443   3.151   5.241  0.00  0.00    +0.000 N 
ATOM     30  O   UNL     1      48.337   1.389   6.348  0.00  0.00    +0.000 OA
ATOM     31  H   UNL     1      46.758   3.899   5.231  0.00  0.00    +0.000 HD
ATOM     32  H   UNL     1      48.077   3.028   4.464  0.00  0.00    +0.000 HD
ENDBRANCH  24  28
ENDBRANCH  19  20
ENDBRANCH   1  19
TORSDOF 7
ENDMDL
MODEL 3
REMARK VINA RESULT:    -8.221      2.322      3.953
REMARK INTER + INTRA:         -12.328
REMARK INTER:                 -11.316
REMARK INTRA:                  -1.011
REMARK UNBOUND:                -0.983
REMARK  Name = 
REMARK  8 active torsions:
REMARK  status: ('A' for Active; 'I' for Inactive)
REMARK    1  A    between atoms: C_1  and  C_2
REMARK    2  A    between atoms: C_2  and  O_3
REMARK    3  A    between atoms: C_5  and  O_6
REMARK    4  A    between atoms: O_6  and  C_7
REMARK    5  A    between atoms: C_12  and  C_13
REMARK    6  A    between atoms: C_13  and  C_16
REMARK    7  A    between atoms: C_16  and  N_17
REMARK    8  A    between atoms: C_21  and  C_22
REMARK                            x       y       z     vdW  Elec       q    Type
REMARK                         _______ _______ _______ _____ _____    ______ ____
ROOT
ATOM      1  C   UNL     1      43.437   5.536  12.064  0.00  0.00    +0.000 C 
ATOM      2  F   UNL     1      42.566   5.032  12.993  0.00  0.00    +0.000 F 
ATOM      3  F   UNL     1      42.963   6.794  11.787  0.00  0.00    +0.000 F 
ENDROOT
BRANCH   1   9
ATOM      4  C   UNL     1      46.985   6.711  13.050  0.00  0.00    +0.000 A 
ATOM      5  C   UNL     1      47.452   5.594  13.732  0.00  0.00    +0.000 A 
ATOM      6  C   UNL     1      46.627   4.482  13.847  0.00  0.00    +0.000 A 
ATOM      7  F   UNL     1      47.079   3.392  14.480  0.00  0.00    +0.000 F 
ATOM      8  C   UNL     1      45.343   4.475  13.307  0.00  0.00    +0.000 A 
ATOM      9  C   UNL     1      44.844   5.606  12.640  0.00  0.00    +0.000 A 
ATOM     10  C   UNL     1      45.686   6.726  12.526  0.00  0.00    +0.000 A 
BRANCH   4  11
ATOM     11  O   UNL     1      47.720   7.852  12.836  0.00  0.00    +0.000 OA
BRANCH  11  15
ATOM     12  C   UNL     1      51.552  10.016  11.684  0.00  0.00    +0.000 C 
ATOM     13  C   UNL     1      50.990   8.723  12.251  0.00  0.00    +0.000 C 
ATOM     14  C   UNL     1      49.836   8.105  11.422  0.00  0.00    +0.000 C 
ATOM     15  C   UNL     1      49.158   7.721  12.764  0.00  0.00    +0.000 C 
ATOM     16  C   UNL     1      49.960   8.885  13.401  0.00  0.00    +0.000 C 
BRANCH  13  17
ATOM     17  O   UNL     1      52.077   7.817  12.548  0.00  0.00    +0.000 OA
ATOM     18  H   UNL     1      52.363   7.462  11.689  0.00  0.00    +0.000 HD
ENDBRANCH  13  17
ENDBRANCH  11  15
ENDBRANCH   4  11
ENDBRANCH   1   9
BRANCH   1  19
ATOM     19  C   UNL     1      43.298   4.704  10.766  0.00  0.00    +0.000 C 
BRANCH  19  20
ATOM     20  N   UNL     1      44.184   5.154   9.666  0.00  0.00    +0.000 N 
ATOM     21  C   UNL     1      44.904   4.102   9.077  0.00  0.00    +0.000 A 
ATOM     22  C   UNL     1      45.785   4.349   8.014  0.00  0.00    +0.000 A 
ATOM     23  N   UNL     1      46.519   3.389   7.386  0.00  0.00    +0.000 NA
ATOM     24  C   UNL     1      46.321   2.131   7.865  0.00  0.00    +0.000 A 
ATOM     25  C   UNL     1      45.438   1.864   8.898  0.00  0.00    +0.000 A 
ATOM     26  N   UNL     1      44.718   2.836   9.514  0.00  0.00    +0.000 NA
ATOM     27  H   UNL     1      44.817   5.892   9.972  0.00  0.00    +0.000 HD
BRANCH  24  28
ATOM     28  C   UNL     1      47.096   1.013   7.264  0.00  0.00    +0.000 C 
ATOM     29  N   UNL     1      46.793  -0.241   7.718  0.00  0.00    +0.000 N 
ATOM     30  O   UNL     1      47.951   1.198   6.407  0.00  0.00    +0.000 OA
ATOM     31  H   UNL     1      46.082  -0.369   8.429  0.00  0.00    +0.000 HD
ATOM     32  H   UNL     1      47.284  -1.037   7.336  0.00  0.00    +0.000 HD
ENDBRANCH  24  28
ENDBRANCH  19  20
ENDBRANCH   1  19
TORSDOF 7
ENDMDL
MODEL 4
REMARK VINA RESULT:    -8.048      2.660      4.420
REMARK INTER + INTRA:         -12.090
REMARK INTER:                 -11.048
REMARK INTRA:                  -1.042
REMARK UNBOUND:                -0.983
REMARK  Name = 
REMARK  8 active torsions:
REMARK  status: ('A' for Active; 'I' for Inactive)
REMARK    1  A    between atoms: C_1  and  C_2
REMARK    2  A    between atoms: C_2  and  O_3
REMARK    3  A    between atoms: C_5  and  O_6
REMARK    4  A    between atoms: O_6  and  C_7
REMARK    5  A    between atoms: C_12  and  C_13
REMARK    6  A    between atoms: C_13  and  C_16
REMARK    7  A    between atoms: C_16  and  N_17
REMARK    8  A    between atoms: C_21  and  C_22
REMARK                            x       y       z     vdW  Elec       q    Type
REMARK                         _______ _______ _______ _____ _____    ______ ____
ROOT
ATOM      1  C   UNL     1      43.584   5.217  12.055  0.00  0.00    +0.000 C 
ATOM      2  F   UNL     1      42.990   4.348  12.929  0.00  0.00    +0.000 F 
ATOM      3  F   UNL     1      42.842   6.367  12.146  0.00  0.00    +0.000 F 
ENDROOT
BRANCH   1   9
ATOM      4  C   UNL     1      47.232   6.489  12.173  0.00  0.00    +0.000 A 
ATOM      5  C   UNL     1      47.698   5.844  13.312  0.00  0.00    +0.000 A 
ATOM      6  C   UNL     1      46.840   5.002  14.008  0.00  0.00    +0.000 A 
ATOM      7  F   UNL     1      47.290   4.357  15.092  0.00  0.00    +0.000 F 
ATOM      8  C   UNL     1      45.525   4.808  13.595  0.00  0.00    +0.000 A 
ATOM      9  C   UNL     1      45.028   5.475  12.463  0.00  0.00    +0.000 A 
ATOM     10  C   UNL     1      45.904   6.323  11.763  0.00  0.00    +0.000 A 
BRANCH   4  11
ATOM     11  O   UNL     1      47.996   7.312  11.381  0.00  0.00    +0.000 OA
BRANCH  11  15
ATOM     12  C   UNL     1      51.422  10.216  10.656  0.00  0.00    +0.000 C 
ATOM     13  C   UNL     1      50.553   9.577  11.727  0.00  0.00    +0.000 C 
ATOM     14  C   UNL     1      50.436   8.035  11.628  0.00  0.00    +0.000 C 
ATOM     15  C   UNL     1      48.946   8.183  12.036  0.00  0.00    +0.000 C 
ATOM     16  C   UNL     1      49.023   9.623  11.466  0.00  0.00    +0.000 C 
BRANCH  13  17
ATOM     17  O   UNL     1      50.950  10.075  13.025  0.00  0.00    +0.000 OA
ATOM     18  H   UNL     1      51.885   9.824  13.126  0.00  0.00    +0.000 HD
ENDBRANCH  13  17
ENDBRANCH  11  15
ENDBRANCH   4  11
ENDBRANCH   1   9
BRANCH   1  19
ATOM     19  C   UNL     1      43.395   4.668  10.619  0.00  0.00    +0.000 C 
BRANCH  19  20
ATOM     20  N   UNL     1      43.799   3.249  10.460  0.00  0.00    +0.000 N 
ATOM     21  C   UNL     1      44.721   3.056   9.419  0.00  0.00    +0.000 A 
ATOM     22  C   UNL     1      45.217   1.776   9.134  0.00  0.00    +0.000 A 
ATOM     23  N   UNL     1      46.112   1.501   8.146  0.00  0.00    +0.000 NA
ATOM     24  C   UNL     1      46.519   2.591   7.441  0.00  0.00    +0.000 A 
ATOM     25  C   UNL     1      46.059   3.867   7.722  0.00  0.00    +0.000 A 
ATOM     26  N   UNL     1      45.162   4.120   8.709  0.00  0.00    +0.000 NA
ATOM     27  H   UNL     1      42.991   2.641  10.338  0.00  0.00    +0.000 HD
BRANCH  24  28
ATOM     28  C   UNL     1      47.477   2.395   6.321  0.00  0.00    +0.000 C 
ATOM     29  N   UNL     1      47.390   3.289   5.290  0.00  0.00    +0.000 N 
ATOM     30  O   UNL     1      48.304   1.491   6.320  0.00  0.00    +0.000 OA
ATOM     31  H   UNL     1      46.696   4.029   5.313  0.00  0.00    +0.000 HD
ATOM     32  H   UNL     1      48.024   3.206   4.508  0.00  0.00    +0.000 HD
ENDBRANCH  24  28
ENDBRANCH  19  20
ENDBRANCH   1  19
TORSDOF 7
ENDMDL
MODEL 5
REMARK VINA RESULT:    -8.024      3.003      5.299
REMARK INTER + INTRA:         -12.055
REMARK INTER:                 -11.224
REMARK INTRA:                  -0.832
REMARK UNBOUND:                -0.983
REMARK  Name = 
REMARK  8 active torsions:
REMARK  status: ('A' for Active; 'I' for Inactive)
REMARK    1  A    between atoms: C_1  and  C_2
REMARK    2  A    between atoms: C_2  and  O_3
REMARK    3  A    between atoms: C_5  and  O_6
REMARK    4  A    between atoms: O_6  and  C_7
REMARK    5  A    between atoms: C_12  and  C_13
REMARK    6  A    between atoms: C_13  and  C_16
REMARK    7  A    between atoms: C_16  and  N_17
REMARK    8  A    between atoms: C_21  and  C_22
REMARK                            x       y       z     vdW  Elec       q    Type
REMARK                         _______ _______ _______ _____ _____    ______ ____
ROOT
ATOM      1  C   UNL     1      44.465   4.326  12.508  0.00  0.00    +0.000 C 
ATOM      2  F   UNL     1      45.213   3.190  12.650  0.00  0.00    +0.000 F 
ATOM      3  F   UNL     1      43.532   4.259  13.512  0.00  0.00    +0.000 F 
ENDROOT
BRANCH   1   9
ATOM      4  C   UNL     1      45.715   7.973  12.783  0.00  0.00    +0.000 A 
ATOM      5  C   UNL     1      47.080   7.772  12.950  0.00  0.00    +0.000 A 
ATOM      6  C   UNL     1      47.573   6.472  12.954  0.00  0.00    +0.000 A 
ATOM      7  F   UNL     1      48.890   6.270  13.088  0.00  0.00    +0.000 F 
ATOM      8  C   UNL     1      46.726   5.377  12.810  0.00  0.00    +0.000 A 
ATOM      9  C   UNL     1      45.340   5.562  12.669  0.00  0.00    +0.000 A 
ATOM     10  C   UNL     1      44.850   6.879  12.664  0.00  0.00    +0.000 A 
BRANCH   4  11
ATOM     11  O   UNL     1      45.117   9.209  12.722  0.00  0.00    +0.000 OA
BRANCH  11  15
ATOM     12  C   UNL     1      42.095  11.512  10.219  0.00  0.00    +0.000 C 
ATOM     13  C   UNL     1      43.478  10.881  10.210  0.00  0.00    +0.000 C 
ATOM     14  C   UNL     1      43.524   9.423  10.733  0.00  0.00    +0.000 C 
ATOM     15  C   UNL     1      44.874   9.774  11.414  0.00  0.00    +0.000 C 
ATOM     16  C   UNL     1      44.392  11.248  11.410  0.00  0.00    +0.000 C 
BRANCH  13  17
ATOM     17  O   UNL     1      44.087  11.082   8.914  0.00  0.00    +0.000 OA
ATOM     18  H   UNL     1      43.810  10.322   8.374  0.00  0.00    +0.000 HD
ENDBRANCH  13  17
ENDBRANCH  11  15
ENDBRANCH   4  11
ENDBRANCH   1   9
BRANCH   1  19
ATOM     19  C   UNL     1      43.695   4.236  11.167  0.00  0.00    +0.000 C 
BRANCH  19  20
ATOM     20  N   UNL     1      44.348   4.962  10.050  0.00  0.00    +0.000 N 
ATOM     21  C   UNL     1      45.093   4.119   9.210  0.00  0.00    +0.000 A 
ATOM     22  C   UNL     1      45.770   4.638   8.097  0.00  0.00    +0.000 A 
ATOM     23  N   UNL     1      46.512   3.893   7.233  0.00  0.00    +0.000 NA
ATOM     24  C   UNL     1      46.540   2.563   7.522  0.00  0.00    +0.000 A 
ATOM     25  C   UNL     1      45.859   2.028   8.603  0.00  0.00    +0.000 A 
ATOM     26  N   UNL     1      45.128   2.789   9.456  0.00  0.00    +0.000 NA
ATOM     27  H   UNL     1      44.926   5.730  10.388  0.00  0.00    +0.000 HD
BRANCH  24  28
ATOM     28  C   UNL     1      47.345   1.665   6.653  0.00  0.00    +0.000 C 
ATOM     29  N   UNL     1      48.390   2.246   5.990  0.00  0.00    +0.000 N 
ATOM     30  O   UNL     1      47.096   0.471   6.540  0.00  0.00    +0.000 OA
ATOM     31  H   UNL     1      48.576   3.237   6.099  0.00  0.00    +0.000 HD
ATOM     32  H   UNL     1      48.975   1.679   5.393  0.00  0.00    +0.000 HD
ENDBRANCH  24  28
ENDBRANCH  19  20
ENDBRANCH   1  19
TORSDOF 7
ENDMDL
MODEL 6
REMARK VINA RESULT:    -7.797      3.367      7.757
REMARK INTER + INTRA:         -11.743
REMARK INTER:                 -10.874
REMARK INTRA:                  -0.869
REMARK UNBOUND:                -0.983
REMARK  Name = 
REMARK  8 active torsions:
REMARK  status: ('A' for Active; 'I' for Inactive)
REMARK    1  A    between atoms: C_1  and  C_2
REMARK    2  A    between atoms: C_2  and  O_3
REMARK    3  A    between atoms: C_5  and  O_6
REMARK    4  A    between atoms: O_6  and  C_7
REMARK    5  A    between atoms: C_12  and  C_13
REMARK    6  A    between atoms: C_13  and  C_16
REMARK    7  A    between atoms: C_16  and  N_17
REMARK    8  A    between atoms: C_21  and  C_22
REMARK                            x       y       z     vdW  Elec       q    Type
REMARK                         _______ _______ _______ _____ _____    ______ ____
ROOT
ATOM      1  C   UNL     1      46.505   7.365  12.334  0.00  0.00    +0.000 C 
ATOM      2  F   UNL     1      46.594   8.372  11.411  0.00  0.00    +0.000 F 
ATOM      3  F   UNL     1      46.105   7.985  13.491  0.00  0.00    +0.000 F 
ENDROOT
BRANCH   1   9
ATOM      4  C   UNL     1      44.420   4.864  10.253  0.00  0.00    +0.000 A 
ATOM      5  C   UNL     1      43.495   4.440  11.200  0.00  0.00    +0.000 A 
ATOM      6  C   UNL     1      43.549   4.977  12.480  0.00  0.00    +0.000 A 
ATOM      7  F   UNL     1      42.646   4.593  13.391  0.00  0.00    +0.000 F 
ATOM      8  C   UNL     1      44.517   5.915  12.831  0.00  0.00    +0.000 A 
ATOM      9  C   UNL     1      45.477   6.332  11.894  0.00  0.00    +0.000 A 
ATOM     10  C   UNL     1      45.414   5.786  10.601  0.00  0.00    +0.000 A 
BRANCH   4  11
ATOM     11  O   UNL     1      44.442   4.436   8.947  0.00  0.00    +0.000 OA
BRANCH  11  15
ATOM     12  C   UNL     1      46.800   2.948   5.353  0.00  0.00    +0.000 C 
ATOM     13  C   UNL     1      46.677   2.867   6.866  0.00  0.00    +0.000 C 
ATOM     14  C   UNL     1      45.244   2.581   7.381  0.00  0.00    +0.000 C 
ATOM     15  C   UNL     1      45.528   3.574   8.540  0.00  0.00    +0.000 C 
ATOM     16  C   UNL     1      46.577   4.229   7.605  0.00  0.00    +0.000 C 
BRANCH  13  17
ATOM     17  O   UNL     1      47.697   1.983   7.383  0.00  0.00    +0.000 OA
ATOM     18  H   UNL     1      47.554   1.953   8.345  0.00  0.00    +0.000 HD
ENDBRANCH  13  17
ENDBRANCH  11  15
ENDBRANCH   4  11
ENDBRANCH   1   9
BRANCH   1  19
ATOM     19  C   UNL     1      47.928   6.810  12.586  0.00  0.00    +0.000 C 
BRANCH  19  20
ATOM     20  N   UNL     1      48.480   7.155  13.919  0.00  0.00    +0.000 N 
ATOM     21  C   UNL     1      48.233   6.168  14.886  0.00  0.00    +0.000 A 
ATOM     22  C   UNL     1      48.692   6.327  16.202  0.00  0.00    +0.000 A 
ATOM     23  N   UNL     1      48.498   5.421  17.199  0.00  0.00    +0.000 NA
ATOM     24  C   UNL     1      47.819   4.305  16.816  0.00  0.00    +0.000 A 
ATOM     25  C   UNL     1      47.377   4.119  15.517  0.00  0.00    +0.000 A 
ATOM     26  N   UNL     1      47.578   5.037  14.537  0.00  0.00    +0.000 NA
ATOM     27  H   UNL     1      48.145   8.062  14.241  0.00  0.00    +0.000 HD
BRANCH  24  28
ATOM     28  C   UNL     1      47.531   3.264  17.838  0.00  0.00    +0.000 C 
ATOM     29  N   UNL     1      48.379   3.222  18.910  0.00  0.00    +0.000 N 
ATOM     30  O   UNL     1      46.586   2.492  17.734  0.00  0.00    +0.000 OA
ATOM     31  H   UNL     1      49.155   3.872  18.973  0.00  0.00    +0.000 HD
ATOM     32  H   UNL     1      48.222   2.540  19.638  0.00  0.00    +0.000 HD
ENDBRANCH  24  28
ENDBRANCH  19  20
ENDBRANCH   1  19
TORSDOF 7
ENDMDL
MODEL 7
REMARK VINA RESULT:    -7.777      2.111      2.618
REMARK INTER + INTRA:         -11.716
REMARK INTER:                 -10.860
REMARK INTRA:                  -0.856
REMARK UNBOUND:                -0.983
REMARK  Name = 
REMARK  8 active torsions:
REMARK  status: ('A' for Active; 'I' for Inactive)
REMARK    1  A    between atoms: C_1  and  C_2
REMARK    2  A    between atoms: C_2  and  O_3
REMARK    3  A    between atoms: C_5  and  O_6
REMARK    4  A    between atoms: O_6  and  C_7
REMARK    5  A    between atoms: C_12  and  C_13
REMARK    6  A    between atoms: C_13  and  C_16
REMARK    7  A    between atoms: C_16  and  N_17
REMARK    8  A    between atoms: C_21  and  C_22
REMARK                            x       y       z     vdW  Elec       q    Type
REMARK                         _______ _______ _______ _____ _____    ______ ____
ROOT
ATOM      1  C   UNL     1      43.807   5.063  12.458  0.00  0.00    +0.000 C 
ATOM      2  F   UNL     1      43.952   3.909  13.178  0.00  0.00    +0.000 F 
ATOM      3  F   UNL     1      42.676   5.652  12.965  0.00  0.00    +0.000 F 
ENDROOT
BRANCH   1   9
ATOM      4  C   UNL     1      47.258   6.465  13.490  0.00  0.00    +0.000 A 
ATOM      5  C   UNL     1      47.183   7.753  12.975  0.00  0.00    +0.000 A 
ATOM      6  C   UNL     1      46.023   8.152  12.323  0.00  0.00    +0.000 A 
ATOM      7  F   UNL     1      45.933   9.400  11.846  0.00  0.00    +0.000 F 
ATOM      8  C   UNL     1      44.947   7.281  12.165  0.00  0.00    +0.000 A 
ATOM      9  C   UNL     1      45.017   5.966  12.654  0.00  0.00    +0.000 A 
ATOM     10  C   UNL     1      46.194   5.572  13.314  0.00  0.00    +0.000 A 
BRANCH   4  11
ATOM     11  O   UNL     1      48.334   5.971  14.188  0.00  0.00    +0.000 OA
BRANCH  11  15
ATOM     12  C   UNL     1      51.991   6.567  16.828  0.00  0.00    +0.000 C 
ATOM     13  C   UNL     1      50.622   7.126  16.473  0.00  0.00    +0.000 C 
ATOM     14  C   UNL     1      49.479   6.079  16.472  0.00  0.00    +0.000 C 
ATOM     15  C   UNL     1      48.901   6.802  15.226  0.00  0.00    +0.000 C 
ATOM     16  C   UNL     1      50.343   7.304  14.956  0.00  0.00    +0.000 C 
BRANCH  13  17
ATOM     17  O   UNL     1      50.365   8.305  17.268  0.00  0.00    +0.000 OA
ATOM     18  H   UNL     1      51.206   8.795  17.288  0.00  0.00    +0.000 HD
ENDBRANCH  13  17
ENDBRANCH  11  15
ENDBRANCH   4  11
ENDBRANCH   1   9
BRANCH   1  19
ATOM     19  C   UNL     1      43.501   4.684  10.988  0.00  0.00    +0.000 C 
BRANCH  19  20
ATOM     20  N   UNL     1      43.749   3.256  10.672  0.00  0.00    +0.000 N 
ATOM     21  C   UNL     1      44.664   3.079   9.622  0.00  0.00    +0.000 A 
ATOM     22  C   UNL     1      45.021   1.791   9.197  0.00  0.00    +0.000 A 
ATOM     23  N   UNL     1      45.900   1.530   8.190  0.00  0.00    +0.000 NA
ATOM     24  C   UNL     1      46.438   2.640   7.615  0.00  0.00    +0.000 A 
ATOM     25  C   UNL     1      46.115   3.920   8.036  0.00  0.00    +0.000 A 
ATOM     26  N   UNL     1      45.234   4.159   9.040  0.00  0.00    +0.000 NA
ATOM     27  H   UNL     1      42.881   2.759  10.477  0.00  0.00    +0.000 HD
BRANCH  24  28
ATOM     28  C   UNL     1      47.390   2.465   6.487  0.00  0.00    +0.000 C 
ATOM     29  N   UNL     1      47.190   3.271   5.400  0.00  0.00    +0.000 N 
ATOM     30  O   UNL     1      48.305   1.653   6.525  0.00  0.00    +0.000 OA
ATOM     31  H   UNL     1      46.424   3.936   5.391  0.00  0.00    +0.000 HD
ATOM     32  H   UNL     1      47.814   3.199   4.610  0.00  0.00    +0.000 HD
ENDBRANCH  24  28
ENDBRANCH  19  20
ENDBRANCH   1  19
TORSDOF 7
ENDMDL
MODEL 8
REMARK VINA RESULT:    -7.665      2.710      3.908
REMARK INTER + INTRA:         -11.561
REMARK INTER:                 -10.915
REMARK INTRA:                  -0.646
REMARK UNBOUND:                -0.983
REMARK  Name = 
REMARK  8 active torsions:
REMARK  status: ('A' for Active; 'I' for Inactive)
REMARK    1  A    between atoms: C_1  and  C_2
REMARK    2  A    between atoms: C_2  and  O_3
REMARK    3  A    between atoms: C_5  and  O_6
REMARK    4  A    between atoms: O_6  and  C_7
REMARK    5  A    between atoms: C_12  and  C_13
REMARK    6  A    between atoms: C_13  and  C_16
REMARK    7  A    between atoms: C_16  and  N_17
REMARK    8  A    between atoms: C_21  and  C_22
REMARK                            x       y       z     vdW  Elec       q    Type
REMARK                         _______ _______ _______ _____ _____    ______ ____
ROOT
ATOM      1  C   UNL     1      43.974   4.830  12.363  0.00  0.00    +0.000 C 
ATOM      2  F   UNL     1      44.620   3.766  12.933  0.00  0.00    +0.000 F 
ATOM      3  F   UNL     1      42.845   5.003  13.125  0.00  0.00    +0.000 F 
ENDROOT
BRANCH   1   9
ATOM      4  C   UNL     1      46.825   7.326  13.120  0.00  0.00    +0.000 A 
ATOM      5  C   UNL     1      46.372   8.455  12.449  0.00  0.00    +0.000 A 
ATOM      6  C   UNL     1      45.154   8.398  11.782  0.00  0.00    +0.000 A 
ATOM      7  F   UNL     1      44.697   9.489  11.154  0.00  0.00    +0.000 F 
ATOM      8  C   UNL     1      44.394   7.231  11.763  0.00  0.00    +0.000 A 
ATOM      9  C   UNL     1      44.851   6.072  12.412  0.00  0.00    +0.000 A 
ATOM     10  C   UNL     1      46.083   6.140  13.086  0.00  0.00    +0.000 A 
BRANCH   4  11
ATOM     11  O   UNL     1      47.991   7.273  13.847  0.00  0.00    +0.000 OA
BRANCH  11  15
ATOM     12  C   UNL     1      50.705   9.670  11.093  0.00  0.00    +0.000 C 
ATOM     13  C   UNL     1      50.553   8.350  11.832  0.00  0.00    +0.000 C 
ATOM     14  C   UNL     1      49.190   7.645  11.619  0.00  0.00    +0.000 C 
ATOM     15  C   UNL     1      49.237   7.237  13.116  0.00  0.00    +0.000 C 
ATOM     16  C   UNL     1      50.165   8.461  13.331  0.00  0.00    +0.000 C 
BRANCH  13  17
ATOM     17  O   UNL     1      51.712   7.523  11.576  0.00  0.00    +0.000 OA
ATOM     18  H   UNL     1      52.479   8.062  11.834  0.00  0.00    +0.000 HD
ENDBRANCH  13  17
ENDBRANCH  11  15
ENDBRANCH   4  11
ENDBRANCH   1   9
BRANCH   1  19
ATOM     19  C   UNL     1      43.505   4.411  10.948  0.00  0.00    +0.000 C 
BRANCH  19  20
ATOM     20  N   UNL     1      43.891   3.029  10.571  0.00  0.00    +0.000 N 
ATOM     21  C   UNL     1      44.761   2.986   9.469  0.00  0.00    +0.000 A 
ATOM     22  C   UNL     1      45.234   1.758   8.983  0.00  0.00    +0.000 A 
ATOM     23  N   UNL     1      46.079   1.625   7.924  0.00  0.00    +0.000 NA
ATOM     24  C   UNL     1      46.459   2.805   7.360  0.00  0.00    +0.000 A 
ATOM     25  C   UNL     1      46.021   4.028   7.840  0.00  0.00    +0.000 A 
ATOM     26  N   UNL     1      45.175   4.139   8.896  0.00  0.00    +0.000 NA
ATOM     27  H   UNL     1      43.074   2.444  10.404  0.00  0.00    +0.000 HD
BRANCH  24  28
ATOM     28  C   UNL     1      47.361   2.768   6.179  0.00  0.00    +0.000 C 
ATOM     29  N   UNL     1      48.675   2.486   6.433  0.00  0.00    +0.000 N 
ATOM     30  O   UNL     1      46.955   2.972   5.042  0.00  0.00    +0.000 OA
ATOM     31  H   UNL     1      48.987   2.322   7.384  0.00  0.00    +0.000 HD
ATOM     32  H   UNL     1      49.328   2.440   5.664  0.00  0.00    +0.000 HD
ENDBRANCH  24  28
ENDBRANCH  19  20
ENDBRANCH   1  19
TORSDOF 7
ENDMDL
MODEL 9
REMARK VINA RESULT:    -7.437      4.087      8.049
REMARK INTER + INTRA:         -11.246
REMARK INTER:                 -10.378
REMARK INTRA:                  -0.868
REMARK UNBOUND:                -0.983
REMARK  Name = 
REMARK  8 active torsions:
REMARK  status: ('A' for Active; 'I' for Inactive)
REMARK    1  A    between atoms: C_1  and  C_2
REMARK    2  A    between atoms: C_2  and  O_3
REMARK    3  A    between atoms: C_5  and  O_6
REMARK    4  A    between atoms: O_6  and  C_7
REMARK    5  A    between atoms: C_12  and  C_13
REMARK    6  A    between atoms: C_13  and  C_16
REMARK    7  A    between atoms: C_16  and  N_17
REMARK    8  A    between atoms: C_21  and  C_22
REMARK                            x       y       z     vdW  Elec       q    Type
REMARK                         _______ _______ _______ _____ _____    ______ ____
ROOT
ATOM      1  C   UNL     1      46.502   4.859  13.705  0.00  0.00    +0.000 C 
ATOM      2  F   UNL     1      47.726   4.613  13.144  0.00  0.00    +0.000 F 
ATOM      3  F   UNL     1      46.509   6.202  13.986  0.00  0.00    +0.000 F 
ENDROOT
BRANCH   1   9
ATOM      4  C   UNL     1      44.478   3.381  10.763  0.00  0.00    +0.000 A 
ATOM      5  C   UNL     1      43.249   4.002  10.951  0.00  0.00    +0.000 A 
ATOM      6  C   UNL     1      43.100   4.894  12.007  0.00  0.00    +0.000 A 
ATOM      7  F   UNL     1      41.927   5.516  12.180  0.00  0.00    +0.000 F 
ATOM      8  C   UNL     1      44.150   5.161  12.881  0.00  0.00    +0.000 A 
ATOM      9  C   UNL     1      45.390   4.520  12.723  0.00  0.00    +0.000 A 
ATOM     10  C   UNL     1      45.533   3.622  11.651  0.00  0.00    +0.000 A 
BRANCH   4  11
ATOM     11  O   UNL     1      44.758   2.514   9.735  0.00  0.00    +0.000 OA
BRANCH  11  15
ATOM     12  C   UNL     1      46.409   2.404   5.497  0.00  0.00    +0.000 C 
ATOM     13  C   UNL     1      46.735   2.761   6.939  0.00  0.00    +0.000 C 
ATOM     14  C   UNL     1      46.395   1.654   7.969  0.00  0.00    +0.000 C 
ATOM     15  C   UNL     1      45.930   2.779   8.932  0.00  0.00    +0.000 C 
ATOM     16  C   UNL     1      45.683   3.641   7.667  0.00  0.00    +0.000 C 
BRANCH  13  17
ATOM     17  O   UNL     1      48.088   3.266   7.013  0.00  0.00    +0.000 OA
ATOM     18  H   UNL     1      48.032   4.088   7.529  0.00  0.00    +0.000 HD
ENDBRANCH  13  17
ENDBRANCH  11  15
ENDBRANCH   4  11
ENDBRANCH   1   9
BRANCH   1  19
ATOM     19  C   UNL     1      46.432   4.114  15.061  0.00  0.00    +0.000 C 
BRANCH  19  20
ATOM     20  N   UNL     1      47.240   4.742  16.135  0.00  0.00    +0.000 N 
ATOM     21  C   UNL     1      48.334   3.955  16.528  0.00  0.00    +0.000 A 
ATOM     22  C   UNL     1      49.210   4.401  17.528  0.00  0.00    +0.000 A 
ATOM     23  N   UNL     1      50.294   3.704  17.967  0.00  0.00    +0.000 NA
ATOM     24  C   UNL     1      50.486   2.513  17.337  0.00  0.00    +0.000 A 
ATOM     25  C   UNL     1      49.645   2.066  16.331  0.00  0.00    +0.000 A 
ATOM     26  N   UNL     1      48.567   2.774  15.910  0.00  0.00    +0.000 NA
ATOM     27  H   UNL     1      46.667   4.984  16.942  0.00  0.00    +0.000 HD
BRANCH  24  28
ATOM     28  C   UNL     1      51.628   1.661  17.762  0.00  0.00    +0.000 C 
ATOM     29  N   UNL     1      51.328   0.365  18.078  0.00  0.00    +0.000 N 
ATOM     30  O   UNL     1      52.774   2.089  17.820  0.00  0.00    +0.000 OA
ATOM     31  H   UNL     1      50.370   0.035  18.023  0.00  0.00    +0.000 HD
ATOM     32  H   UNL     1      52.069  -0.259  18.363  0.00  0.00    +0.000 HD
ENDBRANCH  24  28
ENDBRANCH  19  20
ENDBRANCH   1  19
TORSDOF 7
ENDMDL
