MODEL 1
REMARK VINA RESULT:    -9.247      0.000      0.000
REMARK INTER + INTRA:         -12.120
REMARK INTER:                 -11.950
REMARK INTRA:                  -0.171
REMARK UNBOUND:                -0.171
REMARK  Name = 
REMARK  6 active torsions:
REMARK  status: ('A' for Active; 'I' for Inactive)
REMARK    1  A    between atoms: C_1  and  O_2
REMARK    2  A    between atoms: O_2  and  C_3
REMARK    3  A    between atoms: C_6  and  C_7
REMARK    4  A    between atoms: C_11  and  C_12
REMARK    5  A    between atoms: C_12  and  N_13
REMARK    6  A    between atoms: C_17  and  C_18
REMARK                            x       y       z     vdW  Elec       q    Type
REMARK                         _______ _______ _______ _____ _____    ______ ____
ROOT
ATOM      1  C   UNL     1      44.013   5.231  11.195  0.00  0.00    +0.000 C 
ATOM      2  C   UNL     1      42.681   5.830  11.609  0.00  0.00    +0.000 C 
ATOM      3  C   UNL     1      42.807   4.346  11.504  0.00  0.00    +0.000 C 
ENDROOT
BRANCH   1   4
ATOM      4  N   UNL     1      44.442   5.266   9.789  0.00  0.00    +0.000 N 
ATOM      5  C   UNL     1      45.137   4.261   9.112  0.00  0.00    +0.000 A 
ATOM      6  C   UNL     1      45.113   2.923   9.485  0.00  0.00    +0.000 A 
ATOM      7  C   UNL     1      45.798   1.968   8.735  0.00  0.00    +0.000 A 
ATOM      8  C   UNL     1      46.507   2.374   7.611  0.00  0.00    +0.000 A 
ATOM      9  C   UNL     1      46.500   3.725   7.305  0.00  0.00    +0.000 A 
ATOM     10  N   UNL     1      45.825   4.663   8.023  0.00  0.00    +0.000 NA
ATOM     11  H   UNL     1      44.701   6.154   9.368  0.00  0.00    +0.000 HD
BRANCH   8  12
ATOM     12  C   UNL     1      47.281   1.437   6.769  0.00  0.00    +0.000 C 
ATOM     13  N   UNL     1      48.285   1.959   6.003  0.00  0.00    +0.000 N 
ATOM     14  O   UNL     1      47.043   0.235   6.770  0.00  0.00    +0.000 OA
ATOM     15  H   UNL     1      48.661   2.887   6.141  0.00  0.00    +0.000 HD
ATOM     16  H   UNL     1      48.853   1.299   5.487  0.00  0.00    +0.000 HD
ENDBRANCH   8  12
ENDBRANCH   1   4
BRANCH   1  21
ATOM     17  C   UNL     1      47.283   6.057  13.109  0.00  0.00    +0.000 A 
ATOM     18  C   UNL     1      47.147   5.100  14.113  0.00  0.00    +0.000 A 
ATOM     19  N   UNL     1      46.134   4.206  14.210  0.00  0.00    +0.000 NA
ATOM     20  C   UNL     1      45.183   4.266  13.250  0.00  0.00    +0.000 A 
ATOM     21  C   UNL     1      45.147   5.196  12.215  0.00  0.00    +0.000 A 
ATOM     22  C   UNL     1      46.224   6.101  12.188  0.00  0.00    +0.000 A 
BRANCH  17  26
ATOM     23  C   UNL     1      50.815   8.544  12.769  0.00  0.00    +0.000 A 
ATOM     24  C   UNL     1      50.453   7.988  13.991  0.00  0.00    +0.000 A 
ATOM     25  C   UNL     1      49.304   7.192  14.095  0.00  0.00    +0.000 A 
ATOM     26  C   UNL     1      48.472   6.937  12.988  0.00  0.00    +0.000 A 
ATOM     27  C   UNL     1      48.855   7.518  11.766  0.00  0.00    +0.000 A 
ATOM     28  C   UNL     1      50.012   8.300  11.658  0.00  0.00    +0.000 A 
BRANCH  23  30
ATOM     29  C   UNL     1      52.702   8.985  11.401  0.00  0.00    +0.000 C 
ATOM     30  O   UNL     1      51.912   9.323  12.535  0.00  0.00    +0.000 OA
ENDBRANCH  23  30
ENDBRANCH  17  26
ENDBRANCH   1  21
TORSDOF 5
ENDMDL
MODEL 2
REMARK VINA RESULT:    -8.435      2.761      3.654
REMARK INTER + INTRA:         -11.071
REMARK INTER:                 -11.021
REMARK INTRA:                  -0.050
REMARK UNBOUND:                -0.171
REMARK  Name = 
REMARK  6 active torsions:
REMARK  status: ('A' for Active; 'I' for Inactive)
REMARK    1  A    between atoms: C_1  and  O_2
REMARK    2  A    between atoms: O_2  and  C_3
REMARK    3  A    between atoms: C_6  and  C_7
REMARK    4  A    between atoms: C_11  and  C_12
REMARK    5  A    between atoms: C_12  and  N_13
REMARK    6  A    between atoms: C_17  and  C_18
REMARK                            x       y       z     vdW  Elec       q    Type
REMARK                         _______ _______ _______ _____ _____    ______ ____
ROOT
ATOM      1  C   UNL     1      43.726   5.376  11.188  0.00  0.00    +0.000 C 
ATOM      2  C   UNL     1      42.302   5.568  11.676  0.00  0.00    +0.000 C 
ATOM      3  C   UNL     1      42.980   4.260  11.917  0.00  0.00    +0.000 C 
ENDROOT
BRANCH   1   4
ATOM      4  N   UNL     1      44.002   5.141   9.762  0.00  0.00    +0.000 N 
ATOM      5  C   UNL     1      44.753   4.092   9.229  0.00  0.00    +0.000 A 
ATOM      6  C   UNL     1      44.948   2.878   9.874  0.00  0.00    +0.000 A 
ATOM      7  C   UNL     1      45.676   1.859   9.259  0.00  0.00    +0.000 A 
ATOM      8  C   UNL     1      46.206   2.077   7.993  0.00  0.00    +0.000 A 
ATOM      9  C   UNL     1      45.985   3.316   7.414  0.00  0.00    +0.000 A 
ATOM     10  N   UNL     1      45.266   4.312   8.000  0.00  0.00    +0.000 NA
ATOM     11  H   UNL     1      44.094   5.935   9.135  0.00  0.00    +0.000 HD
BRANCH   8  12
ATOM     12  C   UNL     1      47.009   1.066   7.274  0.00  0.00    +0.000 C 
ATOM     13  N   UNL     1      46.814  -0.245   7.603  0.00  0.00    +0.000 N 
ATOM     14  O   UNL     1      47.808   1.390   6.403  0.00  0.00    +0.000 OA
ATOM     15  H   UNL     1      46.019  -0.569   8.137  0.00  0.00    +0.000 HD
ATOM     16  H   UNL     1      47.316  -0.931   7.054  0.00  0.00    +0.000 HD
ENDBRANCH   8  12
ENDBRANCH   1   4
BRANCH   1  21
ATOM     17  C   UNL     1      46.662   5.970  13.651  0.00  0.00    +0.000 A 
ATOM     18  C   UNL     1      46.920   7.294  13.302  0.00  0.00    +0.000 A 
ATOM     19  N   UNL     1      46.227   8.012  12.387  0.00  0.00    +0.000 NA
ATOM     20  C   UNL     1      45.208   7.374  11.766  0.00  0.00    +0.000 A 
ATOM     21  C   UNL     1      44.860   6.040  11.963  0.00  0.00    +0.000 A 
ATOM     22  C   UNL     1      45.634   5.355  12.917  0.00  0.00    +0.000 A 
BRANCH  17  26
ATOM     23  C   UNL     1      48.706   3.967  16.904  0.00  0.00    +0.000 A 
ATOM     24  C   UNL     1      48.904   5.323  16.670  0.00  0.00    +0.000 A 
ATOM     25  C   UNL     1      48.245   5.962  15.610  0.00  0.00    +0.000 A 
ATOM     26  C   UNL     1      47.383   5.267  14.741  0.00  0.00    +0.000 A 
ATOM     27  C   UNL     1      47.207   3.894  14.995  0.00  0.00    +0.000 A 
ATOM     28  C   UNL     1      47.851   3.259  16.064  0.00  0.00    +0.000 A 
BRANCH  23  30
ATOM     29  C   UNL     1      50.288   2.312  17.526  0.00  0.00    +0.000 C 
ATOM     30  O   UNL     1      49.275   3.234  17.907  0.00  0.00    +0.000 OA
ENDBRANCH  23  30
ENDBRANCH  17  26
ENDBRANCH   1  21
TORSDOF 5
ENDMDL
MODEL 3
REMARK VINA RESULT:    -7.786      2.177      3.021
REMARK INTER + INTRA:         -10.233
REMARK INTER:                  -9.460
REMARK INTRA:                  -0.772
REMARK UNBOUND:                -0.171
REMARK  Name = 
REMARK  6 active torsions:
REMARK  status: ('A' for Active; 'I' for Inactive)
REMARK    1  A    between atoms: C_1  and  O_2
REMARK    2  A    between atoms: O_2  and  C_3
REMARK    3  A    between atoms: C_6  and  C_7
REMARK    4  A    between atoms: C_11  and  C_12
REMARK    5  A    between atoms: C_12  and  N_13
REMARK    6  A    between atoms: C_17  and  C_18
REMARK                            x       y       z     vdW  Elec       q    Type
REMARK                         _______ _______ _______ _____ _____    ______ ____
ROOT
ATOM      1  C   UNL     1      44.045   4.984  11.746  0.00  0.00    +0.000 C 
ATOM      2  C   UNL     1      42.625   5.352  11.354  0.00  0.00    +0.000 C 
ATOM      3  C   UNL     1      42.877   4.779  12.710  0.00  0.00    +0.000 C 
ENDROOT
BRANCH   1   4
ATOM      4  N   UNL     1      44.670   3.760  11.224  0.00  0.00    +0.000 N 
ATOM      5  C   UNL     1      45.248   3.602   9.962  0.00  0.00    +0.000 A 
ATOM      6  C   UNL     1      45.747   4.655   9.206  0.00  0.00    +0.000 A 
ATOM      7  C   UNL     1      46.349   4.415   7.971  0.00  0.00    +0.000 A 
ATOM      8  C   UNL     1      46.440   3.108   7.507  0.00  0.00    +0.000 A 
ATOM      9  C   UNL     1      45.909   2.109   8.306  0.00  0.00    +0.000 A 
ATOM     10  N   UNL     1      45.331   2.330   9.517  0.00  0.00    +0.000 NA
ATOM     11  H   UNL     1      44.312   2.854  11.513  0.00  0.00    +0.000 HD
BRANCH   8  12
ATOM     12  C   UNL     1      47.040   2.760   6.201  0.00  0.00    +0.000 C 
ATOM     13  N   UNL     1      48.352   2.380   6.191  0.00  0.00    +0.000 N 
ATOM     14  O   UNL     1      46.382   2.795   5.169  0.00  0.00    +0.000 OA
ATOM     15  H   UNL     1      48.859   2.119   7.026  0.00  0.00    +0.000 HD
ATOM     16  H   UNL     1      48.731   2.076   5.304  0.00  0.00    +0.000 HD
ENDBRANCH   8  12
ENDBRANCH   1   4
BRANCH   1  21
ATOM     17  C   UNL     1      47.020   6.940  13.283  0.00  0.00    +0.000 A 
ATOM     18  C   UNL     1      46.758   8.166  12.676  0.00  0.00    +0.000 A 
ATOM     19  N   UNL     1      45.711   8.427  11.857  0.00  0.00    +0.000 NA
ATOM     20  C   UNL     1      44.864   7.399  11.616  0.00  0.00    +0.000 A 
ATOM     21  C   UNL     1      45.018   6.104  12.102  0.00  0.00    +0.000 A 
ATOM     22  C   UNL     1      46.136   5.906  12.932  0.00  0.00    +0.000 A 
BRANCH  17  26
ATOM     23  C   UNL     1      50.209   6.455  16.175  0.00  0.00    +0.000 A 
ATOM     24  C   UNL     1      50.343   7.344  15.115  0.00  0.00    +0.000 A 
ATOM     25  C   UNL     1      49.310   7.489  14.178  0.00  0.00    +0.000 A 
ATOM     26  C   UNL     1      48.119   6.741  14.260  0.00  0.00    +0.000 A 
ATOM     27  C   UNL     1      48.013   5.842  15.337  0.00  0.00    +0.000 A 
ATOM     28  C   UNL     1      49.038   5.710  16.283  0.00  0.00    +0.000 A 
BRANCH  23  30
ATOM     29  C   UNL     1      51.293   4.886  17.587  0.00  0.00    +0.000 C 
ATOM     30  O   UNL     1      51.133   6.232  17.158  0.00  0.00    +0.000 OA
ENDBRANCH  23  30
ENDBRANCH  17  26
ENDBRANCH   1  21
TORSDOF 5
ENDMDL
MODEL 4
REMARK VINA RESULT:    -7.674      3.364      7.210
REMARK INTER + INTRA:         -10.087
REMARK INTER:                  -9.824
REMARK INTRA:                  -0.263
REMARK UNBOUND:                -0.171
REMARK  Name = 
REMARK  6 active torsions:
REMARK  status: ('A' for Active; 'I' for Inactive)
REMARK    1  A    between atoms: C_1  and  O_2
REMARK    2  A    between atoms: O_2  and  C_3
REMARK    3  A    between atoms: C_6  and  C_7
REMARK    4  A    between atoms: C_11  and  C_12
REMARK    5  A    between atoms: C_12  and  N_13
REMARK    6  A    between atoms: C_17  and  C_18
REMARK                            x       y       z     vdW  Elec       q    Type
REMARK                         _______ _______ _______ _____ _____    ______ ____
ROOT
ATOM      1  C   UNL     1      45.824   7.754  12.369  0.00  0.00    +0.000 C 
ATOM      2  C   UNL     1      45.065   8.962  12.889  0.00  0.00    +0.000 C 
ATOM      3  C   UNL     1      45.882   9.098  11.646  0.00  0.00    +0.000 C 
ENDROOT
BRANCH   1   4
ATOM      4  N   UNL     1      47.070   7.319  13.019  0.00  0.00    +0.000 N 
ATOM      5  C   UNL     1      47.207   6.253  13.911  0.00  0.00    +0.000 A 
ATOM      6  C   UNL     1      46.338   5.172  13.958  0.00  0.00    +0.000 A 
ATOM      7  C   UNL     1      46.563   4.122  14.849  0.00  0.00    +0.000 A 
ATOM      8  C   UNL     1      47.668   4.176  15.690  0.00  0.00    +0.000 A 
ATOM      9  C   UNL     1      48.485   5.291  15.599  0.00  0.00    +0.000 A 
ATOM     10  N   UNL     1      48.282   6.314  14.726  0.00  0.00    +0.000 NA
ATOM     11  H   UNL     1      47.778   8.010  13.254  0.00  0.00    +0.000 HD
BRANCH   8  12
ATOM     12  C   UNL     1      47.974   3.123  16.681  0.00  0.00    +0.000 C 
ATOM     13  N   UNL     1      47.215   3.083  17.815  0.00  0.00    +0.000 N 
ATOM     14  O   UNL     1      48.865   2.304  16.485  0.00  0.00    +0.000 OA
ATOM     15  H   UNL     1      46.340   3.579  17.912  0.00  0.00    +0.000 HD
ATOM     16  H   UNL     1      47.386   2.315  18.451  0.00  0.00    +0.000 HD
ENDBRANCH   8  12
ENDBRANCH   1   4
BRANCH   1  21
ATOM     17  C   UNL     1      44.930   4.720  10.126  0.00  0.00    +0.000 A 
ATOM     18  C   UNL     1      43.577   4.650  10.454  0.00  0.00    +0.000 A 
ATOM     19  N   UNL     1      42.930   5.495  11.292  0.00  0.00    +0.000 NA
ATOM     20  C   UNL     1      43.674   6.478  11.849  0.00  0.00    +0.000 A 
ATOM     21  C   UNL     1      45.043   6.648  11.666  0.00  0.00    +0.000 A 
ATOM     22  C   UNL     1      45.649   5.723  10.796  0.00  0.00    +0.000 A 
BRANCH  17  26
ATOM     23  C   UNL     1      46.681   2.109   7.145  0.00  0.00    +0.000 A 
ATOM     24  C   UNL     1      46.028   1.583   8.253  0.00  0.00    +0.000 A 
ATOM     25  C   UNL     1      45.471   2.434   9.218  0.00  0.00    +0.000 A 
ATOM     26  C   UNL     1      45.562   3.835   9.117  0.00  0.00    +0.000 A 
ATOM     27  C   UNL     1      46.236   4.342   7.991  0.00  0.00    +0.000 A 
ATOM     28  C   UNL     1      46.777   3.492   7.018  0.00  0.00    +0.000 A 
BRANCH  23  30
ATOM     29  C   UNL     1      47.856   2.138   5.084  0.00  0.00    +0.000 C 
ATOM     30  O   UNL     1      47.251   1.391   6.132  0.00  0.00    +0.000 OA
ENDBRANCH  23  30
ENDBRANCH  17  26
ENDBRANCH   1  21
TORSDOF 5
ENDMDL
MODEL 5
REMARK VINA RESULT:    -7.294      5.025      8.841
REMARK INTER + INTRA:          -9.597
REMARK INTER:                  -9.052
REMARK INTRA:                  -0.545
REMARK UNBOUND:                -0.171
REMARK  Name = 
REMARK  6 active torsions:
REMARK  status: ('A' for Active; 'I' for Inactive)
REMARK    1  A    between atoms: C_1  and  O_2
REMARK    2  A    between atoms: O_2  and  C_3
REMARK    3  A    between atoms: C_6  and  C_7
REMARK    4  A    between atoms: C_11  and  C_12
REMARK    5  A    between atoms: C_12  and  N_13
REMARK    6  A    between atoms: C_17  and  C_18
REMARK                            x       y       z     vdW  Elec       q    Type
REMARK                         _______ _______ _______ _____ _____    ______ ____
ROOT
ATOM      1  C   UNL     1      48.616   4.844  17.298  0.00  0.00    +0.000 C 
ATOM      2  C   UNL     1      47.666   3.776  17.809  0.00  0.00    +0.000 C 
ATOM      3  C   UNL     1      47.665   5.118  18.462  0.00  0.00    +0.000 C 
ENDROOT
BRANCH   1   4
ATOM      4  N   UNL     1      50.047   4.793  17.635  0.00  0.00    +0.000 N 
ATOM      5  C   UNL     1      50.836   3.644  17.712  0.00  0.00    +0.000 A 
ATOM      6  C   UNL     1      50.545   2.463  17.042  0.00  0.00    +0.000 A 
ATOM      7  C   UNL     1      51.405   1.368  17.133  0.00  0.00    +0.000 A 
ATOM      8  C   UNL     1      52.554   1.474  17.907  0.00  0.00    +0.000 A 
ATOM      9  C   UNL     1      52.774   2.676  18.560  0.00  0.00    +0.000 A 
ATOM     10  N   UNL     1      51.949   3.755  18.468  0.00  0.00    +0.000 NA
ATOM     11  H   UNL     1      50.431   5.474  18.285  0.00  0.00    +0.000 HD
BRANCH   8  12
ATOM     12  C   UNL     1      53.510   0.361  18.081  0.00  0.00    +0.000 C 
ATOM     13  N   UNL     1      53.026  -0.814  18.583  0.00  0.00    +0.000 N 
ATOM     14  O   UNL     1      54.689   0.480  17.771  0.00  0.00    +0.000 OA
ATOM     15  H   UNL     1      52.039  -1.029  18.633  0.00  0.00    +0.000 HD
ATOM     16  H   UNL     1      53.674  -1.590  18.629  0.00  0.00    +0.000 HD
ENDBRANCH   8  12
ENDBRANCH   1   4
BRANCH   1  21
ATOM     17  C   UNL     1      47.092   5.655  13.826  0.00  0.00    +0.000 A 
ATOM     18  C   UNL     1      47.712   6.890  13.645  0.00  0.00    +0.000 A 
ATOM     19  N   UNL     1      48.585   7.462  14.508  0.00  0.00    +0.000 NA
ATOM     20  C   UNL     1      48.863   6.766  15.634  0.00  0.00    +0.000 A 
ATOM     21  C   UNL     1      48.287   5.547  15.985  0.00  0.00    +0.000 A 
ATOM     22  C   UNL     1      47.379   5.024  15.048  0.00  0.00    +0.000 A 
BRANCH  17  26
ATOM     23  C   UNL     1      44.655   3.817  10.751  0.00  0.00    +0.000 A 
ATOM     24  C   UNL     1      45.053   5.145  10.642  0.00  0.00    +0.000 A 
ATOM     25  C   UNL     1      45.835   5.735  11.645  0.00  0.00    +0.000 A 
ATOM     26  C   UNL     1      46.230   5.025  12.795  0.00  0.00    +0.000 A 
ATOM     27  C   UNL     1      45.806   3.687  12.886  0.00  0.00    +0.000 A 
ATOM     28  C   UNL     1      45.040   3.092  11.875  0.00  0.00    +0.000 A 
BRANCH  23  30
ATOM     29  C   UNL     1      44.579   2.107   9.109  0.00  0.00    +0.000 C 
ATOM     30  O   UNL     1      43.908   3.125   9.840  0.00  0.00    +0.000 OA
ENDBRANCH  23  30
ENDBRANCH  17  26
ENDBRANCH   1  21
TORSDOF 5
ENDMDL
MODEL 6
REMARK VINA RESULT:    -7.175      2.738      7.545
REMARK INTER + INTRA:          -9.443
REMARK INTER:                  -8.679
REMARK INTRA:                  -0.764
REMARK UNBOUND:                -0.171
REMARK  Name = 
REMARK  6 active torsions:
REMARK  status: ('A' for Active; 'I' for Inactive)
REMARK    1  A    between atoms: C_1  and  O_2
REMARK    2  A    between atoms: O_2  and  C_3
REMARK    3  A    between atoms: C_6  and  C_7
REMARK    4  A    between atoms: C_11  and  C_12
REMARK    5  A    between atoms: C_12  and  N_13
REMARK    6  A    between atoms: C_17  and  C_18
REMARK                            x       y       z     vdW  Elec       q    Type
REMARK                         _______ _______ _______ _____ _____    ______ ____
ROOT
ATOM      1  C   UNL     1      45.705   8.133  11.926  0.00  0.00    +0.000 C 
ATOM      2  C   UNL     1      44.972   9.050  12.888  0.00  0.00    +0.000 C 
ATOM      3  C   UNL     1      45.113   9.461  11.460  0.00  0.00    +0.000 C 
ENDROOT
BRANCH   1   4
ATOM      4  N   UNL     1      47.174   8.053  11.944  0.00  0.00    +0.000 N 
ATOM      5  C   UNL     1      47.968   7.700  13.036  0.00  0.00    +0.000 A 
ATOM      6  C   UNL     1      47.518   6.928  14.099  0.00  0.00    +0.000 A 
ATOM      7  C   UNL     1      48.383   6.580  15.137  0.00  0.00    +0.000 A 
ATOM      8  C   UNL     1      49.700   7.019  15.093  0.00  0.00    +0.000 A 
ATOM      9  C   UNL     1      50.078   7.798  14.011  0.00  0.00    +0.000 A 
ATOM     10  N   UNL     1      49.246   8.133  12.988  0.00  0.00    +0.000 NA
ATOM     11  H   UNL     1      47.715   8.688  11.363  0.00  0.00    +0.000 HD
BRANCH   8  12
ATOM     12  C   UNL     1      50.682   6.719  16.157  0.00  0.00    +0.000 C 
ATOM     13  N   UNL     1      51.460   7.748  16.606  0.00  0.00    +0.000 N 
ATOM     14  O   UNL     1      50.782   5.594  16.632  0.00  0.00    +0.000 OA
ATOM     15  H   UNL     1      51.258   8.720  16.413  0.00  0.00    +0.000 HD
ATOM     16  H   UNL     1      52.076   7.547  17.383  0.00  0.00    +0.000 HD
ENDBRANCH   8  12
ENDBRANCH   1   4
BRANCH   1  21
ATOM     17  C   UNL     1      44.957   4.789  10.111  0.00  0.00    +0.000 A 
ATOM     18  C   UNL     1      43.669   4.601  10.611  0.00  0.00    +0.000 A 
ATOM     19  N   UNL     1      43.018   5.453  11.438  0.00  0.00    +0.000 NA
ATOM     20  C   UNL     1      43.689   6.570  11.803  0.00  0.00    +0.000 A 
ATOM     21  C   UNL     1      44.997   6.874  11.434  0.00  0.00    +0.000 A 
ATOM     22  C   UNL     1      45.613   5.935  10.587  0.00  0.00    +0.000 A 
BRANCH  17  26
ATOM     23  C   UNL     1      46.677   2.104   7.178  0.00  0.00    +0.000 A 
ATOM     24  C   UNL     1      45.981   1.606   8.274  0.00  0.00    +0.000 A 
ATOM     25  C   UNL     1      45.434   2.481   9.223  0.00  0.00    +0.000 A 
ATOM     26  C   UNL     1      45.579   3.877   9.119  0.00  0.00    +0.000 A 
ATOM     27  C   UNL     1      46.296   4.355   8.007  0.00  0.00    +0.000 A 
ATOM     28  C   UNL     1      46.827   3.482   7.049  0.00  0.00    +0.000 A 
BRANCH  23  30
ATOM     29  C   UNL     1      47.786   2.080   5.081  0.00  0.00    +0.000 C 
ATOM     30  O   UNL     1      47.243   1.361   6.181  0.00  0.00    +0.000 OA
ENDBRANCH  23  30
ENDBRANCH  17  26
ENDBRANCH   1  21
TORSDOF 5
ENDMDL
MODEL 7
REMARK VINA RESULT:    -7.134      4.103      6.316
REMARK INTER + INTRA:          -9.390
REMARK INTER:                  -8.607
REMARK INTRA:                  -0.784
REMARK UNBOUND:                -0.171
REMARK  Name = 
REMARK  6 active torsions:
REMARK  status: ('A' for Active; 'I' for Inactive)
REMARK    1  A    between atoms: C_1  and  O_2
REMARK    2  A    between atoms: O_2  and  C_3
REMARK    3  A    between atoms: C_6  and  C_7
REMARK    4  A    between atoms: C_11  and  C_12
REMARK    5  A    between atoms: C_12  and  N_13
REMARK    6  A    between atoms: C_17  and  C_18
REMARK                            x       y       z     vdW  Elec       q    Type
REMARK                         _______ _______ _______ _____ _____    ______ ____
ROOT
ATOM      1  C   UNL     1      48.026   8.706  13.935  0.00  0.00    +0.000 C 
ATOM      2  C   UNL     1      49.140   8.671  12.905  0.00  0.00    +0.000 C 
ATOM      3  C   UNL     1      48.783   9.973  13.543  0.00  0.00    +0.000 C 
ENDROOT
BRANCH   1   4
ATOM      4  N   UNL     1      46.618   8.642  13.514  0.00  0.00    +0.000 N 
ATOM      5  C   UNL     1      46.019   7.608  12.791  0.00  0.00    +0.000 A 
ATOM      6  C   UNL     1      46.498   6.305  12.768  0.00  0.00    +0.000 A 
ATOM      7  C   UNL     1      45.822   5.315  12.055  0.00  0.00    +0.000 A 
ATOM      8  C   UNL     1      44.663   5.652  11.365  0.00  0.00    +0.000 A 
ATOM      9  C   UNL     1      44.250   6.974  11.419  0.00  0.00    +0.000 A 
ATOM     10  N   UNL     1      44.896   7.944  12.122  0.00  0.00    +0.000 NA
ATOM     11  H   UNL     1      46.125   9.501  13.287  0.00  0.00    +0.000 HD
BRANCH   8  12
ATOM     12  C   UNL     1      43.893   4.677  10.565  0.00  0.00    +0.000 C 
ATOM     13  N   UNL     1      44.162   4.605   9.228  0.00  0.00    +0.000 N 
ATOM     14  O   UNL     1      43.057   3.948  11.084  0.00  0.00    +0.000 OA
ATOM     15  H   UNL     1      44.986   5.012   8.807  0.00  0.00    +0.000 HD
ATOM     16  H   UNL     1      43.681   3.885   8.705  0.00  0.00    +0.000 HD
ENDBRANCH   8  12
ENDBRANCH   1   4
BRANCH   1  21
ATOM     17  C   UNL     1      49.090   6.373  16.844  0.00  0.00    +0.000 A 
ATOM     18  C   UNL     1      48.822   7.258  17.887  0.00  0.00    +0.000 A 
ATOM     19  N   UNL     1      48.308   8.503  17.745  0.00  0.00    +0.000 NA
ATOM     20  C   UNL     1      48.045   8.906  16.481  0.00  0.00    +0.000 A 
ATOM     21  C   UNL     1      48.306   8.163  15.333  0.00  0.00    +0.000 A 
ATOM     22  C   UNL     1      48.854   6.887  15.559  0.00  0.00    +0.000 A 
BRANCH  17  26
ATOM     23  C   UNL     1      50.421   2.286  17.389  0.00  0.00    +0.000 A 
ATOM     24  C   UNL     1      49.099   2.564  17.059  0.00  0.00    +0.000 A 
ATOM     25  C   UNL     1      48.674   3.889  16.893  0.00  0.00    +0.000 A 
ATOM     26  C   UNL     1      49.548   4.979  17.066  0.00  0.00    +0.000 A 
ATOM     27  C   UNL     1      50.877   4.672  17.409  0.00  0.00    +0.000 A 
ATOM     28  C   UNL     1      51.307   3.346  17.558  0.00  0.00    +0.000 A 
BRANCH  23  30
ATOM     29  C   UNL     1      52.375   0.977  17.700  0.00  0.00    +0.000 C 
ATOM     30  O   UNL     1      50.961   1.043  17.564  0.00  0.00    +0.000 OA
ENDBRANCH  23  30
ENDBRANCH  17  26
ENDBRANCH   1  21
TORSDOF 5
ENDMDL
MODEL 8
REMARK VINA RESULT:    -6.769      3.512      8.400
REMARK INTER + INTRA:          -8.919
REMARK INTER:                  -8.568
REMARK INTRA:                  -0.350
REMARK UNBOUND:                -0.171
REMARK  Name = 
REMARK  6 active torsions:
REMARK  status: ('A' for Active; 'I' for Inactive)
REMARK    1  A    between atoms: C_1  and  O_2
REMARK    2  A    between atoms: O_2  and  C_3
REMARK    3  A    between atoms: C_6  and  C_7
REMARK    4  A    between atoms: C_11  and  C_12
REMARK    5  A    between atoms: C_12  and  N_13
REMARK    6  A    between atoms: C_17  and  C_18
REMARK                            x       y       z     vdW  Elec       q    Type
REMARK                         _______ _______ _______ _____ _____    ______ ____
ROOT
ATOM      1  C   UNL     1      49.146   8.708  12.792  0.00  0.00    +0.000 C 
ATOM      2  C   UNL     1      50.012   9.396  11.752  0.00  0.00    +0.000 C 
ATOM      3  C   UNL     1      50.211   7.939  12.014  0.00  0.00    +0.000 C 
ENDROOT
BRANCH   1   4
ATOM      4  N   UNL     1      49.409   8.899  14.227  0.00  0.00    +0.000 N 
ATOM      5  C   UNL     1      49.034   8.034  15.257  0.00  0.00    +0.000 A 
ATOM      6  C   UNL     1      48.795   6.678  15.075  0.00  0.00    +0.000 A 
ATOM      7  C   UNL     1      48.466   5.867  16.161  0.00  0.00    +0.000 A 
ATOM      8  C   UNL     1      48.377   6.435  17.426  0.00  0.00    +0.000 A 
ATOM      9  C   UNL     1      48.613   7.796  17.532  0.00  0.00    +0.000 A 
ATOM     10  N   UNL     1      48.948   8.594  16.482  0.00  0.00    +0.000 NA
ATOM     11  H   UNL     1      49.431   9.841  14.609  0.00  0.00    +0.000 HD
BRANCH   8  12
ATOM     12  C   UNL     1      48.011   5.659  18.630  0.00  0.00    +0.000 C 
ATOM     13  N   UNL     1      46.685   5.570  18.945  0.00  0.00    +0.000 N 
ATOM     14  O   UNL     1      48.864   5.102  19.311  0.00  0.00    +0.000 OA
ATOM     15  H   UNL     1      45.946   5.811  18.299  0.00  0.00    +0.000 HD
ATOM     16  H   UNL     1      46.443   4.977  19.729  0.00  0.00    +0.000 HD
ENDBRANCH   8  12
ENDBRANCH   1   4
BRANCH   1  21
ATOM     17  C   UNL     1      45.968   6.851  11.574  0.00  0.00    +0.000 A 
ATOM     18  C   UNL     1      45.052   7.863  11.857  0.00  0.00    +0.000 A 
ATOM     19  N   UNL     1      45.362   9.080  12.365  0.00  0.00    +0.000 NA
ATOM     20  C   UNL     1      46.671   9.312  12.616  0.00  0.00    +0.000 A 
ATOM     21  C   UNL     1      47.697   8.388  12.440  0.00  0.00    +0.000 A 
ATOM     22  C   UNL     1      47.296   7.142  11.924  0.00  0.00    +0.000 A 
BRANCH  17  26
ATOM     23  C   UNL     1      44.952   3.117   9.625  0.00  0.00    +0.000 A 
ATOM     24  C   UNL     1      45.357   4.219   8.880  0.00  0.00    +0.000 A 
ATOM     25  C   UNL     1      45.675   5.426   9.517  0.00  0.00    +0.000 A 
ATOM     26  C   UNL     1      45.585   5.578  10.914  0.00  0.00    +0.000 A 
ATOM     27  C   UNL     1      45.165   4.451  11.644  0.00  0.00    +0.000 A 
ATOM     28  C   UNL     1      44.863   3.239  11.009  0.00  0.00    +0.000 A 
BRANCH  23  30
ATOM     29  C   UNL     1      45.648   1.201   8.410  0.00  0.00    +0.000 C 
ATOM     30  O   UNL     1      44.629   1.886   9.128  0.00  0.00    +0.000 OA
ENDBRANCH  23  30
ENDBRANCH  17  26
ENDBRANCH   1  21
TORSDOF 5
ENDMDL
MODEL 9
REMARK VINA RESULT:    -6.747      3.819      8.768
REMARK INTER + INTRA:          -8.890
REMARK INTER:                  -8.138
REMARK INTRA:                  -0.751
REMARK UNBOUND:                -0.171
REMARK  Name = 
REMARK  6 active torsions:
REMARK  status: ('A' for Active; 'I' for Inactive)
REMARK    1  A    between atoms: C_1  and  O_2
REMARK    2  A    between atoms: O_2  and  C_3
REMARK    3  A    between atoms: C_6  and  C_7
REMARK    4  A    between atoms: C_11  and  C_12
REMARK    5  A    between atoms: C_12  and  N_13
REMARK    6  A    between atoms: C_17  and  C_18
REMARK                            x       y       z     vdW  Elec       q    Type
REMARK                         _______ _______ _______ _____ _____    ______ ____
ROOT
ATOM      1  C   UNL     1      49.910   8.280  14.128  0.00  0.00    +0.000 C 
ATOM      2  C   UNL     1      50.472   9.585  14.661  0.00  0.00    +0.000 C 
ATOM      3  C   UNL     1      51.066   8.990  13.427  0.00  0.00    +0.000 C 
ENDROOT
BRANCH   1   4
ATOM      4  N   UNL     1      50.240   7.003  14.781  0.00  0.00    +0.000 N 
ATOM      5  C   UNL     1      49.811   6.586  16.042  0.00  0.00    +0.000 A 
ATOM      6  C   UNL     1      48.663   7.061  16.662  0.00  0.00    +0.000 A 
ATOM      7  C   UNL     1      48.274   6.566  17.907  0.00  0.00    +0.000 A 
ATOM      8  C   UNL     1      49.054   5.593  18.519  0.00  0.00    +0.000 A 
ATOM      9  C   UNL     1      50.193   5.175  17.851  0.00  0.00    +0.000 A 
ATOM     10  N   UNL     1      50.575   5.642  16.632  0.00  0.00    +0.000 NA
ATOM     11  H   UNL     1      51.144   6.573  14.606  0.00  0.00    +0.000 HD
BRANCH   8  12
ATOM     12  C   UNL     1      48.733   5.026  19.846  0.00  0.00    +0.000 C 
ATOM     13  N   UNL     1      48.644   3.667  19.947  0.00  0.00    +0.000 N 
ATOM     14  O   UNL     1      48.571   5.746  20.824  0.00  0.00    +0.000 OA
ATOM     15  H   UNL     1      48.990   3.035  19.237  0.00  0.00    +0.000 HD
ATOM     16  H   UNL     1      48.496   3.288  20.873  0.00  0.00    +0.000 HD
ENDBRANCH   8  12
ENDBRANCH   1   4
BRANCH   1  21
ATOM     17  C   UNL     1      46.684   7.155  12.294  0.00  0.00    +0.000 A 
ATOM     18  C   UNL     1      46.127   8.421  12.123  0.00  0.00    +0.000 A 
ATOM     19  N   UNL     1      46.700   9.586  12.508  0.00  0.00    +0.000 NA
ATOM     20  C   UNL     1      47.908   9.495  13.110  0.00  0.00    +0.000 A 
ATOM     21  C   UNL     1      48.569   8.305  13.402  0.00  0.00    +0.000 A 
ATOM     22  C   UNL     1      47.906   7.136  12.986  0.00  0.00    +0.000 A 
BRANCH  17  26
ATOM     23  C   UNL     1      44.782   3.575  10.764  0.00  0.00    +0.000 A 
ATOM     24  C   UNL     1      45.111   3.684  12.110  0.00  0.00    +0.000 A 
ATOM     25  C   UNL     1      45.734   4.842  12.596  0.00  0.00    +0.000 A 
ATOM     26  C   UNL     1      46.063   5.920  11.753  0.00  0.00    +0.000 A 
ATOM     27  C   UNL     1      45.729   5.782  10.394  0.00  0.00    +0.000 A 
ATOM     28  C   UNL     1      45.091   4.632   9.911  0.00  0.00    +0.000 A 
BRANCH  23  30
ATOM     29  C   UNL     1      44.793   1.972   9.015  0.00  0.00    +0.000 C 
ATOM     30  O   UNL     1      44.164   2.511  10.171  0.00  0.00    +0.000 OA
ENDBRANCH  23  30
ENDBRANCH  17  26
ENDBRANCH   1  21
TORSDOF 5
ENDMDL
