MODEL 1
REMARK VINA RESULT:    -9.562      0.000      0.000
REMARK INTER + INTRA:         -12.635
REMARK INTER:                 -11.798
REMARK INTRA:                  -0.837
REMARK UNBOUND:                -0.837
REMARK  Name = 
REMARK  4 active torsions:
REMARK  status: ('A' for Active; 'I' for Inactive)
REMARK    1  A    between atoms: C_2  and  C_4
REMARK    2  A    between atoms: N_8  and  C_9
REMARK    3  A    between atoms: C_9  and  C_10
REMARK    4  A    between atoms: C_14  and  C_15
REMARK                            x       y       z     vdW  Elec       q    Type
REMARK                         _______ _______ _______ _____ _____    ______ ____
ROOT
ATOM      1  C   UNL     1      43.926   4.853  11.494  0.00  0.00    +0.000 C 
ATOM      2  C   UNL     1      42.696   4.995  12.385  0.00  0.00    +0.000 C 
ATOM      3  C   UNL     1      42.942   5.990  11.301  0.00  0.00    +0.000 C 
ENDROOT
BRANCH   1   8
ATOM      4  C   UNL     1      46.485   2.734   7.501  0.00  0.00    +0.000 A 
ATOM      5  C   UNL     1      46.076   4.054   7.663  0.00  0.00    +0.000 A 
ATOM      6  C   UNL     1      45.249   4.386   8.737  0.00  0.00    +0.000 A 
ATOM      7  C   UNL     1      44.840   3.397   9.623  0.00  0.00    +0.000 A 
ATOM      8  N   UNL     1      43.933   3.634  10.663  0.00  0.00    +0.000 N 
ATOM      9  N   UNL     1      45.222   2.111   9.472  0.00  0.00    +0.000 NA
ATOM     10  C   UNL     1      46.027   1.804   8.420  0.00  0.00    +0.000 A 
ATOM     11  H   UNL     1      43.885   2.755  11.178  0.00  0.00    +0.000 HD
BRANCH   4  13
ATOM     12  N   UNL     1      47.268   3.002   5.218  0.00  0.00    +0.000 N 
ATOM     13  C   UNL     1      47.339   2.290   6.382  0.00  0.00    +0.000 C 
ATOM     14  O   UNL     1      48.104   1.339   6.497  0.00  0.00    +0.000 OA
ATOM     15  H   UNL     1      47.925   2.748   4.490  0.00  0.00    +0.000 HD
ATOM     16  H   UNL     1      46.849   3.922   5.167  0.00  0.00    +0.000 HD
ENDBRANCH   4  13
ENDBRANCH   1   8
BRANCH   1  17
ATOM     17  C   UNL     1      45.299   5.178  12.080  0.00  0.00    +0.000 A 
ATOM     18  C   UNL     1      46.056   6.268  11.619  0.00  0.00    +0.000 A 
ATOM     19  C   UNL     1      47.255   6.629  12.229  0.00  0.00    +0.000 A 
ATOM     20  C   UNL     1      47.704   5.930  13.348  0.00  0.00    +0.000 A 
ATOM     21  C   UNL     1      46.973   4.850  13.870  0.00  0.00    +0.000 A 
ATOM     22  C   UNL     1      45.803   4.464  13.186  0.00  0.00    +0.000 A 
BRANCH  21  23
ATOM     23  C   UNL     1      47.349   4.202  15.143  0.00  0.00    +0.000 A 
ATOM     24  C   UNL     1      47.102   4.807  16.366  0.00  0.00    +0.000 A 
ATOM     25  C   UNL     1      47.419   4.080  17.491  0.00  0.00    +0.000 A 
ATOM     26  N   UNL     1      47.955   2.853  17.452  0.00  0.00    +0.000 NA
ATOM     27  C   UNL     1      48.158   2.352  16.226  0.00  0.00    +0.000 A 
ATOM     28  N   UNL     1      47.874   2.958  15.062  0.00  0.00    +0.000 NA
ENDBRANCH  21  23
ENDBRANCH   1  17
TORSDOF 4
ENDMDL
MODEL 2
REMARK VINA RESULT:    -9.050      2.362      3.598
REMARK INTER + INTRA:         -12.002
REMARK INTER:                 -10.883
REMARK INTRA:                  -1.120
REMARK UNBOUND:                -0.837
REMARK  Name = 
REMARK  4 active torsions:
REMARK  status: ('A' for Active; 'I' for Inactive)
REMARK    1  A    between atoms: C_2  and  C_4
REMARK    2  A    between atoms: N_8  and  C_9
REMARK    3  A    between atoms: C_9  and  C_10
REMARK    4  A    between atoms: C_14  and  C_15
REMARK                            x       y       z     vdW  Elec       q    Type
REMARK                         _______ _______ _______ _____ _____    ______ ____
ROOT
ATOM      1  C   UNL     1      43.808   4.927  11.341  0.00  0.00    +0.000 C 
ATOM      2  C   UNL     1      42.462   5.223  11.992  0.00  0.00    +0.000 C 
ATOM      3  C   UNL     1      43.031   6.184  11.003  0.00  0.00    +0.000 C 
ENDROOT
BRANCH   1   8
ATOM      4  C   UNL     1      46.589   2.703   7.558  0.00  0.00    +0.000 A 
ATOM      5  C   UNL     1      46.251   4.045   7.708  0.00  0.00    +0.000 A 
ATOM      6  C   UNL     1      45.350   4.415   8.708  0.00  0.00    +0.000 A 
ATOM      7  C   UNL     1      44.798   3.441   9.532  0.00  0.00    +0.000 A 
ATOM      8  N   UNL     1      43.815   3.722  10.488  0.00  0.00    +0.000 N 
ATOM      9  N   UNL     1      45.110   2.135   9.390  0.00  0.00    +0.000 NA
ATOM     10  C   UNL     1      45.988   1.791   8.411  0.00  0.00    +0.000 A 
ATOM     11  H   UNL     1      43.663   2.840  10.979  0.00  0.00    +0.000 HD
BRANCH   4  13
ATOM     12  N   UNL     1      47.794   3.072   5.482  0.00  0.00    +0.000 N 
ATOM     13  C   UNL     1      47.513   2.221   6.513  0.00  0.00    +0.000 C 
ATOM     14  O   UNL     1      48.033   1.112   6.579  0.00  0.00    +0.000 OA
ATOM     15  H   UNL     1      48.500   2.768   4.823  0.00  0.00    +0.000 HD
ATOM     16  H   UNL     1      47.590   4.063   5.523  0.00  0.00    +0.000 HD
ENDBRANCH   4  13
ENDBRANCH   1   8
BRANCH   1  17
ATOM     17  C   UNL     1      45.077   5.066  12.180  0.00  0.00    +0.000 A 
ATOM     18  C   UNL     1      45.536   4.020  12.997  0.00  0.00    +0.000 A 
ATOM     19  C   UNL     1      46.750   4.106  13.673  0.00  0.00    +0.000 A 
ATOM     20  C   UNL     1      47.558   5.231  13.513  0.00  0.00    +0.000 A 
ATOM     21  C   UNL     1      47.162   6.295  12.685  0.00  0.00    +0.000 A 
ATOM     22  C   UNL     1      45.896   6.209  12.074  0.00  0.00    +0.000 A 
BRANCH  21  23
ATOM     23  C   UNL     1      48.071   7.418  12.378  0.00  0.00    +0.000 A 
ATOM     24  C   UNL     1      49.435   7.226  12.222  0.00  0.00    +0.000 A 
ATOM     25  C   UNL     1      50.177   8.326  11.858  0.00  0.00    +0.000 A 
ATOM     26  N   UNL     1      49.651   9.544  11.670  0.00  0.00    +0.000 NA
ATOM     27  C   UNL     1      48.325   9.632  11.846  0.00  0.00    +0.000 A 
ATOM     28  N   UNL     1      47.499   8.628  12.183  0.00  0.00    +0.000 NA
ENDBRANCH  21  23
ENDBRANCH   1  17
TORSDOF 4
ENDMDL
MODEL 3
REMARK VINA RESULT:    -6.776      3.833      8.312
REMARK INTER + INTRA:          -9.198
REMARK INTER:                  -8.244
REMARK INTRA:                  -0.953
REMARK UNBOUND:                -0.837
REMARK  Name = 
REMARK  4 active torsions:
REMARK  status: ('A' for Active; 'I' for Inactive)
REMARK    1  A    between atoms: C_2  and  C_4
REMARK    2  A    between atoms: N_8  and  C_9
REMARK    3  A    between atoms: C_9  and  C_10
REMARK    4  A    between atoms: C_14  and  C_15
REMARK                            x       y       z     vdW  Elec       q    Type
REMARK                         _______ _______ _______ _____ _____    ______ ____
ROOT
ATOM      1  C   UNL     1      48.947   7.928  12.581  0.00  0.00    +0.000 C 
ATOM      2  C   UNL     1      49.916   8.185  11.432  0.00  0.00    +0.000 C 
ATOM      3  C   UNL     1      49.543   9.302  12.347  0.00  0.00    +0.000 C 
ENDROOT
BRANCH   1   8
ATOM      4  C   UNL     1      48.435   6.818  17.630  0.00  0.00    +0.000 A 
ATOM      5  C   UNL     1      48.528   8.068  17.025  0.00  0.00    +0.000 A 
ATOM      6  C   UNL     1      48.832   8.147  15.665  0.00  0.00    +0.000 A 
ATOM      7  C   UNL     1      49.046   6.982  14.938  0.00  0.00    +0.000 A 
ATOM      8  N   UNL     1      49.452   6.985  13.598  0.00  0.00    +0.000 N 
ATOM      9  N   UNL     1      48.969   5.764  15.516  0.00  0.00    +0.000 NA
ATOM     10  C   UNL     1      48.672   5.704  16.841  0.00  0.00    +0.000 A 
ATOM     11  H   UNL     1      49.454   6.004  13.320  0.00  0.00    +0.000 HD
BRANCH   4  13
ATOM     12  N   UNL     1      47.256   5.662  19.411  0.00  0.00    +0.000 N 
ATOM     13  C   UNL     1      48.142   6.643  19.066  0.00  0.00    +0.000 C 
ATOM     14  O   UNL     1      48.692   7.330  19.921  0.00  0.00    +0.000 OA
ATOM     15  H   UNL     1      47.134   5.488  20.401  0.00  0.00    +0.000 HD
ATOM     16  H   UNL     1      46.983   4.926  18.772  0.00  0.00    +0.000 HD
ENDBRANCH   4  13
ENDBRANCH   1   8
BRANCH   1  17
ATOM     17  C   UNL     1      47.468   7.718  12.262  0.00  0.00    +0.000 A 
ATOM     18  C   UNL     1      46.526   8.746  12.432  0.00  0.00    +0.000 A 
ATOM     19  C   UNL     1      45.200   8.589  12.035  0.00  0.00    +0.000 A 
ATOM     20  C   UNL     1      44.794   7.407  11.417  0.00  0.00    +0.000 A 
ATOM     21  C   UNL     1      45.700   6.357  11.197  0.00  0.00    +0.000 A 
ATOM     22  C   UNL     1      47.015   6.519  11.675  0.00  0.00    +0.000 A 
BRANCH  21  23
ATOM     23  C   UNL     1      45.329   5.166  10.405  0.00  0.00    +0.000 A 
ATOM     24  C   UNL     1      44.578   4.137  10.951  0.00  0.00    +0.000 A 
ATOM     25  C   UNL     1      44.220   3.114  10.103  0.00  0.00    +0.000 A 
ATOM     26  N   UNL     1      44.572   3.067   8.811  0.00  0.00    +0.000 NA
ATOM     27  C   UNL     1      45.299   4.105   8.375  0.00  0.00    +0.000 A 
ATOM     28  N   UNL     1      45.692   5.163   9.102  0.00  0.00    +0.000 NA
ENDBRANCH  21  23
ENDBRANCH   1  17
TORSDOF 4
ENDMDL
MODEL 4
REMARK VINA RESULT:    -6.698      2.894      4.577
REMARK INTER + INTRA:          -9.101
REMARK INTER:                  -8.689
REMARK INTRA:                  -0.412
REMARK UNBOUND:                -0.837
REMARK  Name = 
REMARK  4 active torsions:
REMARK  status: ('A' for Active; 'I' for Inactive)
REMARK    1  A    between atoms: C_2  and  C_4
REMARK    2  A    between atoms: N_8  and  C_9
REMARK    3  A    between atoms: C_9  and  C_10
REMARK    4  A    between atoms: C_14  and  C_15
REMARK                            x       y       z     vdW  Elec       q    Type
REMARK                         _______ _______ _______ _____ _____    ______ ____
ROOT
ATOM      1  C   UNL     1      47.238   8.320  13.133  0.00  0.00    +0.000 C 
ATOM      2  C   UNL     1      47.390   9.663  12.427  0.00  0.00    +0.000 C 
ATOM      3  C   UNL     1      48.066   8.456  11.871  0.00  0.00    +0.000 C 
ENDROOT
BRANCH   1   8
ATOM      4  C   UNL     1      44.493   4.192  11.580  0.00  0.00    +0.000 A 
ATOM      5  C   UNL     1      45.495   4.872  10.893  0.00  0.00    +0.000 A 
ATOM      6  C   UNL     1      45.994   6.066  11.419  0.00  0.00    +0.000 A 
ATOM      7  C   UNL     1      45.479   6.561  12.611  0.00  0.00    +0.000 A 
ATOM      8  N   UNL     1      45.857   7.799  13.147  0.00  0.00    +0.000 N 
ATOM      9  N   UNL     1      44.501   5.916  13.281  0.00  0.00    +0.000 NA
ATOM     10  C   UNL     1      44.026   4.756  12.756  0.00  0.00    +0.000 A 
ATOM     11  H   UNL     1      45.379   7.855  14.046  0.00  0.00    +0.000 HD
BRANCH   4  13
ATOM     12  N   UNL     1      44.459   2.361   9.984  0.00  0.00    +0.000 N 
ATOM     13  C   UNL     1      43.892   2.939  11.085  0.00  0.00    +0.000 C 
ATOM     14  O   UNL     1      42.939   2.416  11.654  0.00  0.00    +0.000 OA
ATOM     15  H   UNL     1      44.099   1.455   9.711  0.00  0.00    +0.000 HD
ATOM     16  H   UNL     1      45.378   2.619   9.647  0.00  0.00    +0.000 HD
ENDBRANCH   4  13
ENDBRANCH   1   8
BRANCH   1  17
ATOM     17  C   UNL     1      47.968   8.098  14.456  0.00  0.00    +0.000 A 
ATOM     18  C   UNL     1      48.242   9.162  15.332  0.00  0.00    +0.000 A 
ATOM     19  C   UNL     1      48.806   8.943  16.586  0.00  0.00    +0.000 A 
ATOM     20  C   UNL     1      49.072   7.642  17.012  0.00  0.00    +0.000 A 
ATOM     21  C   UNL     1      48.792   6.539  16.189  0.00  0.00    +0.000 A 
ATOM     22  C   UNL     1      48.290   6.799  14.898  0.00  0.00    +0.000 A 
BRANCH  21  23
ATOM     23  C   UNL     1      48.917   5.152  16.682  0.00  0.00    +0.000 A 
ATOM     24  C   UNL     1      47.844   4.274  16.660  0.00  0.00    +0.000 A 
ATOM     25  C   UNL     1      48.091   2.983  17.067  0.00  0.00    +0.000 A 
ATOM     26  N   UNL     1      49.290   2.557  17.486  0.00  0.00    +0.000 NA
ATOM     27  C   UNL     1      50.265   3.478  17.474  0.00  0.00    +0.000 A 
ATOM     28  N   UNL     1      50.146   4.757  17.084  0.00  0.00    +0.000 NA
ENDBRANCH  21  23
ENDBRANCH   1  17
TORSDOF 4
ENDMDL
MODEL 5
REMARK VINA RESULT:    -6.594      2.991      7.563
REMARK INTER + INTRA:          -8.972
REMARK INTER:                  -9.016
REMARK INTRA:                   0.044
REMARK UNBOUND:                -0.837
REMARK  Name = 
REMARK  4 active torsions:
REMARK  status: ('A' for Active; 'I' for Inactive)
REMARK    1  A    between atoms: C_2  and  C_4
REMARK    2  A    between atoms: N_8  and  C_9
REMARK    3  A    between atoms: C_9  and  C_10
REMARK    4  A    between atoms: C_14  and  C_15
REMARK                            x       y       z     vdW  Elec       q    Type
REMARK                         _______ _______ _______ _____ _____    ______ ____
ROOT
ATOM      1  C   UNL     1      48.413   7.743  12.721  0.00  0.00    +0.000 C 
ATOM      2  C   UNL     1      49.589   7.142  11.959  0.00  0.00    +0.000 C 
ATOM      3  C   UNL     1      49.311   8.603  11.854  0.00  0.00    +0.000 C 
ENDROOT
BRANCH   1   8
ATOM      4  C   UNL     1      47.999   4.306  16.595  0.00  0.00    +0.000 A 
ATOM      5  C   UNL     1      47.173   4.460  15.484  0.00  0.00    +0.000 A 
ATOM      6  C   UNL     1      47.361   5.558  14.643  0.00  0.00    +0.000 A 
ATOM      7  C   UNL     1      48.358   6.483  14.929  0.00  0.00    +0.000 A 
ATOM      8  N   UNL     1      48.540   7.659  14.190  0.00  0.00    +0.000 N 
ATOM      9  N   UNL     1      49.158   6.349  16.008  0.00  0.00    +0.000 NA
ATOM     10  C   UNL     1      48.963   5.275  16.817  0.00  0.00    +0.000 A 
ATOM     11  H   UNL     1      49.378   8.090  14.581  0.00  0.00    +0.000 HD
BRANCH   4  13
ATOM     12  N   UNL     1      48.922   2.913  18.357  0.00  0.00    +0.000 N 
ATOM     13  C   UNL     1      47.856   3.189  17.549  0.00  0.00    +0.000 C 
ATOM     14  O   UNL     1      46.812   2.550  17.637  0.00  0.00    +0.000 OA
ATOM     15  H   UNL     1      48.781   2.209  19.070  0.00  0.00    +0.000 HD
ATOM     16  H   UNL     1      49.688   3.561  18.488  0.00  0.00    +0.000 HD
ENDBRANCH   4  13
ENDBRANCH   1   8
BRANCH   1  17
ATOM     17  C   UNL     1      46.995   7.454  12.232  0.00  0.00    +0.000 A 
ATOM     18  C   UNL     1      45.985   8.429  12.291  0.00  0.00    +0.000 A 
ATOM     19  C   UNL     1      44.725   8.202  11.742  0.00  0.00    +0.000 A 
ATOM     20  C   UNL     1      44.460   7.004  11.080  0.00  0.00    +0.000 A 
ATOM     21  C   UNL     1      45.442   6.006  10.966  0.00  0.00    +0.000 A 
ATOM     22  C   UNL     1      46.681   6.236  11.595  0.00  0.00    +0.000 A 
BRANCH  21  23
ATOM     23  C   UNL     1      45.232   4.803  10.135  0.00  0.00    +0.000 A 
ATOM     24  C   UNL     1      44.605   3.674  10.640  0.00  0.00    +0.000 A 
ATOM     25  C   UNL     1      44.389   2.640   9.758  0.00  0.00    +0.000 A 
ATOM     26  N   UNL     1      44.762   2.675   8.472  0.00  0.00    +0.000 NA
ATOM     27  C   UNL     1      45.362   3.806   8.077  0.00  0.00    +0.000 A 
ATOM     28  N   UNL     1      45.611   4.883   8.840  0.00  0.00    +0.000 NA
ENDBRANCH  21  23
ENDBRANCH   1  17
TORSDOF 4
ENDMDL
