MODEL 1
REMARK VINA RESULT:    -9.608      0.000      0.000
REMARK INTER + INTRA:         -13.420
REMARK INTER:                 -12.417
REMARK INTRA:                  -1.003
REMARK UNBOUND:                -1.003
REMARK  Name = 
REMARK  5 active torsions:
REMARK  status: ('A' for Active; 'I' for Inactive)
REMARK    1  A    between atoms: C_2  and  C_4
REMARK    2  A    between atoms: N_8  and  C_9
REMARK    3  A    between atoms: C_9  and  C_10
REMARK    4  A    between atoms: C_10  and  C_13
REMARK    5  A    between atoms: C_15  and  C_16
REMARK                            x       y       z     vdW  Elec       q    Type
REMARK                         _______ _______ _______ _____ _____    ______ ____
ROOT
ATOM      1  C   UNL     1      43.622   5.460  12.082  0.00  0.00    +0.000 C 
ATOM      2  F   UNL     1      42.997   6.592  11.628  0.00  0.00    +0.000 F 
ATOM      3  F   UNL     1      42.925   5.099  13.206  0.00  0.00    +0.000 F 
ENDROOT
BRANCH   1   4
ATOM      4  C   UNL     1      45.094   5.716  12.395  0.00  0.00    +0.000 A 
ATOM      5  C   UNL     1      45.613   5.283  13.618  0.00  0.00    +0.000 A 
ATOM      6  C   UNL     1      46.958   5.518  13.950  0.00  0.00    +0.000 A 
ATOM      7  C   UNL     1      47.733   6.202  13.006  0.00  0.00    +0.000 A 
ATOM      8  C   UNL     1      47.149   6.615  11.818  0.00  0.00    +0.000 A 
ATOM      9  N   UNL     1      45.857   6.393  11.496  0.00  0.00    +0.000 NA
BRANCH   6  10
ATOM     10  C   UNL     1      47.518   5.077  15.249  0.00  0.00    +0.000 A 
ATOM     11  C   UNL     1      48.540   5.797  15.887  0.00  0.00    +0.000 A 
ATOM     12  C   UNL     1      49.068   5.326  17.082  0.00  0.00    +0.000 A 
ATOM     13  N   UNL     1      48.644   4.207  17.698  0.00  0.00    +0.000 NA
ATOM     14  C   UNL     1      47.653   3.531  17.088  0.00  0.00    +0.000 A 
ATOM     15  F   UNL     1      47.212   2.410  17.678  0.00  0.00    +0.000 F 
ATOM     16  C   UNL     1      47.072   3.916  15.890  0.00  0.00    +0.000 A 
ENDBRANCH   6  10
ENDBRANCH   1   4
BRANCH   1  17
ATOM     17  C   UNL     1      43.452   4.352  11.020  0.00  0.00    +0.000 C 
BRANCH  17  22
ATOM     18  C   UNL     1      46.434   2.347   7.689  0.00  0.00    +0.000 A 
ATOM     19  C   UNL     1      45.539   1.866   8.611  0.00  0.00    +0.000 A 
ATOM     20  N   UNL     1      44.658   2.645   9.268  0.00  0.00    +0.000 NA
ATOM     21  C   UNL     1      44.678   3.963   9.003  0.00  0.00    +0.000 A 
ATOM     22  N   UNL     1      43.781   4.797   9.651  0.00  0.00    +0.000 N 
ATOM     23  N   UNL     1      45.529   4.532   8.139  0.00  0.00    +0.000 NA
ATOM     24  C   UNL     1      46.396   3.709   7.499  0.00  0.00    +0.000 A 
ATOM     25  H   UNL     1      44.126   5.748   9.571  0.00  0.00    +0.000 HD
BRANCH  18  27
ATOM     26  N   UNL     1      48.530   2.088   6.498  0.00  0.00    +0.000 N 
ATOM     27  C   UNL     1      47.390   1.497   6.976  0.00  0.00    +0.000 C 
ATOM     28  O   UNL     1      47.189   0.297   6.833  0.00  0.00    +0.000 OA
ATOM     29  H   UNL     1      49.220   1.468   6.088  0.00  0.00    +0.000 HD
ATOM     30  H   UNL     1      48.856   2.994   6.806  0.00  0.00    +0.000 HD
ENDBRANCH  18  27
ENDBRANCH  17  22
ENDBRANCH   1  17
TORSDOF 5
ENDMDL
MODEL 2
REMARK VINA RESULT:    -9.468      2.301      3.813
REMARK INTER + INTRA:         -13.239
REMARK INTER:                 -12.373
REMARK INTRA:                  -0.866
REMARK UNBOUND:                -1.003
REMARK  Name = 
REMARK  5 active torsions:
REMARK  status: ('A' for Active; 'I' for Inactive)
REMARK    1  A    between atoms: C_2  and  C_4
REMARK    2  A    between atoms: N_8  and  C_9
REMARK    3  A    between atoms: C_9  and  C_10
REMARK    4  A    between atoms: C_10  and  C_13
REMARK    5  A    between atoms: C_15  and  C_16
REMARK                            x       y       z     vdW  Elec       q    Type
REMARK                         _______ _______ _______ _____ _____    ______ ____
ROOT
ATOM      1  C   UNL     1      43.441   5.114  12.351  0.00  0.00    +0.000 C 
ATOM      2  F   UNL     1      42.878   6.284  11.913  0.00  0.00    +0.000 F 
ATOM      3  F   UNL     1      42.621   4.685  13.363  0.00  0.00    +0.000 F 
ENDROOT
BRANCH   1   4
ATOM      4  C   UNL     1      44.871   5.325  12.841  0.00  0.00    +0.000 A 
ATOM      5  C   UNL     1      45.583   6.443  12.398  0.00  0.00    +0.000 A 
ATOM      6  C   UNL     1      46.908   6.660  12.813  0.00  0.00    +0.000 A 
ATOM      7  C   UNL     1      47.466   5.708  13.675  0.00  0.00    +0.000 A 
ATOM      8  C   UNL     1      46.706   4.615  14.063  0.00  0.00    +0.000 A 
ATOM      9  N   UNL     1      45.434   4.402  13.667  0.00  0.00    +0.000 NA
BRANCH   6  10
ATOM     10  C   UNL     1      47.679   7.832  12.339  0.00  0.00    +0.000 A 
ATOM     11  C   UNL     1      47.123   9.121  12.333  0.00  0.00    +0.000 A 
ATOM     12  C   UNL     1      47.864  10.187  11.840  0.00  0.00    +0.000 A 
ATOM     13  N   UNL     1      49.120  10.071  11.370  0.00  0.00    +0.000 NA
ATOM     14  C   UNL     1      49.652   8.836  11.393  0.00  0.00    +0.000 A 
ATOM     15  F   UNL     1      50.901   8.689  10.928  0.00  0.00    +0.000 F 
ATOM     16  C   UNL     1      48.987   7.711  11.855  0.00  0.00    +0.000 A 
ENDBRANCH   6  10
ENDBRANCH   1   4
BRANCH   1  17
ATOM     17  C   UNL     1      43.381   4.085  11.201  0.00  0.00    +0.000 C 
BRANCH  17  22
ATOM     18  C   UNL     1      46.455   2.524   7.718  0.00  0.00    +0.000 A 
ATOM     19  C   UNL     1      45.582   1.922   8.589  0.00  0.00    +0.000 A 
ATOM     20  N   UNL     1      44.665   2.599   9.309  0.00  0.00    +0.000 NA
ATOM     21  C   UNL     1      44.626   3.934   9.164  0.00  0.00    +0.000 A 
ATOM     22  N   UNL     1      43.692   4.666   9.879  0.00  0.00    +0.000 N 
ATOM     23  N   UNL     1      45.452   4.617   8.358  0.00  0.00    +0.000 NA
ATOM     24  C   UNL     1      46.357   3.895   7.652  0.00  0.00    +0.000 A 
ATOM     25  H   UNL     1      43.994   5.635   9.886  0.00  0.00    +0.000 HD
BRANCH  18  27
ATOM     26  N   UNL     1      48.561   2.468   6.518  0.00  0.00    +0.000 N 
ATOM     27  C   UNL     1      47.450   1.785   6.937  0.00  0.00    +0.000 C 
ATOM     28  O   UNL     1      47.304   0.595   6.689  0.00  0.00    +0.000 OA
ATOM     29  H   UNL     1      49.279   1.919   6.058  0.00  0.00    +0.000 HD
ATOM     30  H   UNL     1      48.844   3.357   6.907  0.00  0.00    +0.000 HD
ENDBRANCH  18  27
ENDBRANCH  17  22
ENDBRANCH   1  17
TORSDOF 5
ENDMDL
MODEL 3
REMARK VINA RESULT:    -9.012      2.654      3.555
REMARK INTER + INTRA:         -12.650
REMARK INTER:                 -11.545
REMARK INTRA:                  -1.105
REMARK UNBOUND:                -1.003
REMARK  Name = 
REMARK  5 active torsions:
REMARK  status: ('A' for Active; 'I' for Inactive)
REMARK    1  A    between atoms: C_2  and  C_4
REMARK    2  A    between atoms: N_8  and  C_9
REMARK    3  A    between atoms: C_9  and  C_10
REMARK    4  A    between atoms: C_10  and  C_13
REMARK    5  A    between atoms: C_15  and  C_16
REMARK                            x       y       z     vdW  Elec       q    Type
REMARK                         _______ _______ _______ _____ _____    ______ ____
ROOT
ATOM      1  C   UNL     1      44.471   4.413  12.267  0.00  0.00    +0.000 C 
ATOM      2  F   UNL     1      43.867   4.253  13.486  0.00  0.00    +0.000 F 
ATOM      3  F   UNL     1      45.471   3.475  12.244  0.00  0.00    +0.000 F 
ENDROOT
BRANCH   1   4
ATOM      4  C   UNL     1      45.026   5.825  12.093  0.00  0.00    +0.000 A 
ATOM      5  C   UNL     1      46.391   6.047  12.291  0.00  0.00    +0.000 A 
ATOM      6  C   UNL     1      46.934   7.337  12.160  0.00  0.00    +0.000 A 
ATOM      7  C   UNL     1      46.045   8.367  11.829  0.00  0.00    +0.000 A 
ATOM      8  C   UNL     1      44.700   8.076  11.661  0.00  0.00    +0.000 A 
ATOM      9  N   UNL     1      44.174   6.840  11.788  0.00  0.00    +0.000 NA
BRANCH   6  10
ATOM     10  C   UNL     1      48.376   7.590  12.382  0.00  0.00    +0.000 A 
ATOM     11  C   UNL     1      48.903   7.737  13.674  0.00  0.00    +0.000 A 
ATOM     12  C   UNL     1      50.254   8.017  13.837  0.00  0.00    +0.000 A 
ATOM     13  N   UNL     1      51.120   8.143  12.816  0.00  0.00    +0.000 NA
ATOM     14  C   UNL     1      50.611   7.986  11.581  0.00  0.00    +0.000 A 
ATOM     15  F   UNL     1      51.451   8.109  10.542  0.00  0.00    +0.000 F 
ATOM     16  C   UNL     1      49.277   7.716  11.318  0.00  0.00    +0.000 A 
ENDBRANCH   6  10
ENDBRANCH   1   4
BRANCH   1  17
ATOM     17  C   UNL     1      43.445   4.066  11.166  0.00  0.00    +0.000 C 
BRANCH  17  22
ATOM     18  C   UNL     1      46.468   2.529   7.629  0.00  0.00    +0.000 A 
ATOM     19  C   UNL     1      45.585   1.924   8.488  0.00  0.00    +0.000 A 
ATOM     20  N   UNL     1      44.687   2.602   9.230  0.00  0.00    +0.000 NA
ATOM     21  C   UNL     1      44.677   3.941   9.119  0.00  0.00    +0.000 A 
ATOM     22  N   UNL     1      43.762   4.674   9.858  0.00  0.00    +0.000 N 
ATOM     23  N   UNL     1      45.513   4.626   8.327  0.00  0.00    +0.000 NA
ATOM     24  C   UNL     1      46.399   3.903   7.598  0.00  0.00    +0.000 A 
ATOM     25  H   UNL     1      44.085   5.636   9.889  0.00  0.00    +0.000 HD
BRANCH  18  27
ATOM     26  N   UNL     1      48.576   2.452   6.435  0.00  0.00    +0.000 N 
ATOM     27  C   UNL     1      47.442   1.789   6.823  0.00  0.00    +0.000 C 
ATOM     28  O   UNL     1      47.260   0.615   6.529  0.00  0.00    +0.000 OA
ATOM     29  H   UNL     1      49.278   1.898   5.956  0.00  0.00    +0.000 HD
ATOM     30  H   UNL     1      48.886   3.316   6.858  0.00  0.00    +0.000 HD
ENDBRANCH  18  27
ENDBRANCH  17  22
ENDBRANCH   1  17
TORSDOF 5
ENDMDL
MODEL 4
REMARK VINA RESULT:    -8.908      2.431      2.948
REMARK INTER + INTRA:         -12.515
REMARK INTER:                 -11.486
REMARK INTRA:                  -1.028
REMARK UNBOUND:                -1.003
REMARK  Name = 
REMARK  5 active torsions:
REMARK  status: ('A' for Active; 'I' for Inactive)
REMARK    1  A    between atoms: C_2  and  C_4
REMARK    2  A    between atoms: N_8  and  C_9
REMARK    3  A    between atoms: C_9  and  C_10
REMARK    4  A    between atoms: C_10  and  C_13
REMARK    5  A    between atoms: C_15  and  C_16
REMARK                            x       y       z     vdW  Elec       q    Type
REMARK                         _______ _______ _______ _____ _____    ______ ____
ROOT
ATOM      1  C   UNL     1      44.300   4.475  12.250  0.00  0.00    +0.000 C 
ATOM      2  F   UNL     1      43.580   4.341  13.408  0.00  0.00    +0.000 F 
ATOM      3  F   UNL     1      45.288   3.529  12.338  0.00  0.00    +0.000 F 
ENDROOT
BRANCH   1   4
ATOM      4  C   UNL     1      44.882   5.879  12.107  0.00  0.00    +0.000 A 
ATOM      5  C   UNL     1      46.204   6.109  12.497  0.00  0.00    +0.000 A 
ATOM      6  C   UNL     1      46.768   7.393  12.398  0.00  0.00    +0.000 A 
ATOM      7  C   UNL     1      45.944   8.409  11.901  0.00  0.00    +0.000 A 
ATOM      8  C   UNL     1      44.637   8.112  11.545  0.00  0.00    +0.000 A 
ATOM      9  N   UNL     1      44.091   6.882  11.640  0.00  0.00    +0.000 NA
BRANCH   6  10
ATOM     10  C   UNL     1      48.162   7.654  12.823  0.00  0.00    +0.000 A 
ATOM     11  C   UNL     1      49.035   8.422  12.036  0.00  0.00    +0.000 A 
ATOM     12  C   UNL     1      50.348   8.607  12.448  0.00  0.00    +0.000 A 
ATOM     13  N   UNL     1      50.853   8.103  13.589  0.00  0.00    +0.000 NA
ATOM     14  C   UNL     1      50.006   7.381  14.346  0.00  0.00    +0.000 A 
ATOM     15  F   UNL     1      50.481   6.863  15.488  0.00  0.00    +0.000 F 
ATOM     16  C   UNL     1      48.683   7.133  14.013  0.00  0.00    +0.000 A 
ENDBRANCH   6  10
ENDBRANCH   1   4
BRANCH   1  17
ATOM     17  C   UNL     1      43.381   4.118  11.062  0.00  0.00    +0.000 C 
BRANCH  17  22
ATOM     18  C   UNL     1      46.528   2.548   7.650  0.00  0.00    +0.000 A 
ATOM     19  C   UNL     1      45.575   1.958   8.442  0.00  0.00    +0.000 A 
ATOM     20  N   UNL     1      44.666   2.654   9.154  0.00  0.00    +0.000 NA
ATOM     21  C   UNL     1      44.717   3.995   9.082  0.00  0.00    +0.000 A 
ATOM     22  N   UNL     1      43.795   4.746   9.791  0.00  0.00    +0.000 N 
ATOM     23  N   UNL     1      45.624   4.664   8.357  0.00  0.00    +0.000 NA
ATOM     24  C   UNL     1      46.518   3.923   7.656  0.00  0.00    +0.000 A 
ATOM     25  H   UNL     1      44.155   5.692   9.868  0.00  0.00    +0.000 HD
BRANCH  18  27
ATOM     26  N   UNL     1      48.592   2.471   6.382  0.00  0.00    +0.000 N 
ATOM     27  C   UNL     1      47.513   1.788   6.877  0.00  0.00    +0.000 C 
ATOM     28  O   UNL     1      47.390   0.583   6.702  0.00  0.00    +0.000 OA
ATOM     29  H   UNL     1      49.308   1.914   5.928  0.00  0.00    +0.000 HD
ATOM     30  H   UNL     1      48.866   3.388   6.709  0.00  0.00    +0.000 HD
ENDBRANCH  18  27
ENDBRANCH  17  22
ENDBRANCH   1  17
TORSDOF 5
ENDMDL
MODEL 5
REMARK VINA RESULT:    -8.281      3.354      8.281
REMARK INTER + INTRA:         -11.704
REMARK INTER:                 -10.833
REMARK INTRA:                  -0.872
REMARK UNBOUND:                -1.003
REMARK  Name = 
REMARK  5 active torsions:
REMARK  status: ('A' for Active; 'I' for Inactive)
REMARK    1  A    between atoms: C_2  and  C_4
REMARK    2  A    between atoms: N_8  and  C_9
REMARK    3  A    between atoms: C_9  and  C_10
REMARK    4  A    between atoms: C_10  and  C_13
REMARK    5  A    between atoms: C_15  and  C_16
REMARK                            x       y       z     vdW  Elec       q    Type
REMARK                         _______ _______ _______ _____ _____    ______ ____
ROOT
ATOM      1  C   UNL     1      45.516   6.013  12.156  0.00  0.00    +0.000 C 
ATOM      2  F   UNL     1      44.525   6.695  12.811  0.00  0.00    +0.000 F 
ATOM      3  F   UNL     1      46.016   6.906  11.244  0.00  0.00    +0.000 F 
ENDROOT
BRANCH   1   4
ATOM      4  C   UNL     1      44.980   4.757  11.473  0.00  0.00    +0.000 A 
ATOM      5  C   UNL     1      45.620   4.284  10.324  0.00  0.00    +0.000 A 
ATOM      6  C   UNL     1      45.143   3.143   9.656  0.00  0.00    +0.000 A 
ATOM      7  C   UNL     1      44.009   2.522  10.195  0.00  0.00    +0.000 A 
ATOM      8  C   UNL     1      43.417   3.054  11.330  0.00  0.00    +0.000 A 
ATOM      9  N   UNL     1      43.871   4.150  11.973  0.00  0.00    +0.000 NA
BRANCH   6  10
ATOM     10  C   UNL     1      45.801   2.639   8.429  0.00  0.00    +0.000 A 
ATOM     11  C   UNL     1      46.251   1.313   8.332  0.00  0.00    +0.000 A 
ATOM     12  C   UNL     1      46.903   0.892   7.180  0.00  0.00    +0.000 A 
ATOM     13  N   UNL     1      47.125   1.682   6.114  0.00  0.00    +0.000 NA
ATOM     14  C   UNL     1      46.678   2.948   6.209  0.00  0.00    +0.000 A 
ATOM     15  F   UNL     1      46.887   3.760   5.163  0.00  0.00    +0.000 F 
ATOM     16  C   UNL     1      46.027   3.461   7.319  0.00  0.00    +0.000 A 
ENDBRANCH   6  10
ENDBRANCH   1   4
BRANCH   1  17
ATOM     17  C   UNL     1      46.628   5.674  13.174  0.00  0.00    +0.000 C 
BRANCH  17  22
ATOM     18  C   UNL     1      48.603   4.034  17.347  0.00  0.00    +0.000 A 
ATOM     19  C   UNL     1      48.177   5.254  16.883  0.00  0.00    +0.000 A 
ATOM     20  N   UNL     1      47.448   5.408  15.760  0.00  0.00    +0.000 NA
ATOM     21  C   UNL     1      47.142   4.301  15.063  0.00  0.00    +0.000 A 
ATOM     22  N   UNL     1      46.386   4.416  13.908  0.00  0.00    +0.000 N 
ATOM     23  N   UNL     1      47.531   3.069  15.420  0.00  0.00    +0.000 NA
ATOM     24  C   UNL     1      48.261   2.961  16.558  0.00  0.00    +0.000 A 
ATOM     25  H   UNL     1      46.508   3.564  13.370  0.00  0.00    +0.000 HD
BRANCH  18  27
ATOM     26  N   UNL     1      48.727   3.531  19.715  0.00  0.00    +0.000 N 
ATOM     27  C   UNL     1      49.395   3.870  18.569  0.00  0.00    +0.000 C 
ATOM     28  O   UNL     1      50.611   4.008  18.560  0.00  0.00    +0.000 OA
ATOM     29  H   UNL     1      49.300   3.334  20.528  0.00  0.00    +0.000 HD
ATOM     30  H   UNL     1      47.785   3.162  19.720  0.00  0.00    +0.000 HD
ENDBRANCH  18  27
ENDBRANCH  17  22
ENDBRANCH   1  17
TORSDOF 5
ENDMDL
MODEL 6
REMARK VINA RESULT:    -7.725      3.134      7.488
REMARK INTER + INTRA:         -10.986
REMARK INTER:                 -10.205
REMARK INTRA:                  -0.781
REMARK UNBOUND:                -1.003
REMARK  Name = 
REMARK  5 active torsions:
REMARK  status: ('A' for Active; 'I' for Inactive)
REMARK    1  A    between atoms: C_2  and  C_4
REMARK    2  A    between atoms: N_8  and  C_9
REMARK    3  A    between atoms: C_9  and  C_10
REMARK    4  A    between atoms: C_10  and  C_13
REMARK    5  A    between atoms: C_15  and  C_16
REMARK                            x       y       z     vdW  Elec       q    Type
REMARK                         _______ _______ _______ _____ _____    ______ ____
ROOT
ATOM      1  C   UNL     1      46.023   7.541  11.716  0.00  0.00    +0.000 C 
ATOM      2  F   UNL     1      45.492   8.752  11.359  0.00  0.00    +0.000 F 
ATOM      3  F   UNL     1      47.302   7.556  11.220  0.00  0.00    +0.000 F 
ENDROOT
BRANCH   1   4
ATOM      4  C   UNL     1      45.215   6.379  11.141  0.00  0.00    +0.000 A 
ATOM      5  C   UNL     1      45.824   5.516  10.226  0.00  0.00    +0.000 A 
ATOM      6  C   UNL     1      45.105   4.448   9.662  0.00  0.00    +0.000 A 
ATOM      7  C   UNL     1      43.770   4.304  10.057  0.00  0.00    +0.000 A 
ATOM      8  C   UNL     1      43.227   5.206  10.959  0.00  0.00    +0.000 A 
ATOM      9  N   UNL     1      43.912   6.233  11.502  0.00  0.00    +0.000 NA
BRANCH   6  10
ATOM     10  C   UNL     1      45.733   3.534   8.679  0.00  0.00    +0.000 A 
ATOM     11  C   UNL     1      46.385   4.024   7.537  0.00  0.00    +0.000 A 
ATOM     12  C   UNL     1      46.922   3.132   6.618  0.00  0.00    +0.000 A 
ATOM     13  N   UNL     1      46.876   1.795   6.757  0.00  0.00    +0.000 NA
ATOM     14  C   UNL     1      46.262   1.333   7.862  0.00  0.00    +0.000 A 
ATOM     15  F   UNL     1      46.197   0.004   8.027  0.00  0.00    +0.000 F 
ATOM     16  C   UNL     1      45.687   2.143   8.829  0.00  0.00    +0.000 A 
ENDBRANCH   6  10
ENDBRANCH   1   4
BRANCH   1  17
ATOM     17  C   UNL     1      46.094   7.475  13.257  0.00  0.00    +0.000 C 
BRANCH  17  22
ATOM     18  C   UNL     1      48.024   3.984  16.103  0.00  0.00    +0.000 A 
ATOM     19  C   UNL     1      47.130   4.010  15.062  0.00  0.00    +0.000 A 
ATOM     20  N   UNL     1      46.929   5.090  14.282  0.00  0.00    +0.000 NA
ATOM     21  C   UNL     1      47.640   6.196  14.559  0.00  0.00    +0.000 A 
ATOM     22  N   UNL     1      47.469   7.325  13.774  0.00  0.00    +0.000 N 
ATOM     23  N   UNL     1      48.519   6.279  15.567  0.00  0.00    +0.000 NA
ATOM     24  C   UNL     1      48.691   5.167  16.325  0.00  0.00    +0.000 A 
ATOM     25  H   UNL     1      47.833   8.120  14.289  0.00  0.00    +0.000 HD
BRANCH  18  27
ATOM     26  N   UNL     1      47.632   2.789  18.175  0.00  0.00    +0.000 N 
ATOM     27  C   UNL     1      48.241   2.808  16.948  0.00  0.00    +0.000 C 
ATOM     28  O   UNL     1      48.922   1.867  16.563  0.00  0.00    +0.000 OA
ATOM     29  H   UNL     1      47.719   1.930  18.707  0.00  0.00    +0.000 HD
ATOM     30  H   UNL     1      46.872   3.407  18.426  0.00  0.00    +0.000 HD
ENDBRANCH  18  27
ENDBRANCH  17  22
ENDBRANCH   1  17
TORSDOF 5
ENDMDL
MODEL 7
REMARK VINA RESULT:    -7.656      3.602      7.858
REMARK INTER + INTRA:         -10.898
REMARK INTER:                 -10.084
REMARK INTRA:                  -0.814
REMARK UNBOUND:                -1.003
REMARK  Name = 
REMARK  5 active torsions:
REMARK  status: ('A' for Active; 'I' for Inactive)
REMARK    1  A    between atoms: C_2  and  C_4
REMARK    2  A    between atoms: N_8  and  C_9
REMARK    3  A    between atoms: C_9  and  C_10
REMARK    4  A    between atoms: C_10  and  C_13
REMARK    5  A    between atoms: C_15  and  C_16
REMARK                            x       y       z     vdW  Elec       q    Type
REMARK                         _______ _______ _______ _____ _____    ______ ____
ROOT
ATOM      1  C   UNL     1      48.805   8.041  12.454  0.00  0.00    +0.000 C 
ATOM      2  F   UNL     1      49.311   9.101  11.748  0.00  0.00    +0.000 F 
ATOM      3  F   UNL     1      49.582   6.971  12.090  0.00  0.00    +0.000 F 
ENDROOT
BRANCH   1   4
ATOM      4  C   UNL     1      47.333   7.798  12.129  0.00  0.00    +0.000 A 
ATOM      5  C   UNL     1      46.968   6.622  11.468  0.00  0.00    +0.000 A 
ATOM      6  C   UNL     1      45.626   6.374  11.135  0.00  0.00    +0.000 A 
ATOM      7  C   UNL     1      44.692   7.355  11.493  0.00  0.00    +0.000 A 
ATOM      8  C   UNL     1      45.127   8.503  12.135  0.00  0.00    +0.000 A 
ATOM      9  N   UNL     1      46.415   8.747  12.455  0.00  0.00    +0.000 NA
BRANCH   6  10
ATOM     10  C   UNL     1      45.227   5.139  10.421  0.00  0.00    +0.000 A 
ATOM     11  C   UNL     1      44.508   4.120  11.066  0.00  0.00    +0.000 A 
ATOM     12  C   UNL     1      44.192   2.959  10.372  0.00  0.00    +0.000 A 
ATOM     13  N   UNL     1      44.520   2.742   9.085  0.00  0.00    +0.000 NA
ATOM     14  C   UNL     1      45.196   3.730   8.470  0.00  0.00    +0.000 A 
ATOM     15  F   UNL     1      45.539   3.541   7.187  0.00  0.00    +0.000 F 
ATOM     16  C   UNL     1      45.565   4.918   9.081  0.00  0.00    +0.000 A 
ENDBRANCH   6  10
ENDBRANCH   1   4
BRANCH   1  17
ATOM     17  C   UNL     1      49.016   8.314  13.959  0.00  0.00    +0.000 C 
BRANCH  17  22
ATOM     18  C   UNL     1      48.238   4.479  16.908  0.00  0.00    +0.000 A 
ATOM     19  C   UNL     1      47.623   4.993  15.794  0.00  0.00    +0.000 A 
ATOM     20  N   UNL     1      48.172   5.947  15.016  0.00  0.00    +0.000 NA
ATOM     21  C   UNL     1      49.379   6.417  15.370  0.00  0.00    +0.000 A 
ATOM     22  N   UNL     1      49.981   7.392  14.592  0.00  0.00    +0.000 N 
ATOM     23  N   UNL     1      50.049   5.998  16.452  0.00  0.00    +0.000 NA
ATOM     24  C   UNL     1      49.460   5.036  17.205  0.00  0.00    +0.000 A 
ATOM     25  H   UNL     1      50.707   7.832  15.148  0.00  0.00    +0.000 HD
BRANCH  18  27
ATOM     26  N   UNL     1      48.312   3.084  18.889  0.00  0.00    +0.000 N 
ATOM     27  C   UNL     1      47.639   3.441  17.751  0.00  0.00    +0.000 C 
ATOM     28  O   UNL     1      46.565   2.930  17.461  0.00  0.00    +0.000 OA
ATOM     29  H   UNL     1      47.840   2.431  19.505  0.00  0.00    +0.000 HD
ATOM     30  H   UNL     1      49.050   3.643  19.296  0.00  0.00    +0.000 HD
ENDBRANCH  18  27
ENDBRANCH  17  22
ENDBRANCH   1  17
TORSDOF 5
ENDMDL
MODEL 8
REMARK VINA RESULT:    -7.377      3.384      7.988
REMARK INTER + INTRA:         -10.536
REMARK INTER:                  -9.654
REMARK INTRA:                  -0.882
REMARK UNBOUND:                -1.003
REMARK  Name = 
REMARK  5 active torsions:
REMARK  status: ('A' for Active; 'I' for Inactive)
REMARK    1  A    between atoms: C_2  and  C_4
REMARK    2  A    between atoms: N_8  and  C_9
REMARK    3  A    between atoms: C_9  and  C_10
REMARK    4  A    between atoms: C_10  and  C_13
REMARK    5  A    between atoms: C_15  and  C_16
REMARK                            x       y       z     vdW  Elec       q    Type
REMARK                         _______ _______ _______ _____ _____    ______ ____
ROOT
ATOM      1  C   UNL     1      43.882   3.897  12.498  0.00  0.00    +0.000 C 
ATOM      2  F   UNL     1      43.630   2.550  12.487  0.00  0.00    +0.000 F 
ATOM      3  F   UNL     1      42.651   4.485  12.640  0.00  0.00    +0.000 F 
ENDROOT
BRANCH   1   4
ATOM      4  C   UNL     1      44.573   4.352  11.214  0.00  0.00    +0.000 A 
ATOM      5  C   UNL     1      45.031   3.389  10.312  0.00  0.00    +0.000 A 
ATOM      6  C   UNL     1      45.690   3.769   9.130  0.00  0.00    +0.000 A 
ATOM      7  C   UNL     1      45.861   5.142   8.915  0.00  0.00    +0.000 A 
ATOM      8  C   UNL     1      45.393   6.042   9.860  0.00  0.00    +0.000 A 
ATOM      9  N   UNL     1      44.762   5.681  10.996  0.00  0.00    +0.000 NA
BRANCH   6  10
ATOM     10  C   UNL     1      46.194   2.759   8.172  0.00  0.00    +0.000 A 
ATOM     11  C   UNL     1      46.090   1.384   8.436  0.00  0.00    +0.000 A 
ATOM     12  C   UNL     1      46.615   0.470   7.531  0.00  0.00    +0.000 A 
ATOM     13  N   UNL     1      47.217   0.818   6.379  0.00  0.00    +0.000 NA
ATOM     14  C   UNL     1      47.299   2.137   6.126  0.00  0.00    +0.000 A 
ATOM     15  F   UNL     1      47.897   2.514   4.986  0.00  0.00    +0.000 F 
ATOM     16  C   UNL     1      46.815   3.123   6.972  0.00  0.00    +0.000 A 
ENDBRANCH   6  10
ENDBRANCH   1   4
BRANCH   1  17
ATOM     17  C   UNL     1      44.730   4.224  13.746  0.00  0.00    +0.000 C 
BRANCH  17  22
ATOM     18  C   UNL     1      48.544   5.112  16.692  0.00  0.00    +0.000 A 
ATOM     19  C   UNL     1      47.562   4.155  16.630  0.00  0.00    +0.000 A 
ATOM     20  N   UNL     1      46.744   3.997  15.570  0.00  0.00    +0.000 NA
ATOM     21  C   UNL     1      46.904   4.837  14.534  0.00  0.00    +0.000 A 
ATOM     22  N   UNL     1      46.090   4.702  13.421  0.00  0.00    +0.000 N 
ATOM     23  N   UNL     1      47.817   5.818  14.509  0.00  0.00    +0.000 NA
ATOM     24  C   UNL     1      48.619   5.938  15.595  0.00  0.00    +0.000 A 
ATOM     25  H   UNL     1      46.135   5.568  12.894  0.00  0.00    +0.000 HD
BRANCH  18  27
ATOM     26  N   UNL     1      48.902   5.848  18.974  0.00  0.00    +0.000 N 
ATOM     27  C   UNL     1      49.431   5.280  17.845  0.00  0.00    +0.000 C 
ATOM     28  O   UNL     1      50.596   4.904  17.809  0.00  0.00    +0.000 OA
ATOM     29  H   UNL     1      49.505   5.873  19.789  0.00  0.00    +0.000 HD
ATOM     30  H   UNL     1      47.909   5.934  19.137  0.00  0.00    +0.000 HD
ENDBRANCH  18  27
ENDBRANCH  17  22
ENDBRANCH   1  17
TORSDOF 5
ENDMDL
MODEL 9
REMARK VINA RESULT:    -7.347      3.567      5.951
REMARK INTER + INTRA:         -10.498
REMARK INTER:                  -9.691
REMARK INTRA:                  -0.807
REMARK UNBOUND:                -1.003
REMARK  Name = 
REMARK  5 active torsions:
REMARK  status: ('A' for Active; 'I' for Inactive)
REMARK    1  A    between atoms: C_2  and  C_4
REMARK    2  A    between atoms: N_8  and  C_9
REMARK    3  A    between atoms: C_9  and  C_10
REMARK    4  A    between atoms: C_10  and  C_13
REMARK    5  A    between atoms: C_15  and  C_16
REMARK                            x       y       z     vdW  Elec       q    Type
REMARK                         _______ _______ _______ _____ _____    ______ ____
ROOT
ATOM      1  C   UNL     1      47.585   3.851  17.039  0.00  0.00    +0.000 C 
ATOM      2  F   UNL     1      46.746   4.685  17.730  0.00  0.00    +0.000 F 
ATOM      3  F   UNL     1      47.422   2.622  17.625  0.00  0.00    +0.000 F 
ENDROOT
BRANCH   1   4
ATOM      4  C   UNL     1      49.036   4.320  17.117  0.00  0.00    +0.000 A 
ATOM      5  C   UNL     1      50.009   3.439  17.597  0.00  0.00    +0.000 A 
ATOM      6  C   UNL     1      51.351   3.842  17.702  0.00  0.00    +0.000 A 
ATOM      7  C   UNL     1      51.652   5.152  17.310  0.00  0.00    +0.000 A 
ATOM      8  C   UNL     1      50.634   5.975  16.855  0.00  0.00    +0.000 A 
ATOM      9  N   UNL     1      49.344   5.594  16.755  0.00  0.00    +0.000 NA
BRANCH   6  10
ATOM     10  C   UNL     1      52.390   2.924  18.224  0.00  0.00    +0.000 A 
ATOM     11  C   UNL     1      53.298   3.332  19.214  0.00  0.00    +0.000 A 
ATOM     12  C   UNL     1      54.285   2.455  19.644  0.00  0.00    +0.000 A 
ATOM     13  N   UNL     1      54.426   1.201  19.179  0.00  0.00    +0.000 NA
ATOM     14  C   UNL     1      53.543   0.811  18.241  0.00  0.00    +0.000 A 
ATOM     15  F   UNL     1      53.661  -0.434  17.756  0.00  0.00    +0.000 F 
ATOM     16  C   UNL     1      52.532   1.617  17.742  0.00  0.00    +0.000 A 
ENDBRANCH   6  10
ENDBRANCH   1   4
BRANCH   1  17
ATOM     17  C   UNL     1      47.093   3.768  15.577  0.00  0.00    +0.000 C 
BRANCH  17  22
ATOM     18  C   UNL     1      45.509   4.916  11.085  0.00  0.00    +0.000 A 
ATOM     19  C   UNL     1      45.267   3.899  11.973  0.00  0.00    +0.000 A 
ATOM     20  N   UNL     1      45.662   3.927  13.261  0.00  0.00    +0.000 NA
ATOM     21  C   UNL     1      46.338   5.011  13.678  0.00  0.00    +0.000 A 
ATOM     22  N   UNL     1      46.754   5.084  14.998  0.00  0.00    +0.000 N 
ATOM     23  N   UNL     1      46.644   6.045  12.882  0.00  0.00    +0.000 NA
ATOM     24  C   UNL     1      46.225   5.974  11.595  0.00  0.00    +0.000 A 
ATOM     25  H   UNL     1      47.482   5.789  15.057  0.00  0.00    +0.000 HD
BRANCH  18  27
ATOM     26  N   UNL     1      43.778   4.529   9.433  0.00  0.00    +0.000 N 
ATOM     27  C   UNL     1      45.077   4.882   9.686  0.00  0.00    +0.000 C 
ATOM     28  O   UNL     1      45.842   5.181   8.778  0.00  0.00    +0.000 OA
ATOM     29  H   UNL     1      43.472   4.598   8.468  0.00  0.00    +0.000 HD
ATOM     30  H   UNL     1      43.056   4.525  10.141  0.00  0.00    +0.000 HD
ENDBRANCH  18  27
ENDBRANCH  17  22
ENDBRANCH   1  17
TORSDOF 5
ENDMDL
