MODEL 1
REMARK VINA RESULT:    -9.293      0.000      0.000
REMARK INTER + INTRA:         -12.701
REMARK INTER:                 -12.010
REMARK INTRA:                  -0.691
REMARK UNBOUND:                -0.691
REMARK  Name = 
REMARK  5 active torsions:
REMARK  status: ('A' for Active; 'I' for Inactive)
REMARK    1  A    between atoms: C_2  and  C_3
REMARK    2  A    between atoms: C_11  and  C_12
REMARK    3  A    between atoms: C_12  and  N_13
REMARK    4  A    between atoms: N_13  and  C_14
REMARK    5  A    between atoms: C_17  and  C_18
REMARK                            x       y       z     vdW  Elec       q    Type
REMARK                         _______ _______ _______ _____ _____    ______ ____
ROOT
ATOM      1  C   UNL     1      43.826   4.733  11.404  0.00  0.00    +0.000 C 
ATOM      2  C   UNL     1      43.117   6.032  11.076  0.00  0.00    +0.000 C 
ATOM      3  C   UNL     1      42.521   5.134  12.107  0.00  0.00    +0.000 C 
ENDROOT
BRANCH   1  12
ATOM      4  C   UNL     1      49.197   9.129  12.195  0.00  0.00    +0.000 C 
ATOM      5  C   UNL     1      47.666   9.144  12.096  0.00  0.00    +0.000 C 
ATOM      6  C   UNL     1      47.002   8.382  13.240  0.00  0.00    +0.000 C 
ATOM      7  N   UNL     1      47.606   7.060  13.408  0.00  0.00    +0.000 N 
ATOM      8  C   UNL     1      46.840   5.922  13.255  0.00  0.00    +0.000 A 
ATOM      9  C   UNL     1      47.156   4.745  13.923  0.00  0.00    +0.000 A 
ATOM     10  N   UNL     1      46.483   3.597  13.742  0.00  0.00    +0.000 NA
ATOM     11  N   UNL     1      45.447   3.617  12.893  0.00  0.00    +0.000 NA
ATOM     12  C   UNL     1      45.085   4.782  12.288  0.00  0.00    +0.000 A 
ATOM     13  N   UNL     1      45.763   5.945  12.448  0.00  0.00    +0.000 NA
ATOM     14  C   UNL     1      49.055   6.965  13.504  0.00  0.00    +0.000 C 
ATOM     15  C   UNL     1      49.707   7.694  12.330  0.00  0.00    +0.000 C 
BRANCH   4  17
ATOM     16  N   UNL     1      50.042  10.596  14.213  0.00  0.00    +0.000 NA
ATOM     17  C   UNL     1      49.672   9.963  13.319  0.00  0.00    +0.000 C 
ENDBRANCH   4  17
ENDBRANCH   1  12
BRANCH   1  18
ATOM     18  N   UNL     1      43.688   3.501  10.577  0.00  0.00    +0.000 N 
ATOM     19  H   UNL     1      43.456   2.685  11.144  0.00  0.00    +0.000 HD
BRANCH  18  20
ATOM     20  C   UNL     1      44.534   3.138   9.511  0.00  0.00    +0.000 A 
ATOM     21  C   UNL     1      44.999   1.845   9.273  0.00  0.00    +0.000 A 
ATOM     22  C   UNL     1      45.948   1.601   8.265  0.00  0.00    +0.000 A 
ATOM     23  C   UNL     1      46.449   2.652   7.487  0.00  0.00    +0.000 A 
ATOM     24  C   UNL     1      46.000   3.951   7.723  0.00  0.00    +0.000 A 
ATOM     25  C   UNL     1      45.066   4.184   8.735  0.00  0.00    +0.000 A 
BRANCH  23  26
ATOM     26  C   UNL     1      47.497   2.364   6.470  0.00  0.00    +0.000 C 
ATOM     27  N   UNL     1      47.523   3.145   5.346  0.00  0.00    +0.000 N 
ATOM     28  O   UNL     1      48.302   1.455   6.619  0.00  0.00    +0.000 OA
ATOM     29  H   UNL     1      46.791   3.793   5.096  0.00  0.00    +0.000 HD
ATOM     30  H   UNL     1      48.209   2.908   4.642  0.00  0.00    +0.000 HD
ENDBRANCH  23  26
ENDBRANCH  18  20
ENDBRANCH   1  18
TORSDOF 5
ENDMDL
MODEL 2
REMARK VINA RESULT:    -8.202      2.231      3.524
REMARK INTER + INTRA:         -11.291
REMARK INTER:                 -11.484
REMARK INTRA:                   0.193
REMARK UNBOUND:                -0.691
REMARK  Name = 
REMARK  5 active torsions:
REMARK  status: ('A' for Active; 'I' for Inactive)
REMARK    1  A    between atoms: C_2  and  C_3
REMARK    2  A    between atoms: C_11  and  C_12
REMARK    3  A    between atoms: C_12  and  N_13
REMARK    4  A    between atoms: N_13  and  C_14
REMARK    5  A    between atoms: C_17  and  C_18
REMARK                            x       y       z     vdW  Elec       q    Type
REMARK                         _______ _______ _______ _____ _____    ______ ____
ROOT
ATOM      1  C   UNL     1      44.145   4.837  11.838  0.00  0.00    +0.000 C 
ATOM      2  C   UNL     1      42.997   4.838  12.829  0.00  0.00    +0.000 C 
ATOM      3  C   UNL     1      43.704   3.554  12.557  0.00  0.00    +0.000 C 
ENDROOT
BRANCH   1  12
ATOM      4  C   UNL     1      47.753   4.997  17.818  0.00  0.00    +0.000 C 
ATOM      5  C   UNL     1      46.970   4.013  16.940  0.00  0.00    +0.000 C 
ATOM      6  C   UNL     1      47.599   3.837  15.560  0.00  0.00    +0.000 C 
ATOM      7  N   UNL     1      47.883   5.135  14.946  0.00  0.00    +0.000 N 
ATOM      8  C   UNL     1      47.279   5.488  13.756  0.00  0.00    +0.000 A 
ATOM      9  C   UNL     1      47.890   6.368  12.871  0.00  0.00    +0.000 A 
ATOM     10  N   UNL     1      47.303   6.796  11.741  0.00  0.00    +0.000 NA
ATOM     11  N   UNL     1      46.082   6.319  11.463  0.00  0.00    +0.000 NA
ATOM     12  C   UNL     1      45.505   5.401  12.287  0.00  0.00    +0.000 A 
ATOM     13  N   UNL     1      46.077   4.971  13.438  0.00  0.00    +0.000 NA
ATOM     14  C   UNL     1      48.618   6.124  15.721  0.00  0.00    +0.000 C 
ATOM     15  C   UNL     1      47.953   6.323  17.083  0.00  0.00    +0.000 C 
BRANCH   4  17
ATOM     16  N   UNL     1      50.074   4.006  18.571  0.00  0.00    +0.000 NA
ATOM     17  C   UNL     1      49.050   4.428  18.239  0.00  0.00    +0.000 C 
ENDBRANCH   4  17
ENDBRANCH   1  12
BRANCH   1  18
ATOM     18  N   UNL     1      43.946   4.778  10.363  0.00  0.00    +0.000 N 
ATOM     19  H   UNL     1      42.958   4.782  10.111  0.00  0.00    +0.000 HD
BRANCH  18  20
ATOM     20  C   UNL     1      44.680   3.969   9.475  0.00  0.00    +0.000 A 
ATOM     21  C   UNL     1      44.769   2.579   9.559  0.00  0.00    +0.000 A 
ATOM     22  C   UNL     1      45.635   1.865   8.712  0.00  0.00    +0.000 A 
ATOM     23  C   UNL     1      46.428   2.537   7.774  0.00  0.00    +0.000 A 
ATOM     24  C   UNL     1      46.357   3.926   7.688  0.00  0.00    +0.000 A 
ATOM     25  C   UNL     1      45.502   4.627   8.543  0.00  0.00    +0.000 A 
BRANCH  23  26
ATOM     26  C   UNL     1      47.377   1.753   6.936  0.00  0.00    +0.000 C 
ATOM     27  N   UNL     1      48.502   2.391   6.485  0.00  0.00    +0.000 N 
ATOM     28  O   UNL     1      47.162   0.584   6.645  0.00  0.00    +0.000 OA
ATOM     29  H   UNL     1      48.647   3.387   6.554  0.00  0.00    +0.000 HD
ATOM     30  H   UNL     1      49.113   1.862   5.878  0.00  0.00    +0.000 HD
ENDBRANCH  23  26
ENDBRANCH  18  20
ENDBRANCH   1  18
TORSDOF 5
ENDMDL
MODEL 3
REMARK VINA RESULT:    -7.531      1.581      2.675
REMARK INTER + INTRA:         -10.423
REMARK INTER:                 -10.473
REMARK INTRA:                   0.049
REMARK UNBOUND:                -0.691
REMARK  Name = 
REMARK  5 active torsions:
REMARK  status: ('A' for Active; 'I' for Inactive)
REMARK    1  A    between atoms: C_2  and  C_3
REMARK    2  A    between atoms: C_11  and  C_12
REMARK    3  A    between atoms: C_12  and  N_13
REMARK    4  A    between atoms: N_13  and  C_14
REMARK    5  A    between atoms: C_17  and  C_18
REMARK                            x       y       z     vdW  Elec       q    Type
REMARK                         _______ _______ _______ _____ _____    ______ ____
ROOT
ATOM      1  C   UNL     1      43.870   5.209  11.622  0.00  0.00    +0.000 C 
ATOM      2  C   UNL     1      43.034   4.741  12.797  0.00  0.00    +0.000 C 
ATOM      3  C   UNL     1      44.393   4.157  12.610  0.00  0.00    +0.000 C 
ENDROOT
BRANCH   1  12
ATOM      4  C   UNL     1      49.270   7.868  15.168  0.00  0.00    +0.000 C 
ATOM      5  C   UNL     1      48.903   6.639  14.326  0.00  0.00    +0.000 C 
ATOM      6  C   UNL     1      48.557   7.004  12.885  0.00  0.00    +0.000 C 
ATOM      7  N   UNL     1      47.592   8.104  12.842  0.00  0.00    +0.000 N 
ATOM      8  C   UNL     1      46.354   7.920  12.260  0.00  0.00    +0.000 A 
ATOM      9  C   UNL     1      45.661   8.981  11.689  0.00  0.00    +0.000 A 
ATOM     10  N   UNL     1      44.423   8.859  11.182  0.00  0.00    +0.000 NA
ATOM     11  N   UNL     1      43.860   7.644  11.218  0.00  0.00    +0.000 NA
ATOM     12  C   UNL     1      44.559   6.583  11.709  0.00  0.00    +0.000 A 
ATOM     13  N   UNL     1      45.802   6.692  12.238  0.00  0.00    +0.000 NA
ATOM     14  C   UNL     1      47.869   9.302  13.621  0.00  0.00    +0.000 C 
ATOM     15  C   UNL     1      48.171   8.927  15.071  0.00  0.00    +0.000 C 
BRANCH   4  17
ATOM     16  N   UNL     1      51.590   8.866  14.423  0.00  0.00    +0.000 NA
ATOM     17  C   UNL     1      50.576   8.427  14.763  0.00  0.00    +0.000 C 
ENDBRANCH   4  17
ENDBRANCH   1  12
BRANCH   1  18
ATOM     18  N   UNL     1      43.700   4.679  10.240  0.00  0.00    +0.000 N 
ATOM     19  H   UNL     1      42.802   4.212  10.119  0.00  0.00    +0.000 HD
BRANCH  18  20
ATOM     20  C   UNL     1      44.700   4.034   9.487  0.00  0.00    +0.000 A 
ATOM     21  C   UNL     1      45.589   4.683   8.630  0.00  0.00    +0.000 A 
ATOM     22  C   UNL     1      46.465   3.944   7.816  0.00  0.00    +0.000 A 
ATOM     23  C   UNL     1      46.455   2.544   7.845  0.00  0.00    +0.000 A 
ATOM     24  C   UNL     1      45.563   1.884   8.689  0.00  0.00    +0.000 A 
ATOM     25  C   UNL     1      44.688   2.628   9.485  0.00  0.00    +0.000 A 
BRANCH  23  26
ATOM     26  C   UNL     1      47.354   1.795   6.924  0.00  0.00    +0.000 C 
ATOM     27  N   UNL     1      48.421   2.470   6.391  0.00  0.00    +0.000 N 
ATOM     28  O   UNL     1      47.148   0.624   6.637  0.00  0.00    +0.000 OA
ATOM     29  H   UNL     1      48.544   3.468   6.461  0.00  0.00    +0.000 HD
ATOM     30  H   UNL     1      48.996   1.964   5.731  0.00  0.00    +0.000 HD
ENDBRANCH  23  26
ENDBRANCH  18  20
ENDBRANCH   1  18
TORSDOF 5
ENDMDL
MODEL 4
REMARK VINA RESULT:    -6.639      3.935      5.266
REMARK INTER + INTRA:          -9.271
REMARK INTER:                  -8.960
REMARK INTRA:                  -0.311
REMARK UNBOUND:                -0.691
REMARK  Name = 
REMARK  5 active torsions:
REMARK  status: ('A' for Active; 'I' for Inactive)
REMARK    1  A    between atoms: C_2  and  C_3
REMARK    2  A    between atoms: C_11  and  C_12
REMARK    3  A    between atoms: C_12  and  N_13
REMARK    4  A    between atoms: N_13  and  C_14
REMARK    5  A    between atoms: C_17  and  C_18
REMARK                            x       y       z     vdW  Elec       q    Type
REMARK                         _______ _______ _______ _____ _____    ______ ____
ROOT
ATOM      1  C   UNL     1      47.350   6.038  13.949  0.00  0.00    +0.000 C 
ATOM      2  C   UNL     1      48.501   6.434  13.045  0.00  0.00    +0.000 C 
ATOM      3  C   UNL     1      47.899   7.472  13.931  0.00  0.00    +0.000 C 
ENDROOT
BRANCH   1  12
ATOM      4  C   UNL     1      53.043   4.787  17.799  0.00  0.00    +0.000 C 
ATOM      5  C   UNL     1      52.304   5.954  17.133  0.00  0.00    +0.000 C 
ATOM      6  C   UNL     1      50.905   6.162  17.708  0.00  0.00    +0.000 C 
ATOM      7  N   UNL     1      50.168   4.899  17.755  0.00  0.00    +0.000 N 
ATOM      8  C   UNL     1      48.994   4.752  17.042  0.00  0.00    +0.000 A 
ATOM      9  C   UNL     1      48.001   3.876  17.463  0.00  0.00    +0.000 A 
ATOM     10  N   UNL     1      46.880   3.648  16.757  0.00  0.00    +0.000 NA
ATOM     11  N   UNL     1      46.725   4.325  15.612  0.00  0.00    +0.000 NA
ATOM     12  C   UNL     1      47.658   5.239  15.228  0.00  0.00    +0.000 A 
ATOM     13  N   UNL     1      48.801   5.469  15.920  0.00  0.00    +0.000 NA
ATOM     14  C   UNL     1      50.807   3.743  18.368  0.00  0.00    +0.000 C 
ATOM     15  C   UNL     1      52.188   3.520  17.754  0.00  0.00    +0.000 C 
BRANCH   4  17
ATOM     16  N   UNL     1      53.721   5.394  20.271  0.00  0.00    +0.000 NA
ATOM     17  C   UNL     1      53.423   5.114  19.189  0.00  0.00    +0.000 C 
ENDBRANCH   4  17
ENDBRANCH   1  12
BRANCH   1  18
ATOM     18  N   UNL     1      45.939   5.947  13.478  0.00  0.00    +0.000 N 
ATOM     19  H   UNL     1      45.279   5.919  14.254  0.00  0.00    +0.000 HD
BRANCH  18  20
ATOM     20  C   UNL     1      45.488   5.142  12.415  0.00  0.00    +0.000 A 
ATOM     21  C   UNL     1      45.175   3.787  12.525  0.00  0.00    +0.000 A 
ATOM     22  C   UNL     1      44.863   3.030  11.381  0.00  0.00    +0.000 A 
ATOM     23  C   UNL     1      44.867   3.621  10.112  0.00  0.00    +0.000 A 
ATOM     24  C   UNL     1      45.189   4.972   9.988  0.00  0.00    +0.000 A 
ATOM     25  C   UNL     1      45.510   5.712  11.129  0.00  0.00    +0.000 A 
BRANCH  23  26
ATOM     26  C   UNL     1      44.591   2.775   8.919  0.00  0.00    +0.000 C 
ATOM     27  N   UNL     1      44.357   3.412   7.729  0.00  0.00    +0.000 N 
ATOM     28  O   UNL     1      44.558   1.554   8.992  0.00  0.00    +0.000 OA
ATOM     29  H   UNL     1      44.209   4.406   7.645  0.00  0.00    +0.000 HD
ATOM     30  H   UNL     1      44.123   2.827   6.938  0.00  0.00    +0.000 HD
ENDBRANCH  23  26
ENDBRANCH  18  20
ENDBRANCH   1  18
TORSDOF 5
ENDMDL
MODEL 5
REMARK VINA RESULT:    -6.385      3.695      6.077
REMARK INTER + INTRA:          -8.943
REMARK INTER:                  -8.612
REMARK INTRA:                  -0.331
REMARK UNBOUND:                -0.691
REMARK  Name = 
REMARK  5 active torsions:
REMARK  status: ('A' for Active; 'I' for Inactive)
REMARK    1  A    between atoms: C_2  and  C_3
REMARK    2  A    between atoms: C_11  and  C_12
REMARK    3  A    between atoms: C_12  and  N_13
REMARK    4  A    between atoms: N_13  and  C_14
REMARK    5  A    between atoms: C_17  and  C_18
REMARK                            x       y       z     vdW  Elec       q    Type
REMARK                         _______ _______ _______ _____ _____    ______ ____
ROOT
ATOM      1  C   UNL     1      48.564   7.629  12.796  0.00  0.00    +0.000 C 
ATOM      2  C   UNL     1      49.158   7.718  11.404  0.00  0.00    +0.000 C 
ATOM      3  C   UNL     1      48.664   8.967  12.051  0.00  0.00    +0.000 C 
ENDROOT
BRANCH   1  12
ATOM      4  C   UNL     1      47.835   6.201  19.595  0.00  0.00    +0.000 C 
ATOM      5  C   UNL     1      47.364   5.692  18.227  0.00  0.00    +0.000 C 
ATOM      6  C   UNL     1      48.519   5.194  17.362  0.00  0.00    +0.000 C 
ATOM      7  N   UNL     1      49.605   6.174  17.326  0.00  0.00    +0.000 N 
ATOM      8  C   UNL     1      49.991   6.740  16.127  0.00  0.00    +0.000 A 
ATOM      9  C   UNL     1      51.291   7.189  15.928  0.00  0.00    +0.000 A 
ATOM     10  N   UNL     1      51.685   7.814  14.806  0.00  0.00    +0.000 NA
ATOM     11  N   UNL     1      50.773   7.978  13.839  0.00  0.00    +0.000 NA
ATOM     12  C   UNL     1      49.516   7.478  13.996  0.00  0.00    +0.000 A 
ATOM     13  N   UNL     1      49.098   6.859  15.127  0.00  0.00    +0.000 NA
ATOM     14  C   UNL     1      50.102   6.708  18.586  0.00  0.00    +0.000 C 
ATOM     15  C   UNL     1      48.942   7.243  19.423  0.00  0.00    +0.000 C 
BRANCH   4  17
ATOM     16  N   UNL     1      48.662   4.234  21.139  0.00  0.00    +0.000 NA
ATOM     17  C   UNL     1      48.290   5.089  20.455  0.00  0.00    +0.000 C 
ENDBRANCH   4  17
ENDBRANCH   1  12
BRANCH   1  18
ATOM     18  N   UNL     1      47.158   7.208  13.054  0.00  0.00    +0.000 N 
ATOM     19  H   UNL     1      46.929   7.232  14.048  0.00  0.00    +0.000 HD
BRANCH  18  20
ATOM     20  C   UNL     1      46.500   6.136  12.420  0.00  0.00    +0.000 A 
ATOM     21  C   UNL     1      45.958   6.188  11.136  0.00  0.00    +0.000 A 
ATOM     22  C   UNL     1      45.200   5.114  10.637  0.00  0.00    +0.000 A 
ATOM     23  C   UNL     1      44.970   3.978  11.421  0.00  0.00    +0.000 A 
ATOM     24  C   UNL     1      45.497   3.919  12.711  0.00  0.00    +0.000 A 
ATOM     25  C   UNL     1      46.238   4.996  13.202  0.00  0.00    +0.000 A 
BRANCH  23  26
ATOM     26  C   UNL     1      44.112   2.887  10.881  0.00  0.00    +0.000 C 
ATOM     27  N   UNL     1      44.573   2.200   9.790  0.00  0.00    +0.000 N 
ATOM     28  O   UNL     1      43.028   2.618  11.379  0.00  0.00    +0.000 OA
ATOM     29  H   UNL     1      45.371   2.484   9.244  0.00  0.00    +0.000 HD
ATOM     30  H   UNL     1      43.959   1.494   9.404  0.00  0.00    +0.000 HD
ENDBRANCH  23  26
ENDBRANCH  18  20
ENDBRANCH   1  18
TORSDOF 5
ENDMDL
