MODEL 1
REMARK VINA RESULT:    -9.212      0.000      0.000
REMARK INTER + INTRA:         -13.144
REMARK INTER:                 -12.443
REMARK INTRA:                  -0.701
REMARK UNBOUND:                -0.701
REMARK  Name = 
REMARK  10 active torsions:
REMARK  status: ('A' for Active; 'I' for Inactive)
REMARK    1  A    between atoms: C_1  and  C_2
REMARK    2  A    between atoms: C_2  and  C_3
REMARK    3  A    between atoms: C_5  and  N_6
REMARK    4  A    between atoms: C_9  and  C_10
REMARK    5  A    between atoms: C_10  and  C_11
REMARK    6  A    between atoms: C_10  and  C_12
REMARK    7  A    between atoms: C_10  and  C_13
REMARK    8  A    between atoms: C_13  and  N_14
REMARK    9  A    between atoms: N_14  and  C_15
REMARK   10  A    between atoms: C_18  and  C_19
REMARK                            x       y       z     vdW  Elec       q    Type
REMARK                         _______ _______ _______ _____ _____    ______ ____
ROOT
ATOM      1  C   UNL     1      43.882   5.303  11.957  0.00  0.00    +0.000 C 
ATOM      2  C   UNL     1      42.703   5.551  12.936  0.00  0.00    +0.000 C 
ATOM      3  C   UNL     1      44.289   6.653  11.324  0.00  0.00    +0.000 C 
ENDROOT
BRANCH   1   7
ATOM      4  N   UNL     1      47.571   5.702  15.282  0.00  0.00    +0.000 N 
ATOM      5  C   UNL     1      46.885   4.919  14.333  0.00  0.00    +0.000 A 
ATOM      6  C   UNL     1      45.814   5.488  13.638  0.00  0.00    +0.000 A 
ATOM      7  C   UNL     1      45.071   4.710  12.736  0.00  0.00    +0.000 A 
ATOM      8  C   UNL     1      45.477   3.378  12.593  0.00  0.00    +0.000 A 
ATOM      9  C   UNL     1      46.592   2.916  13.263  0.00  0.00    +0.000 A 
ATOM     10  N   UNL     1      47.296   3.653  14.129  0.00  0.00    +0.000 NA
ATOM     11  H   UNL     1      48.205   6.293  14.745  0.00  0.00    +0.000 HD
BRANCH   4  16
ATOM     12  C   UNL     1      49.264   4.186  19.108  0.00  0.00    +0.000 C 
ATOM     13  C   UNL     1      48.244   5.168  18.533  0.00  0.00    +0.000 C 
ATOM     14  C   UNL     1      47.510   5.923  19.637  0.00  0.00    +0.000 C 
ATOM     15  C   UNL     1      47.304   4.540  17.469  0.00  0.00    +0.000 C 
ATOM     16  C   UNL     1      48.264   5.064  16.369  0.00  0.00    +0.000 C 
ATOM     17  C   UNL     1      48.794   6.085  17.398  0.00  0.00    +0.000 C 
ENDBRANCH   4  16
ENDBRANCH   1   7
BRANCH   1  18
ATOM     18  C   UNL     1      43.333   4.365  10.834  0.00  0.00    +0.000 C 
BRANCH  18  19
ATOM     19  N   UNL     1      43.756   4.748   9.482  0.00  0.00    +0.000 N 
ATOM     20  H   UNL     1      44.021   5.722   9.341  0.00  0.00    +0.000 HD
BRANCH  19  21
ATOM     21  C   UNL     1      44.730   3.964   8.872  0.00  0.00    +0.000 A 
ATOM     22  N   UNL     1      45.594   4.639   8.081  0.00  0.00    +0.000 NA
ATOM     23  C   UNL     1      46.557   3.922   7.439  0.00  0.00    +0.000 A 
ATOM     24  C   UNL     1      46.724   2.552   7.564  0.00  0.00    +0.000 A 
ATOM     25  C   UNL     1      45.842   1.872   8.403  0.00  0.00    +0.000 A 
ATOM     26  C   UNL     1      44.835   2.578   9.042  0.00  0.00    +0.000 A 
ATOM     27  F   UNL     1      44.003   1.909   9.855  0.00  0.00    +0.000 F 
BRANCH  24  28
ATOM     28  C   UNL     1      47.770   1.771   6.868  0.00  0.00    +0.000 C 
ATOM     29  N   UNL     1      48.632   2.410   6.017  0.00  0.00    +0.000 N 
ATOM     30  O   UNL     1      47.864   0.563   7.031  0.00  0.00    +0.000 OA
ATOM     31  H   UNL     1      48.641   3.390   5.809  0.00  0.00    +0.000 HD
ATOM     32  H   UNL     1      49.323   1.823   5.560  0.00  0.00    +0.000 HD
ENDBRANCH  24  28
ENDBRANCH  19  21
ENDBRANCH  18  19
ENDBRANCH   1  18
TORSDOF 6
ENDMDL
MODEL 2
REMARK VINA RESULT:    -9.091      1.094      1.351
REMARK INTER + INTRA:         -12.980
REMARK INTER:                 -12.414
REMARK INTRA:                  -0.566
REMARK UNBOUND:                -0.701
REMARK  Name = 
REMARK  10 active torsions:
REMARK  status: ('A' for Active; 'I' for Inactive)
REMARK    1  A    between atoms: C_1  and  C_2
REMARK    2  A    between atoms: C_2  and  C_3
REMARK    3  A    between atoms: C_5  and  N_6
REMARK    4  A    between atoms: C_9  and  C_10
REMARK    5  A    between atoms: C_10  and  C_11
REMARK    6  A    between atoms: C_10  and  C_12
REMARK    7  A    between atoms: C_10  and  C_13
REMARK    8  A    between atoms: C_13  and  N_14
REMARK    9  A    between atoms: N_14  and  C_15
REMARK   10  A    between atoms: C_18  and  C_19
REMARK                            x       y       z     vdW  Elec       q    Type
REMARK                         _______ _______ _______ _____ _____    ______ ____
ROOT
ATOM      1  C   UNL     1      43.828   5.299  11.939  0.00  0.00    +0.000 C 
ATOM      2  C   UNL     1      42.720   5.146  13.017  0.00  0.00    +0.000 C 
ATOM      3  C   UNL     1      43.585   6.617  11.167  0.00  0.00    +0.000 C 
ENDROOT
BRANCH   1   7
ATOM      4  N   UNL     1      46.839   4.245  15.766  0.00  0.00    +0.000 N 
ATOM      5  C   UNL     1      46.658   4.853  14.508  0.00  0.00    +0.000 A 
ATOM      6  C   UNL     1      45.396   4.803  13.911  0.00  0.00    +0.000 A 
ATOM      7  C   UNL     1      45.204   5.342  12.629  0.00  0.00    +0.000 A 
ATOM      8  C   UNL     1      46.331   5.913  12.027  0.00  0.00    +0.000 A 
ATOM      9  C   UNL     1      47.524   5.987  12.717  0.00  0.00    +0.000 A 
ATOM     10  N   UNL     1      47.711   5.466  13.935  0.00  0.00    +0.000 NA
ATOM     11  H   UNL     1      46.466   4.906  16.447  0.00  0.00    +0.000 HD
BRANCH   4  16
ATOM     12  C   UNL     1      50.664   3.060  17.706  0.00  0.00    +0.000 C 
ATOM     13  C   UNL     1      49.296   3.678  17.991  0.00  0.00    +0.000 C 
ATOM     14  C   UNL     1      49.134   4.026  19.467  0.00  0.00    +0.000 C 
ATOM     15  C   UNL     1      48.111   2.864  17.403  0.00  0.00    +0.000 C 
ATOM     16  C   UNL     1      48.146   3.788  16.158  0.00  0.00    +0.000 C 
ATOM     17  C   UNL     1      48.888   4.830  17.022  0.00  0.00    +0.000 C 
ENDBRANCH   4  16
ENDBRANCH   1   7
BRANCH   1  18
ATOM     18  C   UNL     1      43.652   4.099  10.954  0.00  0.00    +0.000 C 
BRANCH  18  19
ATOM     19  N   UNL     1      43.771   4.471   9.539  0.00  0.00    +0.000 N 
ATOM     20  H   UNL     1      43.822   5.466   9.327  0.00  0.00    +0.000 HD
BRANCH  19  21
ATOM     21  C   UNL     1      44.764   3.841   8.795  0.00  0.00    +0.000 A 
ATOM     22  N   UNL     1      45.558   4.672   8.083  0.00  0.00    +0.000 NA
ATOM     23  C   UNL     1      46.535   4.113   7.317  0.00  0.00    +0.000 A 
ATOM     24  C   UNL     1      46.783   2.751   7.241  0.00  0.00    +0.000 A 
ATOM     25  C   UNL     1      45.973   1.908   8.000  0.00  0.00    +0.000 A 
ATOM     26  C   UNL     1      44.954   2.454   8.763  0.00  0.00    +0.000 A 
ATOM     27  F   UNL     1      44.192   1.628   9.496  0.00  0.00    +0.000 F 
BRANCH  24  28
ATOM     28  C   UNL     1      47.844   2.141   6.409  0.00  0.00    +0.000 C 
ATOM     29  N   UNL     1      48.285   2.799   5.292  0.00  0.00    +0.000 N 
ATOM     30  O   UNL     1      48.320   1.052   6.699  0.00  0.00    +0.000 OA
ATOM     31  H   UNL     1      47.962   3.689   4.963  0.00  0.00    +0.000 HD
ATOM     32  H   UNL     1      49.007   2.329   4.755  0.00  0.00    +0.000 HD
ENDBRANCH  24  28
ENDBRANCH  19  21
ENDBRANCH  18  19
ENDBRANCH   1  18
TORSDOF 6
ENDMDL
MODEL 3
REMARK VINA RESULT:    -9.008      3.160      4.049
REMARK INTER + INTRA:         -12.868
REMARK INTER:                 -12.088
REMARK INTRA:                  -0.780
REMARK UNBOUND:                -0.701
REMARK  Name = 
REMARK  10 active torsions:
REMARK  status: ('A' for Active; 'I' for Inactive)
REMARK    1  A    between atoms: C_1  and  C_2
REMARK    2  A    between atoms: C_2  and  C_3
REMARK    3  A    between atoms: C_5  and  N_6
REMARK    4  A    between atoms: C_9  and  C_10
REMARK    5  A    between atoms: C_10  and  C_11
REMARK    6  A    between atoms: C_10  and  C_12
REMARK    7  A    between atoms: C_10  and  C_13
REMARK    8  A    between atoms: C_13  and  N_14
REMARK    9  A    between atoms: N_14  and  C_15
REMARK   10  A    between atoms: C_18  and  C_19
REMARK                            x       y       z     vdW  Elec       q    Type
REMARK                         _______ _______ _______ _____ _____    ______ ____
ROOT
ATOM      1  C   UNL     1      43.828   5.284  12.007  0.00  0.00    +0.000 C 
ATOM      2  C   UNL     1      42.977   4.929  13.257  0.00  0.00    +0.000 C 
ATOM      3  C   UNL     1      43.255   6.571  11.370  0.00  0.00    +0.000 C 
ENDROOT
BRANCH   1   7
ATOM      4  N   UNL     1      48.257   7.493  11.441  0.00  0.00    +0.000 N 
ATOM      5  C   UNL     1      47.451   6.572  12.139  0.00  0.00    +0.000 A 
ATOM      6  C   UNL     1      46.133   6.378  11.720  0.00  0.00    +0.000 A 
ATOM      7  C   UNL     1      45.287   5.517  12.438  0.00  0.00    +0.000 A 
ATOM      8  C   UNL     1      45.852   4.893  13.556  0.00  0.00    +0.000 A 
ATOM      9  C   UNL     1      47.186   5.083  13.858  0.00  0.00    +0.000 A 
ATOM     10  N   UNL     1      47.990   5.910  13.180  0.00  0.00    +0.000 NA
ATOM     11  H   UNL     1      48.572   7.003  10.604  0.00  0.00    +0.000 HD
BRANCH   4  16
ATOM     12  C   UNL     1      51.883   9.696  12.783  0.00  0.00    +0.000 C 
ATOM     13  C   UNL     1      51.070   9.333  11.541  0.00  0.00    +0.000 C 
ATOM     14  C   UNL     1      51.683   9.926  10.277  0.00  0.00    +0.000 C 
ATOM     15  C   UNL     1      49.549   9.608  11.690  0.00  0.00    +0.000 C 
ATOM     16  C   UNL     1      49.362   8.126  12.109  0.00  0.00    +0.000 C 
ATOM     17  C   UNL     1      50.709   7.821  11.419  0.00  0.00    +0.000 C 
ENDBRANCH   4  16
ENDBRANCH   1   7
BRANCH   1  18
ATOM     18  C   UNL     1      43.647   4.101  11.002  0.00  0.00    +0.000 C 
BRANCH  18  19
ATOM     19  N   UNL     1      43.772   4.495   9.594  0.00  0.00    +0.000 N 
ATOM     20  H   UNL     1      43.830   5.493   9.399  0.00  0.00    +0.000 HD
BRANCH  19  21
ATOM     21  C   UNL     1      44.762   3.870   8.842  0.00  0.00    +0.000 A 
ATOM     22  N   UNL     1      45.558   4.707   8.138  0.00  0.00    +0.000 NA
ATOM     23  C   UNL     1      46.533   4.154   7.365  0.00  0.00    +0.000 A 
ATOM     24  C   UNL     1      46.777   2.792   7.273  0.00  0.00    +0.000 A 
ATOM     25  C   UNL     1      45.965   1.943   8.023  0.00  0.00    +0.000 A 
ATOM     26  C   UNL     1      44.947   2.484   8.794  0.00  0.00    +0.000 A 
ATOM     27  F   UNL     1      44.184   1.651   9.518  0.00  0.00    +0.000 F 
BRANCH  24  28
ATOM     28  C   UNL     1      47.835   2.188   6.434  0.00  0.00    +0.000 C 
ATOM     29  N   UNL     1      48.235   2.829   5.291  0.00  0.00    +0.000 N 
ATOM     30  O   UNL     1      48.345   1.120   6.740  0.00  0.00    +0.000 OA
ATOM     31  H   UNL     1      47.883   3.702   4.948  0.00  0.00    +0.000 HD
ATOM     32  H   UNL     1      48.957   2.364   4.750  0.00  0.00    +0.000 HD
ENDBRANCH  24  28
ENDBRANCH  19  21
ENDBRANCH  18  19
ENDBRANCH   1  18
TORSDOF 6
ENDMDL
MODEL 4
REMARK VINA RESULT:    -8.608      3.212      4.285
REMARK INTER + INTRA:         -12.328
REMARK INTER:                 -11.848
REMARK INTRA:                  -0.480
REMARK UNBOUND:                -0.701
REMARK  Name = 
REMARK  10 active torsions:
REMARK  status: ('A' for Active; 'I' for Inactive)
REMARK    1  A    between atoms: C_1  and  C_2
REMARK    2  A    between atoms: C_2  and  C_3
REMARK    3  A    between atoms: C_5  and  N_6
REMARK    4  A    between atoms: C_9  and  C_10
REMARK    5  A    between atoms: C_10  and  C_11
REMARK    6  A    between atoms: C_10  and  C_12
REMARK    7  A    between atoms: C_10  and  C_13
REMARK    8  A    between atoms: C_13  and  N_14
REMARK    9  A    between atoms: N_14  and  C_15
REMARK   10  A    between atoms: C_18  and  C_19
REMARK                            x       y       z     vdW  Elec       q    Type
REMARK                         _______ _______ _______ _____ _____    ______ ____
ROOT
ATOM      1  C   UNL     1      44.197   4.532  12.186  0.00  0.00    +0.000 C 
ATOM      2  C   UNL     1      45.179   3.370  12.496  0.00  0.00    +0.000 C 
ATOM      3  C   UNL     1      43.170   4.630  13.337  0.00  0.00    +0.000 C 
ENDROOT
BRANCH   1   7
ATOM      4  N   UNL     1      48.481   7.075  12.181  0.00  0.00    +0.000 N 
ATOM      5  C   UNL     1      47.074   7.086  12.105  0.00  0.00    +0.000 A 
ATOM      6  C   UNL     1      46.384   5.875  12.215  0.00  0.00    +0.000 A 
ATOM      7  C   UNL     1      44.988   5.848  12.075  0.00  0.00    +0.000 A 
ATOM      8  C   UNL     1      44.370   7.080  11.833  0.00  0.00    +0.000 A 
ATOM      9  C   UNL     1      45.118   8.240  11.811  0.00  0.00    +0.000 A 
ATOM     10  N   UNL     1      46.450   8.267  11.936  0.00  0.00    +0.000 NA
ATOM     11  H   UNL     1      48.702   7.014  13.175  0.00  0.00    +0.000 HD
BRANCH   4  16
ATOM     12  C   UNL     1      51.399  10.109  10.739  0.00  0.00    +0.000 C 
ATOM     13  C   UNL     1      51.217   8.983  11.756  0.00  0.00    +0.000 C 
ATOM     14  C   UNL     1      52.469   8.786  12.605  0.00  0.00    +0.000 C 
ATOM     15  C   UNL     1      50.664   7.669  11.139  0.00  0.00    +0.000 C 
ATOM     16  C   UNL     1      49.239   8.123  11.552  0.00  0.00    +0.000 C 
ATOM     17  C   UNL     1      49.898   9.062  12.584  0.00  0.00    +0.000 C 
ENDBRANCH   4  16
ENDBRANCH   1   7
BRANCH   1  18
ATOM     18  C   UNL     1      43.445   4.134  10.874  0.00  0.00    +0.000 C 
BRANCH  18  19
ATOM     19  N   UNL     1      43.964   4.793   9.670  0.00  0.00    +0.000 N 
ATOM     20  H   UNL     1      44.320   5.742   9.781  0.00  0.00    +0.000 HD
BRANCH  19  21
ATOM     21  C   UNL     1      44.895   4.092   8.910  0.00  0.00    +0.000 A 
ATOM     22  N   UNL     1      45.772   4.862   8.227  0.00  0.00    +0.000 NA
ATOM     23  C   UNL     1      46.694   4.233   7.447  0.00  0.00    +0.000 A 
ATOM     24  C   UNL     1      46.807   2.857   7.329  0.00  0.00    +0.000 A 
ATOM     25  C   UNL     1      45.913   2.074   8.059  0.00  0.00    +0.000 A 
ATOM     26  C   UNL     1      44.948   2.695   8.836  0.00  0.00    +0.000 A 
ATOM     27  F   UNL     1      44.104   1.925   9.540  0.00  0.00    +0.000 F 
BRANCH  24  28
ATOM     28  C   UNL     1      47.808   2.170   6.482  0.00  0.00    +0.000 C 
ATOM     29  N   UNL     1      48.221   2.760   5.317  0.00  0.00    +0.000 N 
ATOM     30  O   UNL     1      48.258   1.080   6.802  0.00  0.00    +0.000 OA
ATOM     31  H   UNL     1      47.915   3.646   4.961  0.00  0.00    +0.000 HD
ATOM     32  H   UNL     1      48.901   2.240   4.772  0.00  0.00    +0.000 HD
ENDBRANCH  24  28
ENDBRANCH  19  21
ENDBRANCH  18  19
ENDBRANCH   1  18
TORSDOF 6
ENDMDL
MODEL 5
REMARK VINA RESULT:    -8.498      1.896      2.348
REMARK INTER + INTRA:         -12.179
REMARK INTER:                 -11.406
REMARK INTRA:                  -0.774
REMARK UNBOUND:                -0.701
REMARK  Name = 
REMARK  10 active torsions:
REMARK  status: ('A' for Active; 'I' for Inactive)
REMARK    1  A    between atoms: C_1  and  C_2
REMARK    2  A    between atoms: C_2  and  C_3
REMARK    3  A    between atoms: C_5  and  N_6
REMARK    4  A    between atoms: C_9  and  C_10
REMARK    5  A    between atoms: C_10  and  C_11
REMARK    6  A    between atoms: C_10  and  C_12
REMARK    7  A    between atoms: C_10  and  C_13
REMARK    8  A    between atoms: C_13  and  N_14
REMARK    9  A    between atoms: N_14  and  C_15
REMARK   10  A    between atoms: C_18  and  C_19
REMARK                            x       y       z     vdW  Elec       q    Type
REMARK                         _______ _______ _______ _____ _____    ______ ____
ROOT
ATOM      1  C   UNL     1      43.899   4.685  12.096  0.00  0.00    +0.000 C 
ATOM      2  C   UNL     1      43.404   3.216  12.003  0.00  0.00    +0.000 C 
ATOM      3  C   UNL     1      42.854   5.508  12.884  0.00  0.00    +0.000 C 
ENDROOT
BRANCH   1   7
ATOM      4  N   UNL     1      47.739   7.158  14.086  0.00  0.00    +0.000 N 
ATOM      5  C   UNL     1      47.135   5.925  13.768  0.00  0.00    +0.000 A 
ATOM      6  C   UNL     1      45.909   5.929  13.098  0.00  0.00    +0.000 A 
ATOM      7  C   UNL     1      45.253   4.717  12.828  0.00  0.00    +0.000 A 
ATOM      8  C   UNL     1      45.902   3.556  13.263  0.00  0.00    +0.000 A 
ATOM      9  C   UNL     1      47.148   3.637  13.854  0.00  0.00    +0.000 A 
ATOM     10  N   UNL     1      47.770   4.791  14.119  0.00  0.00    +0.000 NA
ATOM     11  H   UNL     1      48.185   7.475  13.225  0.00  0.00    +0.000 HD
BRANCH   4  16
ATOM     12  C   UNL     1      50.800   8.092  17.177  0.00  0.00    +0.000 C 
ATOM     13  C   UNL     1      50.197   8.602  15.869  0.00  0.00    +0.000 C 
ATOM     14  C   UNL     1      50.846   9.909  15.425  0.00  0.00    +0.000 C 
ATOM     15  C   UNL     1      48.645   8.640  15.871  0.00  0.00    +0.000 C 
ATOM     16  C   UNL     1      48.649   7.243  15.196  0.00  0.00    +0.000 C 
ATOM     17  C   UNL     1      50.095   7.531  14.739  0.00  0.00    +0.000 C 
ENDBRANCH   4  16
ENDBRANCH   1   7
BRANCH   1  18
ATOM     18  C   UNL     1      43.961   5.222  10.629  0.00  0.00    +0.000 C 
BRANCH  18  19
ATOM     19  N   UNL     1      43.614   4.220   9.615  0.00  0.00    +0.000 N 
ATOM     20  H   UNL     1      42.863   4.460   8.969  0.00  0.00    +0.000 HD
BRANCH  19  21
ATOM     21  C   UNL     1      44.655   3.691   8.859  0.00  0.00    +0.000 A 
ATOM     22  N   UNL     1      45.406   4.604   8.203  0.00  0.00    +0.000 NA
ATOM     23  C   UNL     1      46.427   4.145   7.428  0.00  0.00    +0.000 A 
ATOM     24  C   UNL     1      46.760   2.807   7.288  0.00  0.00    +0.000 A 
ATOM     25  C   UNL     1      45.993   1.878   7.990  0.00  0.00    +0.000 A 
ATOM     26  C   UNL     1      44.930   2.322   8.761  0.00  0.00    +0.000 A 
ATOM     27  F   UNL     1      44.211   1.414   9.439  0.00  0.00    +0.000 F 
BRANCH  24  28
ATOM     28  C   UNL     1      47.869   2.306   6.447  0.00  0.00    +0.000 C 
ATOM     29  N   UNL     1      48.104   2.886   5.228  0.00  0.00    +0.000 N 
ATOM     30  O   UNL     1      48.567   1.374   6.819  0.00  0.00    +0.000 OA
ATOM     31  H   UNL     1      47.593   3.649   4.828  0.00  0.00    +0.000 HD
ATOM     32  H   UNL     1      48.871   2.495   4.690  0.00  0.00    +0.000 HD
ENDBRANCH  24  28
ENDBRANCH  19  21
ENDBRANCH  18  19
ENDBRANCH   1  18
TORSDOF 6
ENDMDL
MODEL 6
REMARK VINA RESULT:    -7.673      1.570      2.161
REMARK INTER + INTRA:         -11.065
REMARK INTER:                 -10.850
REMARK INTRA:                  -0.215
REMARK UNBOUND:                -0.701
REMARK  Name = 
REMARK  10 active torsions:
REMARK  status: ('A' for Active; 'I' for Inactive)
REMARK    1  A    between atoms: C_1  and  C_2
REMARK    2  A    between atoms: C_2  and  C_3
REMARK    3  A    between atoms: C_5  and  N_6
REMARK    4  A    between atoms: C_9  and  C_10
REMARK    5  A    between atoms: C_10  and  C_11
REMARK    6  A    between atoms: C_10  and  C_12
REMARK    7  A    between atoms: C_10  and  C_13
REMARK    8  A    between atoms: C_13  and  N_14
REMARK    9  A    between atoms: N_14  and  C_15
REMARK   10  A    between atoms: C_18  and  C_19
REMARK                            x       y       z     vdW  Elec       q    Type
REMARK                         _______ _______ _______ _____ _____    ______ ____
ROOT
ATOM      1  C   UNL     1      44.947   5.275  12.187  0.00  0.00    +0.000 C 
ATOM      2  C   UNL     1      45.080   3.728  12.141  0.00  0.00    +0.000 C 
ATOM      3  C   UNL     1      43.812   5.643  13.169  0.00  0.00    +0.000 C 
ENDROOT
BRANCH   1   7
ATOM      4  N   UNL     1      48.332   6.133  15.740  0.00  0.00    +0.000 N 
ATOM      5  C   UNL     1      47.906   6.325  14.411  0.00  0.00    +0.000 A 
ATOM      6  C   UNL     1      46.692   5.765  14.005  0.00  0.00    +0.000 A 
ATOM      7  C   UNL     1      46.276   5.884  12.670  0.00  0.00    +0.000 A 
ATOM      8  C   UNL     1      47.138   6.584  11.817  0.00  0.00    +0.000 A 
ATOM      9  C   UNL     1      48.284   7.169  12.316  0.00  0.00    +0.000 A 
ATOM     10  N   UNL     1      48.686   7.050  13.587  0.00  0.00    +0.000 NA
ATOM     11  H   UNL     1      47.809   6.808  16.297  0.00  0.00    +0.000 HD
BRANCH   4  16
ATOM     12  C   UNL     1      52.426   6.388  17.466  0.00  0.00    +0.000 C 
ATOM     13  C   UNL     1      50.944   6.425  17.838  0.00  0.00    +0.000 C 
ATOM     14  C   UNL     1      50.747   6.610  19.339  0.00  0.00    +0.000 C 
ATOM     15  C   UNL     1      50.120   5.254  17.236  0.00  0.00    +0.000 C 
ATOM     16  C   UNL     1      49.734   6.186  16.056  0.00  0.00    +0.000 C 
ATOM     17  C   UNL     1      50.079   7.385  16.965  0.00  0.00    +0.000 C 
ENDBRANCH   4  16
ENDBRANCH   1   7
BRANCH   1  18
ATOM     18  C   UNL     1      44.532   5.723  10.748  0.00  0.00    +0.000 C 
BRANCH  18  19
ATOM     19  N   UNL     1      43.957   4.646   9.933  0.00  0.00    +0.000 N 
ATOM     20  H   UNL     1      43.153   4.885   9.356  0.00  0.00    +0.000 HD
BRANCH  19  21
ATOM     21  C   UNL     1      44.831   3.912   9.137  0.00  0.00    +0.000 A 
ATOM     22  N   UNL     1      45.688   4.652   8.398  0.00  0.00    +0.000 NA
ATOM     23  C   UNL     1      46.554   3.991   7.581  0.00  0.00    +0.000 A 
ATOM     24  C   UNL     1      46.630   2.611   7.479  0.00  0.00    +0.000 A 
ATOM     25  C   UNL     1      45.758   1.860   8.265  0.00  0.00    +0.000 A 
ATOM     26  C   UNL     1      44.848   2.514   9.081  0.00  0.00    +0.000 A 
ATOM     27  F   UNL     1      44.025   1.774   9.840  0.00  0.00    +0.000 F 
BRANCH  24  28
ATOM     28  C   UNL     1      47.570   1.890   6.592  0.00  0.00    +0.000 C 
ATOM     29  N   UNL     1      48.663   2.548   6.093  0.00  0.00    +0.000 N 
ATOM     30  O   UNL     1      47.376   0.722   6.289  0.00  0.00    +0.000 OA
ATOM     31  H   UNL     1      48.914   3.501   6.274  0.00  0.00    +0.000 HD
ATOM     32  H   UNL     1      49.268   2.007   5.483  0.00  0.00    +0.000 HD
ENDBRANCH  24  28
ENDBRANCH  19  21
ENDBRANCH  18  19
ENDBRANCH   1  18
TORSDOF 6
ENDMDL
MODEL 7
REMARK VINA RESULT:    -7.225      4.203      5.240
REMARK INTER + INTRA:         -10.460
REMARK INTER:                  -9.624
REMARK INTRA:                  -0.836
REMARK UNBOUND:                -0.701
REMARK  Name = 
REMARK  10 active torsions:
REMARK  status: ('A' for Active; 'I' for Inactive)
REMARK    1  A    between atoms: C_1  and  C_2
REMARK    2  A    between atoms: C_2  and  C_3
REMARK    3  A    between atoms: C_5  and  N_6
REMARK    4  A    between atoms: C_9  and  C_10
REMARK    5  A    between atoms: C_10  and  C_11
REMARK    6  A    between atoms: C_10  and  C_12
REMARK    7  A    between atoms: C_10  and  C_13
REMARK    8  A    between atoms: C_13  and  N_14
REMARK    9  A    between atoms: N_14  and  C_15
REMARK   10  A    between atoms: C_18  and  C_19
REMARK                            x       y       z     vdW  Elec       q    Type
REMARK                         _______ _______ _______ _____ _____    ______ ____
ROOT
ATOM      1  C   UNL     1      45.642   6.663  12.034  0.00  0.00    +0.000 C 
ATOM      2  C   UNL     1      45.397   5.274  12.683  0.00  0.00    +0.000 C 
ATOM      3  C   UNL     1      44.501   7.615  12.461  0.00  0.00    +0.000 C 
ENDROOT
BRANCH   1   7
ATOM      4  N   UNL     1      50.550   7.323  11.486  0.00  0.00    +0.000 N 
ATOM      5  C   UNL     1      49.389   7.510  12.263  0.00  0.00    +0.000 A 
ATOM      6  C   UNL     1      48.178   6.989  11.799  0.00  0.00    +0.000 A 
ATOM      7  C   UNL     1      46.995   7.217  12.519  0.00  0.00    +0.000 A 
ATOM      8  C   UNL     1      47.124   7.972  13.690  0.00  0.00    +0.000 A 
ATOM      9  C   UNL     1      48.370   8.386  14.116  0.00  0.00    +0.000 A 
ATOM     10  N   UNL     1      49.497   8.177  13.427  0.00  0.00    +0.000 NA
ATOM     11  H   UNL     1      50.860   6.371  11.679  0.00  0.00    +0.000 HD
BRANCH   4  16
ATOM     12  C   UNL     1      53.911  10.207  11.051  0.00  0.00    +0.000 C 
ATOM     13  C   UNL     1      52.907   9.379  10.250  0.00  0.00    +0.000 C 
ATOM     14  C   UNL     1      53.077   9.590   8.749  0.00  0.00    +0.000 C 
ATOM     15  C   UNL     1      51.442   9.527  10.744  0.00  0.00    +0.000 C 
ATOM     16  C   UNL     1      51.644   8.251  11.601  0.00  0.00    +0.000 C 
ATOM     17  C   UNL     1      52.818   7.880  10.671  0.00  0.00    +0.000 C 
ENDBRANCH   4  16
ENDBRANCH   1   7
BRANCH   1  18
ATOM     18  C   UNL     1      45.565   6.447  10.488  0.00  0.00    +0.000 C 
BRANCH  18  19
ATOM     19  N   UNL     1      44.779   5.273  10.092  0.00  0.00    +0.000 N 
ATOM     20  H   UNL     1      43.849   5.449   9.713  0.00  0.00    +0.000 HD
BRANCH  19  21
ATOM     21  C   UNL     1      45.394   4.344   9.258  0.00  0.00    +0.000 A 
ATOM     22  N   UNL     1      46.178   4.875   8.292  0.00  0.00    +0.000 NA
ATOM     23  C   UNL     1      46.790   4.016   7.431  0.00  0.00    +0.000 A 
ATOM     24  C   UNL     1      46.681   2.636   7.496  0.00  0.00    +0.000 A 
ATOM     25  C   UNL     1      45.890   2.102   8.512  0.00  0.00    +0.000 A 
ATOM     26  C   UNL     1      45.234   2.959   9.382  0.00  0.00    +0.000 A 
ATOM     27  F   UNL     1      44.487   2.426  10.360  0.00  0.00    +0.000 F 
BRANCH  24  28
ATOM     28  C   UNL     1      47.345   1.701   6.561  0.00  0.00    +0.000 C 
ATOM     29  N   UNL     1      48.263   2.184   5.666  0.00  0.00    +0.000 N 
ATOM     30  O   UNL     1      47.074   0.509   6.568  0.00  0.00    +0.000 OA
ATOM     31  H   UNL     1      48.555   3.138   5.574  0.00  0.00    +0.000 HD
ATOM     32  H   UNL     1      48.680   1.499   5.044  0.00  0.00    +0.000 HD
ENDBRANCH  24  28
ENDBRANCH  19  21
ENDBRANCH  18  19
ENDBRANCH   1  18
TORSDOF 6
ENDMDL
MODEL 8
REMARK VINA RESULT:    -7.021      2.896      3.592
REMARK INTER + INTRA:         -10.185
REMARK INTER:                  -9.290
REMARK INTRA:                  -0.895
REMARK UNBOUND:                -0.701
REMARK  Name = 
REMARK  10 active torsions:
REMARK  status: ('A' for Active; 'I' for Inactive)
REMARK    1  A    between atoms: C_1  and  C_2
REMARK    2  A    between atoms: C_2  and  C_3
REMARK    3  A    between atoms: C_5  and  N_6
REMARK    4  A    between atoms: C_9  and  C_10
REMARK    5  A    between atoms: C_10  and  C_11
REMARK    6  A    between atoms: C_10  and  C_12
REMARK    7  A    between atoms: C_10  and  C_13
REMARK    8  A    between atoms: C_13  and  N_14
REMARK    9  A    between atoms: N_14  and  C_15
REMARK   10  A    between atoms: C_18  and  C_19
REMARK                            x       y       z     vdW  Elec       q    Type
REMARK                         _______ _______ _______ _____ _____    ______ ____
ROOT
ATOM      1  C   UNL     1      44.181   4.931  12.432  0.00  0.00    +0.000 C 
ATOM      2  C   UNL     1      43.102   4.685  13.521  0.00  0.00    +0.000 C 
ATOM      3  C   UNL     1      43.712   6.093  11.526  0.00  0.00    +0.000 C 
ENDROOT
BRANCH   1   7
ATOM      4  N   UNL     1      48.008   8.037  13.160  0.00  0.00    +0.000 N 
ATOM      5  C   UNL     1      47.389   6.802  13.440  0.00  0.00    +0.000 A 
ATOM      6  C   UNL     1      46.185   6.493  12.802  0.00  0.00    +0.000 A 
ATOM      7  C   UNL     1      45.512   5.301  13.112  0.00  0.00    +0.000 A 
ATOM      8  C   UNL     1      46.123   4.481  14.068  0.00  0.00    +0.000 A 
ATOM      9  C   UNL     1      47.351   4.826  14.596  0.00  0.00    +0.000 A 
ATOM     10  N   UNL     1      47.989   5.966  14.308  0.00  0.00    +0.000 NA
ATOM     11  H   UNL     1      48.487   7.908  12.270  0.00  0.00    +0.000 HD
BRANCH   4  16
ATOM     12  C   UNL     1      50.992  10.307  15.556  0.00  0.00    +0.000 C 
ATOM     13  C   UNL     1      50.443  10.139  14.140  0.00  0.00    +0.000 C 
ATOM     14  C   UNL     1      51.136  11.075  13.155  0.00  0.00    +0.000 C 
ATOM     15  C   UNL     1      48.892  10.183  14.064  0.00  0.00    +0.000 C 
ATOM     16  C   UNL     1      48.885   8.633  14.132  0.00  0.00    +0.000 C 
ATOM     17  C   UNL     1      50.351   8.661  13.650  0.00  0.00    +0.000 C 
ENDBRANCH   4  16
ENDBRANCH   1   7
BRANCH   1  18
ATOM     18  C   UNL     1      44.250   3.623  11.578  0.00  0.00    +0.000 C 
BRANCH  18  19
ATOM     19  N   UNL     1      43.811   3.798  10.189  0.00  0.00    +0.000 N 
ATOM     20  H   UNL     1      43.355   4.680   9.958  0.00  0.00    +0.000 HD
BRANCH  19  21
ATOM     21  C   UNL     1      44.743   3.543   9.188  0.00  0.00    +0.000 A 
ATOM     22  N   UNL     1      44.767   2.266   8.743  0.00  0.00    +0.000 NA
ATOM     23  C   UNL     1      45.674   1.949   7.778  0.00  0.00    +0.000 A 
ATOM     24  C   UNL     1      46.554   2.854   7.206  0.00  0.00    +0.000 A 
ATOM     25  C   UNL     1      46.500   4.172   7.657  0.00  0.00    +0.000 A 
ATOM     26  C   UNL     1      45.605   4.510   8.659  0.00  0.00    +0.000 A 
ATOM     27  F   UNL     1      45.560   5.786   9.071  0.00  0.00    +0.000 F 
BRANCH  24  28
ATOM     28  C   UNL     1      47.540   2.512   6.158  0.00  0.00    +0.000 C 
ATOM     29  N   UNL     1      48.739   1.957   6.518  0.00  0.00    +0.000 N 
ATOM     30  O   UNL     1      47.304   2.733   4.979  0.00  0.00    +0.000 OA
ATOM     31  H   UNL     1      49.034   1.738   7.451  0.00  0.00    +0.000 HD
ATOM     32  H   UNL     1      49.380   1.752   5.759  0.00  0.00    +0.000 HD
ENDBRANCH  24  28
ENDBRANCH  19  21
ENDBRANCH  18  19
ENDBRANCH   1  18
TORSDOF 6
ENDMDL
MODEL 9
REMARK VINA RESULT:    -6.807      3.279      5.073
REMARK INTER + INTRA:          -9.896
REMARK INTER:                  -8.831
REMARK INTRA:                  -1.065
REMARK UNBOUND:                -0.701
REMARK  Name = 
REMARK  10 active torsions:
REMARK  status: ('A' for Active; 'I' for Inactive)
REMARK    1  A    between atoms: C_1  and  C_2
REMARK    2  A    between atoms: C_2  and  C_3
REMARK    3  A    between atoms: C_5  and  N_6
REMARK    4  A    between atoms: C_9  and  C_10
REMARK    5  A    between atoms: C_10  and  C_11
REMARK    6  A    between atoms: C_10  and  C_12
REMARK    7  A    between atoms: C_10  and  C_13
REMARK    8  A    between atoms: C_13  and  N_14
REMARK    9  A    between atoms: N_14  and  C_15
REMARK   10  A    between atoms: C_18  and  C_19
REMARK                            x       y       z     vdW  Elec       q    Type
REMARK                         _______ _______ _______ _____ _____    ______ ____
ROOT
ATOM      1  C   UNL     1      48.083   8.491  12.723  0.00  0.00    +0.000 C 
ATOM      2  C   UNL     1      48.632   9.879  12.296  0.00  0.00    +0.000 C 
ATOM      3  C   UNL     1      48.767   7.404  11.862  0.00  0.00    +0.000 C 
ENDROOT
BRANCH   1   7
ATOM      4  N   UNL     1      49.459   5.535  16.491  0.00  0.00    +0.000 N 
ATOM      5  C   UNL     1      49.041   6.806  16.047  0.00  0.00    +0.000 A 
ATOM      6  C   UNL     1      48.754   6.985  14.692  0.00  0.00    +0.000 A 
ATOM      7  C   UNL     1      48.400   8.256  14.211  0.00  0.00    +0.000 A 
ATOM      8  C   UNL     1      48.356   9.282  15.162  0.00  0.00    +0.000 A 
ATOM      9  C   UNL     1      48.582   9.004  16.495  0.00  0.00    +0.000 A 
ATOM     10  N   UNL     1      48.928   7.795  16.953  0.00  0.00    +0.000 NA
ATOM     11  H   UNL     1      48.608   4.980  16.574  0.00  0.00    +0.000 HD
BRANCH   4  16
ATOM     12  C   UNL     1      52.227   4.523  19.824  0.00  0.00    +0.000 C 
ATOM     13  C   UNL     1      51.742   4.043  18.457  0.00  0.00    +0.000 C 
ATOM     14  C   UNL     1      52.438   2.752  18.037  0.00  0.00    +0.000 C 
ATOM     15  C   UNL     1      51.759   5.148  17.367  0.00  0.00    +0.000 C 
ATOM     16  C   UNL     1      50.263   5.421  17.678  0.00  0.00    +0.000 C 
ATOM     17  C   UNL     1      50.192   4.007  18.292  0.00  0.00    +0.000 C 
ENDBRANCH   4  16
ENDBRANCH   1   7
BRANCH   1  18
ATOM     18  C   UNL     1      46.554   8.503  12.397  0.00  0.00    +0.000 C 
BRANCH  18  19
ATOM     19  N   UNL     1      45.753   7.644  13.277  0.00  0.00    +0.000 N 
ATOM     20  H   UNL     1      44.952   8.075  13.736  0.00  0.00    +0.000 HD
BRANCH  19  21
ATOM     21  C   UNL     1      45.325   6.425  12.762  0.00  0.00    +0.000 A 
ATOM     22  N   UNL     1      44.610   6.508  11.617  0.00  0.00    +0.000 NA
ATOM     23  C   UNL     1      44.144   5.349  11.075  0.00  0.00    +0.000 A 
ATOM     24  C   UNL     1      44.377   4.091  11.607  0.00  0.00    +0.000 A 
ATOM     25  C   UNL     1      45.137   4.017  12.774  0.00  0.00    +0.000 A 
ATOM     26  C   UNL     1      45.596   5.187  13.358  0.00  0.00    +0.000 A 
ATOM     27  F   UNL     1      46.335   5.096  14.473  0.00  0.00    +0.000 F 
BRANCH  24  28
ATOM     28  C   UNL     1      43.872   2.829  11.021  0.00  0.00    +0.000 C 
ATOM     29  N   UNL     1      44.475   2.320   9.901  0.00  0.00    +0.000 N 
ATOM     30  O   UNL     1      42.917   2.246  11.513  0.00  0.00    +0.000 OA
ATOM     31  H   UNL     1      45.258   2.717   9.418  0.00  0.00    +0.000 HD
ATOM     32  H   UNL     1      44.081   1.458   9.537  0.00  0.00    +0.000 HD
ENDBRANCH  24  28
ENDBRANCH  19  21
ENDBRANCH  18  19
ENDBRANCH   1  18
TORSDOF 6
ENDMDL
