MODEL 1
REMARK VINA RESULT:    -9.109      0.000      0.000
REMARK INTER + INTRA:         -12.630
REMARK INTER:                 -11.772
REMARK INTRA:                  -0.858
REMARK UNBOUND:                -0.858
REMARK  Name = 
REMARK  5 active torsions:
REMARK  status: ('A' for Active; 'I' for Inactive)
REMARK    1  A    between atoms: C_2  and  C_4
REMARK    2  A    between atoms: N_8  and  C_9
REMARK    3  A    between atoms: C_9  and  C_10
REMARK    4  A    between atoms: C_10  and  C_11
REMARK    5  A    between atoms: C_15  and  C_16
REMARK                            x       y       z     vdW  Elec       q    Type
REMARK                         _______ _______ _______ _____ _____    ______ ____
ROOT
ATOM      1  C   UNL     1      43.349   4.476  11.213  0.00  0.00    +0.000 C 
ENDROOT
BRANCH   1   6
ATOM      2  C   UNL     1      46.477   2.509   7.725  0.00  0.00    +0.000 A 
ATOM      3  C   UNL     1      45.667   1.864   8.653  0.00  0.00    +0.000 A 
ATOM      4  C   UNL     1      44.750   2.612   9.392  0.00  0.00    +0.000 A 
ATOM      5  C   UNL     1      44.671   3.990   9.211  0.00  0.00    +0.000 A 
ATOM      6  N   UNL     1      43.727   4.784   9.842  0.00  0.00    +0.000 N 
ATOM      7  N   UNL     1      45.477   4.631   8.340  0.00  0.00    +0.000 NA
ATOM      8  C   UNL     1      46.362   3.888   7.622  0.00  0.00    +0.000 A 
ATOM      9  H   UNL     1      43.985   5.751   9.652  0.00  0.00    +0.000 HD
BRANCH   2  11
ATOM     10  N   UNL     1      48.527   2.486   6.427  0.00  0.00    +0.000 N 
ATOM     11  C   UNL     1      47.429   1.790   6.856  0.00  0.00    +0.000 C 
ATOM     12  O   UNL     1      47.268   0.614   6.563  0.00  0.00    +0.000 OA
ATOM     13  H   UNL     1      49.228   1.955   5.927  0.00  0.00    +0.000 HD
ATOM     14  H   UNL     1      48.816   3.358   6.844  0.00  0.00    +0.000 HD
ENDBRANCH   2  11
ENDBRANCH   1   6
BRANCH   1  15
ATOM     15  C   UNL     1      43.572   5.691  12.122  0.00  0.00    +0.000 C 
BRANCH  15  16
ATOM     16  C   UNL     1      45.012   5.794  12.551  0.00  0.00    +0.000 A 
ATOM     17  C   UNL     1      45.551   4.892  13.461  0.00  0.00    +0.000 A 
ATOM     18  N   UNL     1      46.844   4.887  13.847  0.00  0.00    +0.000 NA
ATOM     19  C   UNL     1      47.647   5.818  13.289  0.00  0.00    +0.000 A 
ATOM     20  C   UNL     1      47.229   6.763  12.353  0.00  0.00    +0.000 A 
ATOM     21  C   UNL     1      45.875   6.749  11.999  0.00  0.00    +0.000 A 
BRANCH  20  22
ATOM     22  C   UNL     1      48.239   7.690  11.712  0.00  0.00    +0.000 C 
ATOM     23  C   UNL     1      49.695   7.359  12.077  0.00  0.00    +0.000 C 
ATOM     24  C   UNL     1      50.662   8.305  11.361  0.00  0.00    +0.000 C 
ATOM     25  C   UNL     1      50.337   9.772  11.639  0.00  0.00    +0.000 C 
ATOM     26  C   UNL     1      48.882  10.105  11.324  0.00  0.00    +0.000 C 
ATOM     27  C   UNL     1      47.922   9.159  12.040  0.00  0.00    +0.000 C 
ENDBRANCH  20  22
ENDBRANCH  15  16
ENDBRANCH   1  15
TORSDOF 5
ENDMDL
MODEL 2
REMARK VINA RESULT:    -8.514      1.823      3.332
REMARK INTER + INTRA:         -11.861
REMARK INTER:                 -11.070
REMARK INTRA:                  -0.791
REMARK UNBOUND:                -0.858
REMARK  Name = 
REMARK  5 active torsions:
REMARK  status: ('A' for Active; 'I' for Inactive)
REMARK    1  A    between atoms: C_2  and  C_4
REMARK    2  A    between atoms: N_8  and  C_9
REMARK    3  A    between atoms: C_9  and  C_10
REMARK    4  A    between atoms: C_10  and  C_11
REMARK    5  A    between atoms: C_15  and  C_16
REMARK                            x       y       z     vdW  Elec       q    Type
REMARK                         _______ _______ _______ _____ _____    ______ ____
ROOT
ATOM      1  C   UNL     1      43.361   4.503  11.209  0.00  0.00    +0.000 C 
ENDROOT
BRANCH   1   6
ATOM      2  C   UNL     1      46.492   2.546   7.719  0.00  0.00    +0.000 A 
ATOM      3  C   UNL     1      45.685   1.898   8.647  0.00  0.00    +0.000 A 
ATOM      4  C   UNL     1      44.766   2.643   9.387  0.00  0.00    +0.000 A 
ATOM      5  C   UNL     1      44.684   4.021   9.206  0.00  0.00    +0.000 A 
ATOM      6  N   UNL     1      43.738   4.813   9.838  0.00  0.00    +0.000 N 
ATOM      7  N   UNL     1      45.487   4.665   8.335  0.00  0.00    +0.000 NA
ATOM      8  C   UNL     1      46.373   3.925   7.616  0.00  0.00    +0.000 A 
ATOM      9  H   UNL     1      43.993   5.780   9.648  0.00  0.00    +0.000 HD
BRANCH   2  11
ATOM     10  N   UNL     1      48.560   2.518   6.450  0.00  0.00    +0.000 N 
ATOM     11  C   UNL     1      47.446   1.830   6.849  0.00  0.00    +0.000 C 
ATOM     12  O   UNL     1      47.272   0.663   6.530  0.00  0.00    +0.000 OA
ATOM     13  H   UNL     1      49.261   1.986   5.949  0.00  0.00    +0.000 HD
ATOM     14  H   UNL     1      48.856   3.377   6.889  0.00  0.00    +0.000 HD
ENDBRANCH   2  11
ENDBRANCH   1   6
BRANCH   1  15
ATOM     15  C   UNL     1      43.479   5.748  12.098  0.00  0.00    +0.000 C 
BRANCH  15  16
ATOM     16  C   UNL     1      44.920   6.087  12.372  0.00  0.00    +0.000 A 
ATOM     17  C   UNL     1      45.535   7.157  11.731  0.00  0.00    +0.000 A 
ATOM     18  N   UNL     1      46.803   7.554  11.967  0.00  0.00    +0.000 NA
ATOM     19  C   UNL     1      47.491   6.863  12.902  0.00  0.00    +0.000 A 
ATOM     20  C   UNL     1      46.977   5.786  13.624  0.00  0.00    +0.000 A 
ATOM     21  C   UNL     1      45.667   5.391  13.329  0.00  0.00    +0.000 A 
BRANCH  20  22
ATOM     22  C   UNL     1      47.802   5.154  14.725  0.00  0.00    +0.000 C 
ATOM     23  C   UNL     1      47.033   4.105  15.543  0.00  0.00    +0.000 C 
ATOM     24  C   UNL     1      47.937   3.477  16.606  0.00  0.00    +0.000 C 
ATOM     25  C   UNL     1      48.573   4.531  17.510  0.00  0.00    +0.000 C 
ATOM     26  C   UNL     1      49.303   5.606  16.710  0.00  0.00    +0.000 C 
ATOM     27  C   UNL     1      48.397   6.228  15.651  0.00  0.00    +0.000 C 
ENDBRANCH  20  22
ENDBRANCH  15  16
ENDBRANCH   1  15
TORSDOF 5
ENDMDL
MODEL 3
REMARK VINA RESULT:    -8.130      1.525      2.247
REMARK INTER + INTRA:         -11.364
REMARK INTER:                 -10.674
REMARK INTRA:                  -0.690
REMARK UNBOUND:                -0.858
REMARK  Name = 
REMARK  5 active torsions:
REMARK  status: ('A' for Active; 'I' for Inactive)
REMARK    1  A    between atoms: C_2  and  C_4
REMARK    2  A    between atoms: N_8  and  C_9
REMARK    3  A    between atoms: C_9  and  C_10
REMARK    4  A    between atoms: C_10  and  C_11
REMARK    5  A    between atoms: C_15  and  C_16
REMARK                            x       y       z     vdW  Elec       q    Type
REMARK                         _______ _______ _______ _____ _____    ______ ____
ROOT
ATOM      1  C   UNL     1      43.318   3.878  11.259  0.00  0.00    +0.000 C 
ENDROOT
BRANCH   1   6
ATOM      2  C   UNL     1      46.463   2.911   7.386  0.00  0.00    +0.000 A 
ATOM      3  C   UNL     1      46.117   4.128   7.963  0.00  0.00    +0.000 A 
ATOM      4  C   UNL     1      45.370   4.133   9.141  0.00  0.00    +0.000 A 
ATOM      5  C   UNL     1      44.963   2.930   9.712  0.00  0.00    +0.000 A 
ATOM      6  N   UNL     1      44.298   2.854  10.925  0.00  0.00    +0.000 N 
ATOM      7  N   UNL     1      45.262   1.746   9.141  0.00  0.00    +0.000 NA
ATOM      8  C   UNL     1      45.996   1.755   7.996  0.00  0.00    +0.000 A 
ATOM      9  H   UNL     1      43.993   1.888  11.031  0.00  0.00    +0.000 HD
BRANCH   2  11
ATOM     10  N   UNL     1      48.623   2.498   6.359  0.00  0.00    +0.000 N 
ATOM     11  C   UNL     1      47.302   2.808   6.176  0.00  0.00    +0.000 C 
ATOM     12  O   UNL     1      46.834   2.955   5.056  0.00  0.00    +0.000 OA
ATOM     13  H   UNL     1      49.163   2.320   5.522  0.00  0.00    +0.000 HD
ATOM     14  H   UNL     1      48.980   2.130   7.228  0.00  0.00    +0.000 HD
ENDBRANCH   2  11
ENDBRANCH   1   6
BRANCH   1  15
ATOM     15  C   UNL     1      43.449   4.292  12.730  0.00  0.00    +0.000 C 
BRANCH  15  16
ATOM     16  C   UNL     1      44.758   4.990  12.986  0.00  0.00    +0.000 A 
ATOM     17  C   UNL     1      45.906   4.264  13.283  0.00  0.00    +0.000 A 
ATOM     18  N   UNL     1      47.124   4.815  13.469  0.00  0.00    +0.000 NA
ATOM     19  C   UNL     1      47.209   6.157  13.336  0.00  0.00    +0.000 A 
ATOM     20  C   UNL     1      46.135   6.988  13.023  0.00  0.00    +0.000 A 
ATOM     21  C   UNL     1      44.885   6.379  12.864  0.00  0.00    +0.000 A 
BRANCH  20  22
ATOM     22  C   UNL     1      46.367   8.466  12.793  0.00  0.00    +0.000 C 
ATOM     23  C   UNL     1      45.277   9.133  11.939  0.00  0.00    +0.000 C 
ATOM     24  C   UNL     1      45.551  10.632  11.785  0.00  0.00    +0.000 C 
ATOM     25  C   UNL     1      46.944  10.902  11.220  0.00  0.00    +0.000 C 
ATOM     26  C   UNL     1      48.035  10.209  12.032  0.00  0.00    +0.000 C 
ATOM     27  C   UNL     1      47.757   8.716  12.184  0.00  0.00    +0.000 C 
ENDBRANCH  20  22
ENDBRANCH  15  16
ENDBRANCH   1  15
TORSDOF 5
ENDMDL
MODEL 4
REMARK VINA RESULT:    -8.020      1.639      2.210
REMARK INTER + INTRA:         -11.222
REMARK INTER:                 -10.260
REMARK INTRA:                  -0.962
REMARK UNBOUND:                -0.858
REMARK  Name = 
REMARK  5 active torsions:
REMARK  status: ('A' for Active; 'I' for Inactive)
REMARK    1  A    between atoms: C_2  and  C_4
REMARK    2  A    between atoms: N_8  and  C_9
REMARK    3  A    between atoms: C_9  and  C_10
REMARK    4  A    between atoms: C_10  and  C_11
REMARK    5  A    between atoms: C_15  and  C_16
REMARK                            x       y       z     vdW  Elec       q    Type
REMARK                         _______ _______ _______ _____ _____    ______ ____
ROOT
ATOM      1  C   UNL     1      43.310   3.685  11.232  0.00  0.00    +0.000 C 
ENDROOT
BRANCH   1   6
ATOM      2  C   UNL     1      46.504   2.825   7.374  0.00  0.00    +0.000 A 
ATOM      3  C   UNL     1      46.028   4.031   7.878  0.00  0.00    +0.000 A 
ATOM      4  C   UNL     1      45.298   4.030   9.067  0.00  0.00    +0.000 A 
ATOM      5  C   UNL     1      45.035   2.829   9.719  0.00  0.00    +0.000 A 
ATOM      6  N   UNL     1      44.395   2.758  10.947  0.00  0.00    +0.000 N 
ATOM      7  N   UNL     1      45.460   1.650   9.221  0.00  0.00    +0.000 NA
ATOM      8  C   UNL     1      46.176   1.667   8.064  0.00  0.00    +0.000 A 
ATOM      9  H   UNL     1      44.203   1.773  11.119  0.00  0.00    +0.000 HD
BRANCH   2  11
ATOM     10  N   UNL     1      48.666   2.467   6.334  0.00  0.00    +0.000 N 
ATOM     11  C   UNL     1      47.336   2.738   6.158  0.00  0.00    +0.000 C 
ATOM     12  O   UNL     1      46.856   2.864   5.041  0.00  0.00    +0.000 OA
ATOM     13  H   UNL     1      49.205   2.299   5.493  0.00  0.00    +0.000 HD
ATOM     14  H   UNL     1      49.040   2.115   7.202  0.00  0.00    +0.000 HD
ENDBRANCH   2  11
ENDBRANCH   1   6
BRANCH   1  15
ATOM     15  C   UNL     1      43.614   4.503  12.494  0.00  0.00    +0.000 C 
BRANCH  15  16
ATOM     16  C   UNL     1      44.490   5.686  12.178  0.00  0.00    +0.000 A 
ATOM     17  C   UNL     1      43.946   6.859  11.666  0.00  0.00    +0.000 A 
ATOM     18  N   UNL     1      44.658   7.977  11.414  0.00  0.00    +0.000 NA
ATOM     19  C   UNL     1      45.978   7.933  11.699  0.00  0.00    +0.000 A 
ATOM     20  C   UNL     1      46.633   6.824  12.231  0.00  0.00    +0.000 A 
ATOM     21  C   UNL     1      45.862   5.677  12.455  0.00  0.00    +0.000 A 
BRANCH  20  22
ATOM     22  C   UNL     1      48.094   6.923  12.614  0.00  0.00    +0.000 C 
ATOM     23  C   UNL     1      48.321   7.307  14.084  0.00  0.00    +0.000 C 
ATOM     24  C   UNL     1      49.816   7.344  14.411  0.00  0.00    +0.000 C 
ATOM     25  C   UNL     1      50.583   8.270  13.470  0.00  0.00    +0.000 C 
ATOM     26  C   UNL     1      50.333   7.930  12.003  0.00  0.00    +0.000 C 
ATOM     27  C   UNL     1      48.841   7.893  11.682  0.00  0.00    +0.000 C 
ENDBRANCH  20  22
ENDBRANCH  15  16
ENDBRANCH   1  15
TORSDOF 5
ENDMDL
MODEL 5
REMARK VINA RESULT:    -7.780      3.659      7.621
REMARK INTER + INTRA:         -10.912
REMARK INTER:                 -10.300
REMARK INTRA:                  -0.612
REMARK UNBOUND:                -0.858
REMARK  Name = 
REMARK  5 active torsions:
REMARK  status: ('A' for Active; 'I' for Inactive)
REMARK    1  A    between atoms: C_2  and  C_4
REMARK    2  A    between atoms: N_8  and  C_9
REMARK    3  A    between atoms: C_9  and  C_10
REMARK    4  A    between atoms: C_10  and  C_11
REMARK    5  A    between atoms: C_15  and  C_16
REMARK                            x       y       z     vdW  Elec       q    Type
REMARK                         _______ _______ _______ _____ _____    ______ ____
ROOT
ATOM      1  C   UNL     1      47.168   6.673  12.824  0.00  0.00    +0.000 C 
ENDROOT
BRANCH   1   6
ATOM      2  C   UNL     1      48.619   4.283  17.068  0.00  0.00    +0.000 A 
ATOM      3  C   UNL     1      48.930   5.563  16.622  0.00  0.00    +0.000 A 
ATOM      4  C   UNL     1      48.265   6.075  15.507  0.00  0.00    +0.000 A 
ATOM      5  C   UNL     1      47.321   5.296  14.844  0.00  0.00    +0.000 A 
ATOM      6  N   UNL     1      46.558   5.768  13.787  0.00  0.00    +0.000 N 
ATOM      7  N   UNL     1      47.038   4.041  15.246  0.00  0.00    +0.000 NA
ATOM      8  C   UNL     1      47.689   3.557  16.338  0.00  0.00    +0.000 A 
ATOM      9  H   UNL     1      46.066   4.964  13.401  0.00  0.00    +0.000 HD
BRANCH   2  11
ATOM     10  N   UNL     1      48.371   3.221  19.235  0.00  0.00    +0.000 N 
ATOM     11  C   UNL     1      49.226   3.686  18.273  0.00  0.00    +0.000 C 
ATOM     12  O   UNL     1      50.438   3.575  18.394  0.00  0.00    +0.000 OA
ATOM     13  H   UNL     1      48.792   2.714  20.004  0.00  0.00    +0.000 HD
ATOM     14  H   UNL     1      47.388   3.069  19.062  0.00  0.00    +0.000 HD
ENDBRANCH   2  11
ENDBRANCH   1   6
BRANCH   1  15
ATOM     15  C   UNL     1      46.101   7.299  11.917  0.00  0.00    +0.000 C 
BRANCH  15  16
ATOM     16  C   UNL     1      45.225   6.242  11.297  0.00  0.00    +0.000 A 
ATOM     17  C   UNL     1      43.874   6.160  11.615  0.00  0.00    +0.000 A 
ATOM     18  N   UNL     1      43.017   5.279  11.058  0.00  0.00    +0.000 NA
ATOM     19  C   UNL     1      43.527   4.445  10.124  0.00  0.00    +0.000 A 
ATOM     20  C   UNL     1      44.857   4.444   9.709  0.00  0.00    +0.000 A 
ATOM     21  C   UNL     1      45.717   5.357  10.330  0.00  0.00    +0.000 A 
BRANCH  20  22
ATOM     22  C   UNL     1      45.294   3.539   8.577  0.00  0.00    +0.000 C 
ATOM     23  C   UNL     1      45.785   2.161   9.047  0.00  0.00    +0.000 C 
ATOM     24  C   UNL     1      46.167   1.285   7.852  0.00  0.00    +0.000 C 
ATOM     25  C   UNL     1      47.197   1.964   6.952  0.00  0.00    +0.000 C 
ATOM     26  C   UNL     1      46.745   3.354   6.513  0.00  0.00    +0.000 C 
ATOM     27  C   UNL     1      46.364   4.223   7.708  0.00  0.00    +0.000 C 
ENDBRANCH  20  22
ENDBRANCH  15  16
ENDBRANCH   1  15
TORSDOF 5
ENDMDL
MODEL 6
REMARK VINA RESULT:    -7.600      3.126      6.915
REMARK INTER + INTRA:         -10.680
REMARK INTER:                  -9.984
REMARK INTRA:                  -0.696
REMARK UNBOUND:                -0.858
REMARK  Name = 
REMARK  5 active torsions:
REMARK  status: ('A' for Active; 'I' for Inactive)
REMARK    1  A    between atoms: C_2  and  C_4
REMARK    2  A    between atoms: N_8  and  C_9
REMARK    3  A    between atoms: C_9  and  C_10
REMARK    4  A    between atoms: C_10  and  C_11
REMARK    5  A    between atoms: C_15  and  C_16
REMARK                            x       y       z     vdW  Elec       q    Type
REMARK                         _______ _______ _______ _____ _____    ______ ____
ROOT
ATOM      1  C   UNL     1      44.409   6.383  12.625  0.00  0.00    +0.000 C 
ENDROOT
BRANCH   1   6
ATOM      2  C   UNL     1      49.081   8.384  12.612  0.00  0.00    +0.000 A 
ATOM      3  C   UNL     1      48.557   7.352  11.841  0.00  0.00    +0.000 A 
ATOM      4  C   UNL     1      47.187   7.094  11.891  0.00  0.00    +0.000 A 
ATOM      5  C   UNL     1      46.367   7.851  12.723  0.00  0.00    +0.000 A 
ATOM      6  N   UNL     1      44.989   7.712  12.759  0.00  0.00    +0.000 N 
ATOM      7  N   UNL     1      46.870   8.830  13.502  0.00  0.00    +0.000 NA
ATOM      8  C   UNL     1      48.206   9.075  13.439  0.00  0.00    +0.000 A 
ATOM      9  H   UNL     1      44.659   8.270  13.545  0.00  0.00    +0.000 HD
BRANCH   2  11
ATOM     10  N   UNL     1      51.368   8.032  13.341  0.00  0.00    +0.000 N 
ATOM     11  C   UNL     1      50.505   8.768  12.575  0.00  0.00    +0.000 C 
ATOM     12  O   UNL     1      50.906   9.678  11.863  0.00  0.00    +0.000 OA
ATOM     13  H   UNL     1      52.354   8.230  13.223  0.00  0.00    +0.000 HD
ATOM     14  H   UNL     1      51.119   7.137  13.734  0.00  0.00    +0.000 HD
ENDBRANCH   2  11
ENDBRANCH   1   6
BRANCH   1  15
ATOM     15  C   UNL     1      43.843   6.180  11.214  0.00  0.00    +0.000 C 
BRANCH  15  16
ATOM     16  C   UNL     1      44.016   4.756  10.757  0.00  0.00    +0.000 A 
ATOM     17  C   UNL     1      43.357   3.715  11.403  0.00  0.00    +0.000 A 
ATOM     18  N   UNL     1      43.419   2.424  11.015  0.00  0.00    +0.000 NA
ATOM     19  C   UNL     1      44.162   2.155   9.920  0.00  0.00    +0.000 A 
ATOM     20  C   UNL     1      44.852   3.112   9.179  0.00  0.00    +0.000 A 
ATOM     21  C   UNL     1      44.781   4.436   9.630  0.00  0.00    +0.000 A 
BRANCH  20  22
ATOM     22  C   UNL     1      45.565   2.712   7.905  0.00  0.00    +0.000 C 
ATOM     23  C   UNL     1      46.454   1.469   8.063  0.00  0.00    +0.000 C 
ATOM     24  C   UNL     1      47.107   1.096   6.730  0.00  0.00    +0.000 C 
ATOM     25  C   UNL     1      47.887   2.265   6.130  0.00  0.00    +0.000 C 
ATOM     26  C   UNL     1      47.030   3.522   6.009  0.00  0.00    +0.000 C 
ATOM     27  C   UNL     1      46.381   3.888   7.340  0.00  0.00    +0.000 C 
ENDBRANCH  20  22
ENDBRANCH  15  16
ENDBRANCH   1  15
TORSDOF 5
ENDMDL
MODEL 7
REMARK VINA RESULT:    -7.588      4.059      7.808
REMARK INTER + INTRA:         -10.664
REMARK INTER:                 -10.063
REMARK INTRA:                  -0.601
REMARK UNBOUND:                -0.858
REMARK  Name = 
REMARK  5 active torsions:
REMARK  status: ('A' for Active; 'I' for Inactive)
REMARK    1  A    between atoms: C_2  and  C_4
REMARK    2  A    between atoms: N_8  and  C_9
REMARK    3  A    between atoms: C_9  and  C_10
REMARK    4  A    between atoms: C_10  and  C_11
REMARK    5  A    between atoms: C_15  and  C_16
REMARK                            x       y       z     vdW  Elec       q    Type
REMARK                         _______ _______ _______ _____ _____    ______ ____
ROOT
ATOM      1  C   UNL     1      45.672   5.815  13.256  0.00  0.00    +0.000 C 
ENDROOT
BRANCH   1   6
ATOM      2  C   UNL     1      48.519   4.434  17.232  0.00  0.00    +0.000 A 
ATOM      3  C   UNL     1      47.387   3.827  16.701  0.00  0.00    +0.000 A 
ATOM      4  C   UNL     1      46.875   4.288  15.487  0.00  0.00    +0.000 A 
ATOM      5  C   UNL     1      47.486   5.356  14.837  0.00  0.00    +0.000 A 
ATOM      6  N   UNL     1      47.090   5.809  13.588  0.00  0.00    +0.000 N 
ATOM      7  N   UNL     1      48.562   5.975  15.361  0.00  0.00    +0.000 NA
ATOM      8  C   UNL     1      49.054   5.512  16.542  0.00  0.00    +0.000 A 
ATOM      9  H   UNL     1      47.596   6.677  13.418  0.00  0.00    +0.000 HD
BRANCH   2  11
ATOM     10  N   UNL     1      48.454   3.106  19.262  0.00  0.00    +0.000 N 
ATOM     11  C   UNL     1      49.165   3.973  18.477  0.00  0.00    +0.000 C 
ATOM     12  O   UNL     1      50.298   4.319  18.778  0.00  0.00    +0.000 OA
ATOM     13  H   UNL     1      48.946   2.710  20.053  0.00  0.00    +0.000 HD
ATOM     14  H   UNL     1      47.639   2.614  18.929  0.00  0.00    +0.000 HD
ENDBRANCH   2  11
ENDBRANCH   1   6
BRANCH   1  15
ATOM     15  C   UNL     1      45.470   6.034  11.752  0.00  0.00    +0.000 C 
BRANCH  15  16
ATOM     16  C   UNL     1      45.028   4.765  11.071  0.00  0.00    +0.000 A 
ATOM     17  C   UNL     1      43.947   4.036  11.555  0.00  0.00    +0.000 A 
ATOM     18  N   UNL     1      43.460   2.924  10.967  0.00  0.00    +0.000 NA
ATOM     19  C   UNL     1      44.069   2.523   9.829  0.00  0.00    +0.000 A 
ATOM     20  C   UNL     1      45.147   3.180   9.237  0.00  0.00    +0.000 A 
ATOM     21  C   UNL     1      45.637   4.315   9.894  0.00  0.00    +0.000 A 
BRANCH  20  22
ATOM     22  C   UNL     1      45.681   2.704   7.903  0.00  0.00    +0.000 C 
ATOM     23  C   UNL     1      46.559   1.447   8.006  0.00  0.00    +0.000 C 
ATOM     24  C   UNL     1      47.027   0.997   6.620  0.00  0.00    +0.000 C 
ATOM     25  C   UNL     1      47.744   2.117   5.868  0.00  0.00    +0.000 C 
ATOM     26  C   UNL     1      46.903   3.388   5.797  0.00  0.00    +0.000 C 
ATOM     27  C   UNL     1      46.438   3.832   7.181  0.00  0.00    +0.000 C 
ENDBRANCH  20  22
ENDBRANCH  15  16
ENDBRANCH   1  15
TORSDOF 5
ENDMDL
MODEL 8
REMARK VINA RESULT:    -7.166      3.021      6.946
REMARK INTER + INTRA:         -10.119
REMARK INTER:                  -9.209
REMARK INTRA:                  -0.910
REMARK UNBOUND:                -0.858
REMARK  Name = 
REMARK  5 active torsions:
REMARK  status: ('A' for Active; 'I' for Inactive)
REMARK    1  A    between atoms: C_2  and  C_4
REMARK    2  A    between atoms: N_8  and  C_9
REMARK    3  A    between atoms: C_9  and  C_10
REMARK    4  A    between atoms: C_10  and  C_11
REMARK    5  A    between atoms: C_15  and  C_16
REMARK                            x       y       z     vdW  Elec       q    Type
REMARK                         _______ _______ _______ _____ _____    ______ ____
ROOT
ATOM      1  C   UNL     1      46.128   3.185  13.185  0.00  0.00    +0.000 C 
ENDROOT
BRANCH   1   6
ATOM      2  C   UNL     1      48.478   7.685  12.950  0.00  0.00    +0.000 A 
ATOM      3  C   UNL     1      47.598   7.097  12.048  0.00  0.00    +0.000 A 
ATOM      4  C   UNL     1      46.932   5.926  12.412  0.00  0.00    +0.000 A 
ATOM      5  C   UNL     1      47.170   5.351  13.657  0.00  0.00    +0.000 A 
ATOM      6  N   UNL     1      46.482   4.241  14.123  0.00  0.00    +0.000 N 
ATOM      7  N   UNL     1      48.048   5.892  14.525  0.00  0.00    +0.000 NA
ATOM      8  C   UNL     1      48.686   7.037  14.159  0.00  0.00    +0.000 A 
ATOM      9  H   UNL     1      46.949   3.946  14.979  0.00  0.00    +0.000 HD
BRANCH   2  11
ATOM     10  N   UNL     1      49.052   9.473  11.413  0.00  0.00    +0.000 N 
ATOM     11  C   UNL     1      49.177   8.956  12.674  0.00  0.00    +0.000 C 
ATOM     12  O   UNL     1      49.808   9.541  13.542  0.00  0.00    +0.000 OA
ATOM     13  H   UNL     1      49.440  10.397  11.267  0.00  0.00    +0.000 HD
ATOM     14  H   UNL     1      48.350   9.156  10.762  0.00  0.00    +0.000 HD
ENDBRANCH   2  11
ENDBRANCH   1   6
BRANCH   1  15
ATOM     15  C   UNL     1      44.628   3.223  12.868  0.00  0.00    +0.000 C 
BRANCH  15  16
ATOM     16  C   UNL     1      44.384   3.605  11.432  0.00  0.00    +0.000 A 
ATOM     17  C   UNL     1      43.612   4.716  11.112  0.00  0.00    +0.000 A 
ATOM     18  N   UNL     1      43.397   5.151   9.853  0.00  0.00    +0.000 NA
ATOM     19  C   UNL     1      43.993   4.454   8.860  0.00  0.00    +0.000 A 
ATOM     20  C   UNL     1      44.803   3.337   9.057  0.00  0.00    +0.000 A 
ATOM     21  C   UNL     1      44.979   2.905  10.377  0.00  0.00    +0.000 A 
BRANCH  20  22
ATOM     22  C   UNL     1      45.508   2.699   7.879  0.00  0.00    +0.000 C 
ATOM     23  C   UNL     1      46.372   1.488   8.263  0.00  0.00    +0.000 C 
ATOM     24  C   UNL     1      47.018   0.868   7.021  0.00  0.00    +0.000 C 
ATOM     25  C   UNL     1      47.820   1.893   6.222  0.00  0.00    +0.000 C 
ATOM     26  C   UNL     1      46.987   3.123   5.872  0.00  0.00    +0.000 C 
ATOM     27  C   UNL     1      46.345   3.737   7.112  0.00  0.00    +0.000 C 
ENDBRANCH  20  22
ENDBRANCH  15  16
ENDBRANCH   1  15
TORSDOF 5
ENDMDL
MODEL 9
REMARK VINA RESULT:    -6.606      4.461      8.414
REMARK INTER + INTRA:          -9.394
REMARK INTER:                  -8.799
REMARK INTRA:                  -0.595
REMARK UNBOUND:                -0.858
REMARK  Name = 
REMARK  5 active torsions:
REMARK  status: ('A' for Active; 'I' for Inactive)
REMARK    1  A    between atoms: C_2  and  C_4
REMARK    2  A    between atoms: N_8  and  C_9
REMARK    3  A    between atoms: C_9  and  C_10
REMARK    4  A    between atoms: C_10  and  C_11
REMARK    5  A    between atoms: C_15  and  C_16
REMARK                            x       y       z     vdW  Elec       q    Type
REMARK                         _______ _______ _______ _____ _____    ______ ____
ROOT
ATOM      1  C   UNL     1      48.819   7.669  14.106  0.00  0.00    +0.000 C 
ENDROOT
BRANCH   1   6
ATOM      2  C   UNL     1      49.021   5.199  18.543  0.00  0.00    +0.000 A 
ATOM      3  C   UNL     1      49.189   6.553  18.274  0.00  0.00    +0.000 A 
ATOM      4  C   UNL     1      48.907   7.033  16.995  0.00  0.00    +0.000 A 
ATOM      5  C   UNL     1      48.485   6.154  16.001  0.00  0.00    +0.000 A 
ATOM      6  N   UNL     1      48.102   6.570  14.735  0.00  0.00    +0.000 N 
ATOM      7  N   UNL     1      48.354   4.834  16.240  0.00  0.00    +0.000 NA
ATOM      8  C   UNL     1      48.627   4.381  17.494  0.00  0.00    +0.000 A 
ATOM      9  H   UNL     1      47.986   5.728  14.174  0.00  0.00    +0.000 HD
BRANCH   2  11
ATOM     10  N   UNL     1      48.417   3.581  20.247  0.00  0.00    +0.000 N 
ATOM     11  C   UNL     1      49.236   4.615  19.881  0.00  0.00    +0.000 C 
ATOM     12  O   UNL     1      50.128   5.010  20.618  0.00  0.00    +0.000 OA
ATOM     13  H   UNL     1      48.643   3.115  21.117  0.00  0.00    +0.000 HD
ATOM     14  H   UNL     1      47.850   3.074  19.583  0.00  0.00    +0.000 HD
ENDBRANCH   2  11
ENDBRANCH   1   6
BRANCH   1  15
ATOM     15  C   UNL     1      48.670   7.610  12.581  0.00  0.00    +0.000 C 
BRANCH  15  16
ATOM     16  C   UNL     1      47.224   7.481  12.179  0.00  0.00    +0.000 A 
ATOM     17  C   UNL     1      46.340   8.540  12.350  0.00  0.00    +0.000 A 
ATOM     18  N   UNL     1      45.048   8.518  11.962  0.00  0.00    +0.000 NA
ATOM     19  C   UNL     1      44.615   7.389  11.359  0.00  0.00    +0.000 A 
ATOM     20  C   UNL     1      45.410   6.270  11.115  0.00  0.00    +0.000 A 
ATOM     21  C   UNL     1      46.737   6.326  11.555  0.00  0.00    +0.000 A 
BRANCH  20  22
ATOM     22  C   UNL     1      44.849   5.102  10.334  0.00  0.00    +0.000 C 
ATOM     23  C   UNL     1      44.768   3.801  11.147  0.00  0.00    +0.000 C 
ATOM     24  C   UNL     1      44.152   2.676  10.311  0.00  0.00    +0.000 C 
ATOM     25  C   UNL     1      44.903   2.465   8.998  0.00  0.00    +0.000 C 
ATOM     26  C   UNL     1      45.031   3.758   8.198  0.00  0.00    +0.000 C 
ATOM     27  C   UNL     1      45.644   4.876   9.036  0.00  0.00    +0.000 C 
ENDBRANCH  20  22
ENDBRANCH  15  16
ENDBRANCH   1  15
TORSDOF 5
ENDMDL
