MODEL 1
REMARK VINA RESULT:    -9.249      0.000      0.000
REMARK INTER + INTRA:         -11.660
REMARK INTER:                 -11.953
REMARK INTRA:                   0.293
REMARK UNBOUND:                 0.293
REMARK  Name = 
REMARK  5 active torsions:
REMARK  status: ('A' for Active; 'I' for Inactive)
REMARK    1  A    between atoms: C_2  and  C_4
REMARK    2  A    between atoms: C_7  and  O_8
REMARK    3  A    between atoms: O_8  and  C_9
REMARK    4  A    between atoms: C_9  and  C_10
REMARK    5  A    between atoms: C_15  and  C_16
REMARK                            x       y       z     vdW  Elec       q    Type
REMARK                         _______ _______ _______ _____ _____    ______ ____
ROOT
ATOM      1  C   UNL     1      43.696   4.985  11.038  0.00  0.00    +0.000 C 
ATOM      2  C   UNL     1      43.018   3.816  11.747  0.00  0.00    +0.000 C 
ATOM      3  C   UNL     1      42.420   5.182  11.827  0.00  0.00    +0.000 C 
ENDROOT
BRANCH   1   4
ATOM      4  C   UNL     1      45.031   5.470  11.591  0.00  0.00    +0.000 A 
ATOM      5  C   UNL     1      45.730   6.509  10.971  0.00  0.00    +0.000 A 
ATOM      6  C   UNL     1      46.958   6.945  11.466  0.00  0.00    +0.000 A 
ATOM      7  C   UNL     1      47.529   6.342  12.595  0.00  0.00    +0.000 A 
ATOM      8 CL   UNL     1      49.111   6.906  13.020  0.00  0.00    +0.000 Cl
ATOM      9  C   UNL     1      46.857   5.314  13.289  0.00  0.00    +0.000 A 
ATOM     10  C   UNL     1      45.607   4.910  12.754  0.00  0.00    +0.000 A 
BRANCH   9  11
ATOM     11  C   UNL     1      47.370   4.646  14.512  0.00  0.00    +0.000 A 
ATOM     12  C   UNL     1      47.772   5.311  15.662  0.00  0.00    +0.000 A 
ATOM     13  N   UNL     1      48.244   4.719  16.786  0.00  0.00    +0.000 NA
ATOM     14  C   UNL     1      48.291   3.383  16.761  0.00  0.00    +0.000 A 
ATOM     15  N   UNL     1      47.917   2.609  15.737  0.00  0.00    +0.000 NA
ATOM     16  C   UNL     1      47.466   3.265  14.641  0.00  0.00    +0.000 A 
ENDBRANCH   9  11
ENDBRANCH   1   4
BRANCH   1  17
ATOM     17  O   UNL     1      43.600   4.811   9.606  0.00  0.00    +0.000 OA
BRANCH  17  21
ATOM     18  C   UNL     1      46.347   2.313   7.832  0.00  0.00    +0.000 A 
ATOM     19  C   UNL     1      45.398   1.799   8.715  0.00  0.00    +0.000 A 
ATOM     20  C   UNL     1      44.486   2.669   9.302  0.00  0.00    +0.000 A 
ATOM     21  C   UNL     1      44.554   4.021   8.990  0.00  0.00    +0.000 A 
ATOM     22  N   UNL     1      45.455   4.554   8.139  0.00  0.00    +0.000 NA
ATOM     23  C   UNL     1      46.344   3.685   7.590  0.00  0.00    +0.000 A 
BRANCH  18  25
ATOM     24  N   UNL     1      48.380   2.102   6.510  0.00  0.00    +0.000 N 
ATOM     25  C   UNL     1      47.367   1.468   7.176  0.00  0.00    +0.000 C 
ATOM     26  O   UNL     1      47.324   0.246   7.247  0.00  0.00    +0.000 OA
ATOM     27  H   UNL     1      49.112   1.510   6.136  0.00  0.00    +0.000 HD
ATOM     28  H   UNL     1      48.590   3.082   6.628  0.00  0.00    +0.000 HD
ENDBRANCH  18  25
ENDBRANCH  17  21
ENDBRANCH   1  17
TORSDOF 5
ENDMDL
MODEL 2
REMARK VINA RESULT:    -8.931      2.470      3.622
REMARK INTER + INTRA:         -11.248
REMARK INTER:                 -10.567
REMARK INTRA:                  -0.682
REMARK UNBOUND:                 0.293
REMARK  Name = 
REMARK  5 active torsions:
REMARK  status: ('A' for Active; 'I' for Inactive)
REMARK    1  A    between atoms: C_2  and  C_4
REMARK    2  A    between atoms: C_7  and  O_8
REMARK    3  A    between atoms: O_8  and  C_9
REMARK    4  A    between atoms: C_9  and  C_10
REMARK    5  A    between atoms: C_15  and  C_16
REMARK                            x       y       z     vdW  Elec       q    Type
REMARK                         _______ _______ _______ _____ _____    ______ ____
ROOT
ATOM      1  C   UNL     1      43.941   4.878  11.397  0.00  0.00    +0.000 C 
ATOM      2  C   UNL     1      42.585   5.173  12.033  0.00  0.00    +0.000 C 
ATOM      3  C   UNL     1      43.033   5.954  10.841  0.00  0.00    +0.000 C 
ENDROOT
BRANCH   1   4
ATOM      4  C   UNL     1      45.190   5.252  12.187  0.00  0.00    +0.000 A 
ATOM      5  C   UNL     1      45.628   4.462  13.253  0.00  0.00    +0.000 A 
ATOM      6  C   UNL     1      46.761   4.810  13.987  0.00  0.00    +0.000 A 
ATOM      7  C   UNL     1      47.483   5.971  13.680  0.00  0.00    +0.000 A 
ATOM      8 CL   UNL     1      48.794   6.337  14.753  0.00  0.00    +0.000 Cl
ATOM      9  C   UNL     1      47.116   6.791  12.593  0.00  0.00    +0.000 A 
ATOM     10  C   UNL     1      45.962   6.393  11.870  0.00  0.00    +0.000 A 
BRANCH   9  11
ATOM     11  C   UNL     1      47.844   8.016  12.175  0.00  0.00    +0.000 A 
ATOM     12  C   UNL     1      49.155   8.036  11.721  0.00  0.00    +0.000 A 
ATOM     13  N   UNL     1      49.836   9.143  11.337  0.00  0.00    +0.000 NA
ATOM     14  C   UNL     1      49.152  10.290  11.390  0.00  0.00    +0.000 A 
ATOM     15  N   UNL     1      47.881  10.422  11.782  0.00  0.00    +0.000 NA
ATOM     16  C   UNL     1      47.263   9.279  12.164  0.00  0.00    +0.000 A 
ENDBRANCH   9  11
ENDBRANCH   1   4
BRANCH   1  17
ATOM     17  O   UNL     1      43.918   3.571  10.780  0.00  0.00    +0.000 OA
BRANCH  17  21
ATOM     18  C   UNL     1      46.429   2.731   7.629  0.00  0.00    +0.000 A 
ATOM     19  C   UNL     1      45.877   1.695   8.384  0.00  0.00    +0.000 A 
ATOM     20  C   UNL     1      45.037   2.011   9.445  0.00  0.00    +0.000 A 
ATOM     21  C   UNL     1      44.777   3.348   9.719  0.00  0.00    +0.000 A 
ATOM     22  N   UNL     1      45.288   4.375   9.010  0.00  0.00    +0.000 NA
ATOM     23  C   UNL     1      46.119   4.040   7.987  0.00  0.00    +0.000 A 
BRANCH  18  25
ATOM     24  N   UNL     1      47.165   3.240   5.366  0.00  0.00    +0.000 N 
ATOM     25  C   UNL     1      47.347   2.490   6.497  0.00  0.00    +0.000 C 
ATOM     26  O   UNL     1      48.253   1.671   6.574  0.00  0.00    +0.000 OA
ATOM     27  H   UNL     1      47.852   3.118   4.631  0.00  0.00    +0.000 HD
ATOM     28  H   UNL     1      46.603   4.077   5.344  0.00  0.00    +0.000 HD
ENDBRANCH  18  25
ENDBRANCH  17  21
ENDBRANCH   1  17
TORSDOF 5
ENDMDL
MODEL 3
REMARK VINA RESULT:    -8.336      2.312      2.892
REMARK INTER + INTRA:         -10.479
REMARK INTER:                 -10.787
REMARK INTRA:                   0.307
REMARK UNBOUND:                 0.293
REMARK  Name = 
REMARK  5 active torsions:
REMARK  status: ('A' for Active; 'I' for Inactive)
REMARK    1  A    between atoms: C_2  and  C_4
REMARK    2  A    between atoms: C_7  and  O_8
REMARK    3  A    between atoms: O_8  and  C_9
REMARK    4  A    between atoms: C_9  and  C_10
REMARK    5  A    between atoms: C_15  and  C_16
REMARK                            x       y       z     vdW  Elec       q    Type
REMARK                         _______ _______ _______ _____ _____    ______ ____
ROOT
ATOM      1  C   UNL     1      44.089   4.139  11.497  0.00  0.00    +0.000 C 
ATOM      2  C   UNL     1      44.908   3.050  12.186  0.00  0.00    +0.000 C 
ATOM      3  C   UNL     1      43.559   3.412  12.714  0.00  0.00    +0.000 C 
ENDROOT
BRANCH   1   4
ATOM      4  C   UNL     1      44.586   5.575  11.609  0.00  0.00    +0.000 A 
ATOM      5  C   UNL     1      43.752   6.650  11.291  0.00  0.00    +0.000 A 
ATOM      6  C   UNL     1      44.209   7.965  11.378  0.00  0.00    +0.000 A 
ATOM      7  C   UNL     1      45.523   8.240  11.778  0.00  0.00    +0.000 A 
ATOM      8 CL   UNL     1      45.984   9.909  11.722  0.00  0.00    +0.000 Cl
ATOM      9  C   UNL     1      46.404   7.202  12.149  0.00  0.00    +0.000 A 
ATOM     10  C   UNL     1      45.893   5.883  12.053  0.00  0.00    +0.000 A 
BRANCH   9  11
ATOM     11  C   UNL     1      47.798   7.406  12.619  0.00  0.00    +0.000 A 
ATOM     12  C   UNL     1      48.862   7.754  11.798  0.00  0.00    +0.000 A 
ATOM     13  N   UNL     1      50.139   7.942  12.208  0.00  0.00    +0.000 NA
ATOM     14  C   UNL     1      50.355   7.797  13.519  0.00  0.00    +0.000 A 
ATOM     15  N   UNL     1      49.427   7.488  14.431  0.00  0.00    +0.000 NA
ATOM     16  C   UNL     1      48.174   7.301  13.952  0.00  0.00    +0.000 A 
ENDBRANCH   9  11
ENDBRANCH   1   4
BRANCH   1  17
ATOM     17  O   UNL     1      43.674   3.685  10.189  0.00  0.00    +0.000 OA
BRANCH  17  21
ATOM     18  C   UNL     1      46.581   2.642   7.469  0.00  0.00    +0.000 A 
ATOM     19  C   UNL     1      45.987   1.668   8.271  0.00  0.00    +0.000 A 
ATOM     20  C   UNL     1      45.012   2.052   9.183  0.00  0.00    +0.000 A 
ATOM     21  C   UNL     1      44.664   3.394   9.267  0.00  0.00    +0.000 A 
ATOM     22  N   UNL     1      45.213   4.363   8.507  0.00  0.00    +0.000 NA
ATOM     23  C   UNL     1      46.174   3.964   7.633  0.00  0.00    +0.000 A 
BRANCH  18  25
ATOM     24  N   UNL     1      47.728   3.128   5.378  0.00  0.00    +0.000 N 
ATOM     25  C   UNL     1      47.639   2.330   6.485  0.00  0.00    +0.000 C 
ATOM     26  O   UNL     1      48.424   1.408   6.665  0.00  0.00    +0.000 OA
ATOM     27  H   UNL     1      48.507   2.950   4.756  0.00  0.00    +0.000 HD
ATOM     28  H   UNL     1      47.273   4.026   5.307  0.00  0.00    +0.000 HD
ENDBRANCH  18  25
ENDBRANCH  17  21
ENDBRANCH   1  17
TORSDOF 5
ENDMDL
MODEL 4
REMARK VINA RESULT:    -8.028      1.807      2.554
REMARK INTER + INTRA:         -10.081
REMARK INTER:                  -9.905
REMARK INTRA:                  -0.176
REMARK UNBOUND:                 0.293
REMARK  Name = 
REMARK  5 active torsions:
REMARK  status: ('A' for Active; 'I' for Inactive)
REMARK    1  A    between atoms: C_2  and  C_4
REMARK    2  A    between atoms: C_7  and  O_8
REMARK    3  A    between atoms: O_8  and  C_9
REMARK    4  A    between atoms: C_9  and  C_10
REMARK    5  A    between atoms: C_15  and  C_16
REMARK                            x       y       z     vdW  Elec       q    Type
REMARK                         _______ _______ _______ _____ _____    ______ ____
ROOT
ATOM      1  C   UNL     1      44.345   5.433  10.988  0.00  0.00    +0.000 C 
ATOM      2  C   UNL     1      43.173   6.296  11.448  0.00  0.00    +0.000 C 
ATOM      3  C   UNL     1      44.294   6.913  10.678  0.00  0.00    +0.000 C 
ENDROOT
BRANCH   1   4
ATOM      4  C   UNL     1      45.292   4.898  12.055  0.00  0.00    +0.000 A 
ATOM      5  C   UNL     1      45.318   3.538  12.375  0.00  0.00    +0.000 A 
ATOM      6  C   UNL     1      46.172   3.049  13.363  0.00  0.00    +0.000 A 
ATOM      7  C   UNL     1      47.020   3.913  14.067  0.00  0.00    +0.000 A 
ATOM      8 CL   UNL     1      47.934   3.181  15.345  0.00  0.00    +0.000 Cl
ATOM      9  C   UNL     1      47.070   5.291  13.766  0.00  0.00    +0.000 A 
ATOM     10  C   UNL     1      46.190   5.741  12.750  0.00  0.00    +0.000 A 
BRANCH   9  11
ATOM     11  C   UNL     1      47.963   6.269  14.436  0.00  0.00    +0.000 A 
ATOM     12  C   UNL     1      48.299   7.512  13.917  0.00  0.00    +0.000 A 
ATOM     13  N   UNL     1      49.113   8.417  14.512  0.00  0.00    +0.000 NA
ATOM     14  C   UNL     1      49.595   8.064  15.708  0.00  0.00    +0.000 A 
ATOM     15  N   UNL     1      49.340   6.914  16.342  0.00  0.00    +0.000 NA
ATOM     16  C   UNL     1      48.530   6.050  15.686  0.00  0.00    +0.000 A 
ENDBRANCH   9  11
ENDBRANCH   1   4
BRANCH   1  17
ATOM     17  O   UNL     1      43.899   4.502   9.975  0.00  0.00    +0.000 OA
BRANCH  17  21
ATOM     18  C   UNL     1      46.668   2.773   7.469  0.00  0.00    +0.000 A 
ATOM     19  C   UNL     1      45.861   1.976   8.281  0.00  0.00    +0.000 A 
ATOM     20  C   UNL     1      44.939   2.590   9.121  0.00  0.00    +0.000 A 
ATOM     21  C   UNL     1      44.854   3.976   9.123  0.00  0.00    +0.000 A 
ATOM     22  N   UNL     1      45.614   4.779   8.350  0.00  0.00    +0.000 NA
ATOM     23  C   UNL     1      46.518   4.155   7.550  0.00  0.00    +0.000 A 
BRANCH  18  25
ATOM     24  N   UNL     1      47.884   2.840   5.362  0.00  0.00    +0.000 N 
ATOM     25  C   UNL     1      47.688   2.210   6.561  0.00  0.00    +0.000 C 
ATOM     26  O   UNL     1      48.353   1.231   6.877  0.00  0.00    +0.000 OA
ATOM     27  H   UNL     1      48.642   2.489   4.787  0.00  0.00    +0.000 HD
ATOM     28  H   UNL     1      47.544   3.769   5.165  0.00  0.00    +0.000 HD
ENDBRANCH  18  25
ENDBRANCH  17  21
ENDBRANCH   1  17
TORSDOF 5
ENDMDL
MODEL 5
REMARK VINA RESULT:    -7.738      3.133      7.354
REMARK INTER + INTRA:          -9.707
REMARK INTER:                  -9.142
REMARK INTRA:                  -0.565
REMARK UNBOUND:                 0.293
REMARK  Name = 
REMARK  5 active torsions:
REMARK  status: ('A' for Active; 'I' for Inactive)
REMARK    1  A    between atoms: C_2  and  C_4
REMARK    2  A    between atoms: C_7  and  O_8
REMARK    3  A    between atoms: O_8  and  C_9
REMARK    4  A    between atoms: C_9  and  C_10
REMARK    5  A    between atoms: C_15  and  C_16
REMARK                            x       y       z     vdW  Elec       q    Type
REMARK                         _______ _______ _______ _____ _____    ______ ____
ROOT
ATOM      1  C   UNL     1      48.373   7.908  12.576  0.00  0.00    +0.000 C 
ATOM      2  C   UNL     1      49.173   8.681  11.530  0.00  0.00    +0.000 C 
ATOM      3  C   UNL     1      48.707   9.371  12.770  0.00  0.00    +0.000 C 
ENDROOT
BRANCH   1   4
ATOM      4  C   UNL     1      46.957   7.481  12.209  0.00  0.00    +0.000 A 
ATOM      5  C   UNL     1      45.847   8.160  12.718  0.00  0.00    +0.000 A 
ATOM      6  C   UNL     1      44.550   7.761  12.396  0.00  0.00    +0.000 A 
ATOM      7  C   UNL     1      44.328   6.660  11.560  0.00  0.00    +0.000 A 
ATOM      8 CL   UNL     1      42.667   6.211  11.348  0.00  0.00    +0.000 Cl
ATOM      9  C   UNL     1      45.404   5.955  10.982  0.00  0.00    +0.000 A 
ATOM     10  C   UNL     1      46.704   6.401  11.331  0.00  0.00    +0.000 A 
BRANCH   9  11
ATOM     11  C   UNL     1      45.259   4.802  10.058  0.00  0.00    +0.000 A 
ATOM     12  C   UNL     1      44.670   3.591  10.397  0.00  0.00    +0.000 A 
ATOM     13  N   UNL     1      44.530   2.528   9.568  0.00  0.00    +0.000 NA
ATOM     14  C   UNL     1      44.985   2.701   8.323  0.00  0.00    +0.000 A 
ATOM     15  N   UNL     1      45.552   3.814   7.848  0.00  0.00    +0.000 NA
ATOM     16  C   UNL     1      45.672   4.834   8.731  0.00  0.00    +0.000 A 
ENDBRANCH   9  11
ENDBRANCH   1   4
BRANCH   1  17
ATOM     17  O   UNL     1      49.218   6.919  13.206  0.00  0.00    +0.000 OA
BRANCH  17  21
ATOM     18  C   UNL     1      47.691   4.916  16.460  0.00  0.00    +0.000 A 
ATOM     19  C   UNL     1      48.526   6.018  16.642  0.00  0.00    +0.000 A 
ATOM     20  C   UNL     1      49.030   6.671  15.523  0.00  0.00    +0.000 A 
ATOM     21  C   UNL     1      48.686   6.201  14.262  0.00  0.00    +0.000 A 
ATOM     22  N   UNL     1      47.880   5.142  14.046  0.00  0.00    +0.000 NA
ATOM     23  C   UNL     1      47.412   4.512  15.157  0.00  0.00    +0.000 A 
BRANCH  18  25
ATOM     24  N   UNL     1      47.094   4.759  18.814  0.00  0.00    +0.000 N 
ATOM     25  C   UNL     1      47.125   4.149  17.590  0.00  0.00    +0.000 C 
ATOM     26  O   UNL     1      46.675   3.021  17.433  0.00  0.00    +0.000 OA
ATOM     27  H   UNL     1      46.631   4.251  19.559  0.00  0.00    +0.000 HD
ATOM     28  H   UNL     1      47.224   5.752  18.940  0.00  0.00    +0.000 HD
ENDBRANCH  18  25
ENDBRANCH  17  21
ENDBRANCH   1  17
TORSDOF 5
ENDMDL
MODEL 6
REMARK VINA RESULT:    -7.485      4.152      8.124
REMARK INTER + INTRA:          -9.380
REMARK INTER:                  -9.173
REMARK INTRA:                  -0.207
REMARK UNBOUND:                 0.293
REMARK  Name = 
REMARK  5 active torsions:
REMARK  status: ('A' for Active; 'I' for Inactive)
REMARK    1  A    between atoms: C_2  and  C_4
REMARK    2  A    between atoms: C_7  and  O_8
REMARK    3  A    between atoms: O_8  and  C_9
REMARK    4  A    between atoms: C_9  and  C_10
REMARK    5  A    between atoms: C_15  and  C_16
REMARK                            x       y       z     vdW  Elec       q    Type
REMARK                         _______ _______ _______ _____ _____    ______ ____
ROOT
ATOM      1  C   UNL     1      48.173   4.653  17.039  0.00  0.00    +0.000 C 
ATOM      2  C   UNL     1      47.149   4.886  18.147  0.00  0.00    +0.000 C 
ATOM      3  C   UNL     1      47.351   3.512  17.599  0.00  0.00    +0.000 C 
ENDROOT
BRANCH   1   4
ATOM      4  C   UNL     1      47.866   5.223  15.660  0.00  0.00    +0.000 A 
ATOM      5  C   UNL     1      48.664   6.226  15.104  0.00  0.00    +0.000 A 
ATOM      6  C   UNL     1      48.375   6.761  13.849  0.00  0.00    +0.000 A 
ATOM      7  C   UNL     1      47.269   6.311  13.117  0.00  0.00    +0.000 A 
ATOM      8 CL   UNL     1      46.968   7.151  11.631  0.00  0.00    +0.000 Cl
ATOM      9  C   UNL     1      46.445   5.274  13.604  0.00  0.00    +0.000 A 
ATOM     10  C   UNL     1      46.782   4.756  14.881  0.00  0.00    +0.000 A 
BRANCH   9  11
ATOM     11  C   UNL     1      45.277   4.713  12.881  0.00  0.00    +0.000 A 
ATOM     12  C   UNL     1      45.298   3.536  12.145  0.00  0.00    +0.000 A 
ATOM     13  N   UNL     1      44.243   3.010  11.477  0.00  0.00    +0.000 NA
ATOM     14  C   UNL     1      43.097   3.691  11.576  0.00  0.00    +0.000 A 
ATOM     15  N   UNL     1      42.920   4.822  12.265  0.00  0.00    +0.000 NA
ATOM     16  C   UNL     1      44.018   5.300  12.899  0.00  0.00    +0.000 A 
ENDBRANCH   9  11
ENDBRANCH   1   4
BRANCH   1  17
ATOM     17  O   UNL     1      49.508   4.858  17.556  0.00  0.00    +0.000 OA
BRANCH  17  21
ATOM     18  C   UNL     1      52.177   1.727  17.656  0.00  0.00    +0.000 A 
ATOM     19  C   UNL     1      52.485   2.934  18.284  0.00  0.00    +0.000 A 
ATOM     20  C   UNL     1      51.565   3.974  18.229  0.00  0.00    +0.000 A 
ATOM     21  C   UNL     1      50.371   3.777  17.547  0.00  0.00    +0.000 A 
ATOM     22  N   UNL     1      50.037   2.625  16.930  0.00  0.00    +0.000 NA
ATOM     23  C   UNL     1      50.960   1.628  16.986  0.00  0.00    +0.000 A 
BRANCH  18  25
ATOM     24  N   UNL     1      52.788  -0.493  18.444  0.00  0.00    +0.000 N 
ATOM     25  C   UNL     1      53.101   0.574  17.646  0.00  0.00    +0.000 C 
ATOM     26  O   UNL     1      54.096   0.560  16.933  0.00  0.00    +0.000 OA
ATOM     27  H   UNL     1      53.389  -1.305  18.365  0.00  0.00    +0.000 HD
ATOM     28  H   UNL     1      51.876  -0.627  18.853  0.00  0.00    +0.000 HD
ENDBRANCH  18  25
ENDBRANCH  17  21
ENDBRANCH   1  17
TORSDOF 5
ENDMDL
MODEL 7
REMARK VINA RESULT:    -7.224      3.023      4.900
REMARK INTER + INTRA:          -9.042
REMARK INTER:                  -8.261
REMARK INTRA:                  -0.781
REMARK UNBOUND:                 0.293
REMARK  Name = 
REMARK  5 active torsions:
REMARK  status: ('A' for Active; 'I' for Inactive)
REMARK    1  A    between atoms: C_2  and  C_4
REMARK    2  A    between atoms: C_7  and  O_8
REMARK    3  A    between atoms: O_8  and  C_9
REMARK    4  A    between atoms: C_9  and  C_10
REMARK    5  A    between atoms: C_15  and  C_16
REMARK                            x       y       z     vdW  Elec       q    Type
REMARK                         _______ _______ _______ _____ _____    ______ ____
ROOT
ATOM      1  C   UNL     1      48.011   8.149  12.531  0.00  0.00    +0.000 C 
ATOM      2  C   UNL     1      48.834   9.152  11.727  0.00  0.00    +0.000 C 
ATOM      3  C   UNL     1      49.083   7.688  11.566  0.00  0.00    +0.000 C 
ENDROOT
BRANCH   1   4
ATOM      4  C   UNL     1      48.247   8.085  14.036  0.00  0.00    +0.000 A 
ATOM      5  C   UNL     1      48.218   9.244  14.816  0.00  0.00    +0.000 A 
ATOM      6  C   UNL     1      48.449   9.190  16.190  0.00  0.00    +0.000 A 
ATOM      7  C   UNL     1      48.727   7.971  16.822  0.00  0.00    +0.000 A 
ATOM      8 CL   UNL     1      49.111   8.077  18.508  0.00  0.00    +0.000 Cl
ATOM      9  C   UNL     1      48.733   6.760  16.098  0.00  0.00    +0.000 A 
ATOM     10  C   UNL     1      48.485   6.863  14.705  0.00  0.00    +0.000 A 
BRANCH   9  11
ATOM     11  C   UNL     1      48.982   5.423  16.692  0.00  0.00    +0.000 A 
ATOM     12  C   UNL     1      48.020   4.431  16.828  0.00  0.00    +0.000 A 
ATOM     13  N   UNL     1      48.228   3.206  17.368  0.00  0.00    +0.000 NA
ATOM     14  C   UNL     1      49.478   2.955  17.772  0.00  0.00    +0.000 A 
ATOM     15  N   UNL     1      50.510   3.801  17.683  0.00  0.00    +0.000 NA
ATOM     16  C   UNL     1      50.230   5.012  17.145  0.00  0.00    +0.000 A 
ENDBRANCH   9  11
ENDBRANCH   1   4
BRANCH   1  17
ATOM     17  O   UNL     1      46.639   8.167  12.079  0.00  0.00    +0.000 OA
BRANCH  17  21
ATOM     18  C   UNL     1      44.669   4.575  11.683  0.00  0.00    +0.000 A 
ATOM     19  C   UNL     1      44.577   5.300  12.871  0.00  0.00    +0.000 A 
ATOM     20  C   UNL     1      45.257   6.508  12.976  0.00  0.00    +0.000 A 
ATOM     21  C   UNL     1      46.008   6.949  11.894  0.00  0.00    +0.000 A 
ATOM     22  N   UNL     1      46.120   6.278  10.730  0.00  0.00    +0.000 NA
ATOM     23  C   UNL     1      45.457   5.093  10.658  0.00  0.00    +0.000 A 
BRANCH  18  25
ATOM     24  N   UNL     1      43.777   2.504  12.599  0.00  0.00    +0.000 N 
ATOM     25  C   UNL     1      43.997   3.273  11.489  0.00  0.00    +0.000 C 
ATOM     26  O   UNL     1      43.625   2.907  10.381  0.00  0.00    +0.000 OA
ATOM     27  H   UNL     1      43.245   1.653  12.459  0.00  0.00    +0.000 HD
ATOM     28  H   UNL     1      43.842   2.862  13.540  0.00  0.00    +0.000 HD
ENDBRANCH  18  25
ENDBRANCH  17  21
ENDBRANCH   1  17
TORSDOF 5
ENDMDL
MODEL 8
REMARK VINA RESULT:    -6.968      2.964      7.470
REMARK INTER + INTRA:          -8.711
REMARK INTER:                  -8.056
REMARK INTRA:                  -0.655
REMARK UNBOUND:                 0.293
REMARK  Name = 
REMARK  5 active torsions:
REMARK  status: ('A' for Active; 'I' for Inactive)
REMARK    1  A    between atoms: C_2  and  C_4
REMARK    2  A    between atoms: C_7  and  O_8
REMARK    3  A    between atoms: O_8  and  C_9
REMARK    4  A    between atoms: C_9  and  C_10
REMARK    5  A    between atoms: C_15  and  C_16
REMARK                            x       y       z     vdW  Elec       q    Type
REMARK                         _______ _______ _______ _____ _____    ______ ____
ROOT
ATOM      1  C   UNL     1      45.620   6.104  11.618  0.00  0.00    +0.000 C 
ATOM      2  C   UNL     1      45.119   7.437  11.066  0.00  0.00    +0.000 C 
ATOM      3  C   UNL     1      44.595   6.927  12.368  0.00  0.00    +0.000 C 
ENDROOT
BRANCH   1   4
ATOM      4  C   UNL     1      45.205   4.835  10.884  0.00  0.00    +0.000 A 
ATOM      5  C   UNL     1      44.149   4.049  11.351  0.00  0.00    +0.000 A 
ATOM      6  C   UNL     1      43.777   2.878  10.690  0.00  0.00    +0.000 A 
ATOM      7  C   UNL     1      44.463   2.456   9.544  0.00  0.00    +0.000 A 
ATOM      8 CL   UNL     1      43.968   0.923   8.904  0.00  0.00    +0.000 Cl
ATOM      9  C   UNL     1      45.514   3.223   8.999  0.00  0.00    +0.000 A 
ATOM     10  C   UNL     1      45.851   4.409   9.701  0.00  0.00    +0.000 A 
BRANCH   9  11
ATOM     11  C   UNL     1      46.269   2.870   7.771  0.00  0.00    +0.000 A 
ATOM     12  C   UNL     1      46.290   3.634   6.613  0.00  0.00    +0.000 A 
ATOM     13  N   UNL     1      46.972   3.327   5.483  0.00  0.00    +0.000 NA
ATOM     14  C   UNL     1      47.692   2.201   5.529  0.00  0.00    +0.000 A 
ATOM     15  N   UNL     1      47.787   1.379   6.579  0.00  0.00    +0.000 NA
ATOM     16  C   UNL     1      47.071   1.739   7.671  0.00  0.00    +0.000 A 
ENDBRANCH   9  11
ENDBRANCH   1   4
BRANCH   1  17
ATOM     17  O   UNL     1      47.009   6.223  11.998  0.00  0.00    +0.000 OA
BRANCH  17  21
ATOM     18  C   UNL     1      47.945   5.149  15.859  0.00  0.00    +0.000 A 
ATOM     19  C   UNL     1      47.165   4.308  15.065  0.00  0.00    +0.000 A 
ATOM     20  C   UNL     1      46.863   4.700  13.766  0.00  0.00    +0.000 A 
ATOM     21  C   UNL     1      47.344   5.919  13.306  0.00  0.00    +0.000 A 
ATOM     22  N   UNL     1      48.102   6.757  14.042  0.00  0.00    +0.000 NA
ATOM     23  C   UNL     1      48.372   6.356  15.313  0.00  0.00    +0.000 A 
BRANCH  18  25
ATOM     24  N   UNL     1      49.547   5.180  17.690  0.00  0.00    +0.000 N 
ATOM     25  C   UNL     1      48.300   4.822  17.256  0.00  0.00    +0.000 C 
ATOM     26  O   UNL     1      47.502   4.276  18.006  0.00  0.00    +0.000 OA
ATOM     27  H   UNL     1      49.745   5.021  18.671  0.00  0.00    +0.000 HD
ATOM     28  H   UNL     1      50.137   5.834  17.197  0.00  0.00    +0.000 HD
ENDBRANCH  18  25
ENDBRANCH  17  21
ENDBRANCH   1  17
TORSDOF 5
ENDMDL
MODEL 9
REMARK VINA RESULT:    -6.799      3.003      4.912
REMARK INTER + INTRA:          -8.493
REMARK INTER:                  -7.982
REMARK INTRA:                  -0.510
REMARK UNBOUND:                 0.293
REMARK  Name = 
REMARK  5 active torsions:
REMARK  status: ('A' for Active; 'I' for Inactive)
REMARK    1  A    between atoms: C_2  and  C_4
REMARK    2  A    between atoms: C_7  and  O_8
REMARK    3  A    between atoms: O_8  and  C_9
REMARK    4  A    between atoms: C_9  and  C_10
REMARK    5  A    between atoms: C_15  and  C_16
REMARK                            x       y       z     vdW  Elec       q    Type
REMARK                         _______ _______ _______ _____ _____    ______ ____
ROOT
ATOM      1  C   UNL     1      48.068   7.830  12.936  0.00  0.00    +0.000 C 
ATOM      2  C   UNL     1      48.169   9.132  12.145  0.00  0.00    +0.000 C 
ATOM      3  C   UNL     1      48.447   7.828  11.471  0.00  0.00    +0.000 C 
ENDROOT
BRANCH   1   4
ATOM      4  C   UNL     1      49.120   7.570  14.008  0.00  0.00    +0.000 A 
ATOM      5  C   UNL     1      50.425   8.047  13.862  0.00  0.00    +0.000 A 
ATOM      6  C   UNL     1      51.394   7.797  14.834  0.00  0.00    +0.000 A 
ATOM      7  C   UNL     1      51.083   7.050  15.978  0.00  0.00    +0.000 A 
ATOM      8 CL   UNL     1      52.416   6.719  17.035  0.00  0.00    +0.000 Cl
ATOM      9  C   UNL     1      49.775   6.573  16.203  0.00  0.00    +0.000 A 
ATOM     10  C   UNL     1      48.822   6.858  15.192  0.00  0.00    +0.000 A 
BRANCH   9  11
ATOM     11  C   UNL     1      49.351   5.807  17.402  0.00  0.00    +0.000 A 
ATOM     12  C   UNL     1      48.791   6.372  18.540  0.00  0.00    +0.000 A 
ATOM     13  N   UNL     1      48.399   5.690  19.643  0.00  0.00    +0.000 NA
ATOM     14  C   UNL     1      48.556   4.363  19.590  0.00  0.00    +0.000 A 
ATOM     15  N   UNL     1      49.058   3.679  18.556  0.00  0.00    +0.000 NA
ATOM     16  C   UNL     1      49.440   4.423  17.491  0.00  0.00    +0.000 A 
ENDBRANCH   9  11
ENDBRANCH   1   4
BRANCH   1  17
ATOM     17  O   UNL     1      46.689   7.579  13.291  0.00  0.00    +0.000 OA
BRANCH  17  21
ATOM     18  C   UNL     1      44.856   4.289  11.632  0.00  0.00    +0.000 A 
ATOM     19  C   UNL     1      45.699   4.143  12.734  0.00  0.00    +0.000 A 
ATOM     20  C   UNL     1      46.307   5.273  13.269  0.00  0.00    +0.000 A 
ATOM     21  C   UNL     1      46.057   6.508  12.685  0.00  0.00    +0.000 A 
ATOM     22  N   UNL     1      45.247   6.688  11.622  0.00  0.00    +0.000 NA
ATOM     23  C   UNL     1      44.676   5.567  11.109  0.00  0.00    +0.000 A 
BRANCH  18  25
ATOM     24  N   UNL     1      44.912   2.401  10.097  0.00  0.00    +0.000 N 
ATOM     25  C   UNL     1      44.183   3.143  10.986  0.00  0.00    +0.000 C 
ATOM     26  O   UNL     1      43.025   2.850  11.254  0.00  0.00    +0.000 OA
ATOM     27  H   UNL     1      44.461   1.574   9.725  0.00  0.00    +0.000 HD
ATOM     28  H   UNL     1      45.918   2.453  10.029  0.00  0.00    +0.000 HD
ENDBRANCH  18  25
ENDBRANCH  17  21
ENDBRANCH   1  17
TORSDOF 5
ENDMDL
