MODEL 1
REMARK VINA RESULT:    -9.223      0.000      0.000
REMARK INTER + INTRA:         -14.503
REMARK INTER:                 -13.536
REMARK INTRA:                  -0.967
REMARK UNBOUND:                -0.967
REMARK  Name = 
REMARK  8 active torsions:
REMARK  status: ('A' for Active; 'I' for Inactive)
REMARK    1  A    between atoms: C_2  and  O_3
REMARK    2  A    between atoms: C_2  and  C_20
REMARK    3  A    between atoms: O_3  and  C_4
REMARK    4  A    between atoms: C_4  and  C_5
REMARK    5  A    between atoms: C_8  and  C_9
REMARK    6  A    between atoms: C_9  and  N_10
REMARK    7  A    between atoms: N_10  and  C_11
REMARK    8  A    between atoms: C_11  and  C_12
REMARK                            x       y       z     vdW  Elec       q    Type
REMARK                         _______ _______ _______ _____ _____    ______ ____
ROOT
ATOM      1  C   UNL     1      46.070   4.824  13.799  0.00  0.00    +0.000 C 
ATOM      2  C   UNL     1      46.147   3.530  12.970  0.00  0.00    +0.000 C 
ATOM      3  C   UNL     1      44.948   3.380  12.037  0.00  0.00    +0.000 C 
ATOM      4  C   UNL     1      44.789   4.605  11.124  0.00  0.00    +0.000 C 
ATOM      5  C   UNL     1      44.693   5.887  11.968  0.00  0.00    +0.000 C 
ATOM      6  C   UNL     1      45.895   6.047  12.894  0.00  0.00    +0.000 C 
ENDROOT
BRANCH   1   7
ATOM      7  C   UNL     1      47.302   4.975  14.696  0.00  0.00    +0.000 C 
BRANCH   7   8
ATOM      8  O   UNL     1      47.596   3.729  15.347  0.00  0.00    +0.000 OA
BRANCH   8  10
ATOM      9  O   UNL     1      46.464   3.204  17.260  0.00  0.00    +0.000 OA
ATOM     10  C   UNL     1      47.450   3.658  16.694  0.00  0.00    +0.000 C 
BRANCH  10  11
ATOM     11  C   UNL     1      48.637   4.126  17.408  0.00  0.00    +0.000 A 
ATOM     12  C   UNL     1      48.647   5.331  18.094  0.00  0.00    +0.000 A 
ATOM     13  S   UNL     1      50.146   5.672  18.842  0.00  0.00    +0.000 S 
ATOM     14  C   UNL     1      50.814   4.202  18.301  0.00  0.00    +0.000 A 
ATOM     15  N   UNL     1      52.089   3.854  18.623  0.00  0.00    +0.000 NA
ATOM     16  C   UNL     1      52.448   2.692  18.175  0.00  0.00    +0.000 A 
ATOM     17  N   UNL     1      51.654   1.867  17.428  0.00  0.00    +0.000 N 
ATOM     18  C   UNL     1      50.402   2.221  16.988  0.00  0.00    +0.000 A 
ATOM     19  O   UNL     1      49.810   1.514  16.182  0.00  0.00    +0.000 OA
ATOM     20  C   UNL     1      49.917   3.477  17.538  0.00  0.00    +0.000 A 
ATOM     21  H   UNL     1      52.005   0.990  17.070  0.00  0.00    +0.000 HD
ENDBRANCH  10  11
ENDBRANCH   8  10
ENDBRANCH   7   8
ENDBRANCH   1   7
BRANCH   4  22
ATOM     22  C   UNL     1      43.563   4.445  10.205  0.00  0.00    +0.000 C 
BRANCH  22  23
ATOM     23  N   UNL     1      43.994   4.302   8.816  0.00  0.00    +0.000 NA
ATOM     24  H   UNL     1      43.508   4.976   8.226  0.00  0.00    +0.000 HD
BRANCH  23  25
ATOM     25  C   UNL     1      45.435   4.471   8.662  0.00  0.00    +0.000 C 
BRANCH  25  26
ATOM     26  C   UNL     1      46.050   3.253   8.026  0.00  0.00    +0.000 A 
ATOM     27  C   UNL     1      46.856   3.341   6.886  0.00  0.00    +0.000 A 
ATOM     28  C   UNL     1      47.417   2.188   6.343  0.00  0.00    +0.000 A 
ATOM     29  C   UNL     1      47.150   0.977   6.960  0.00  0.00    +0.000 A 
ATOM     30  N   UNL     1      46.369   0.847   8.054  0.00  0.00    +0.000 NA
ATOM     31  C   UNL     1      45.839   1.985   8.557  0.00  0.00    +0.000 A 
ENDBRANCH  25  26
ENDBRANCH  23  25
ENDBRANCH  22  23
ENDBRANCH   4  22
TORSDOF 8
ENDMDL
MODEL 2
REMARK VINA RESULT:    -8.682      1.232      1.874
REMARK INTER + INTRA:         -13.710
REMARK INTER:                 -12.638
REMARK INTRA:                  -1.072
REMARK UNBOUND:                -0.967
REMARK  Name = 
REMARK  8 active torsions:
REMARK  status: ('A' for Active; 'I' for Inactive)
REMARK    1  A    between atoms: C_2  and  O_3
REMARK    2  A    between atoms: C_2  and  C_20
REMARK    3  A    between atoms: O_3  and  C_4
REMARK    4  A    between atoms: C_4  and  C_5
REMARK    5  A    between atoms: C_8  and  C_9
REMARK    6  A    between atoms: C_9  and  N_10
REMARK    7  A    between atoms: N_10  and  C_11
REMARK    8  A    between atoms: C_11  and  C_12
REMARK                            x       y       z     vdW  Elec       q    Type
REMARK                         _______ _______ _______ _____ _____    ______ ____
ROOT
ATOM      1  C   UNL     1      46.052   4.757  13.862  0.00  0.00    +0.000 C 
ATOM      2  C   UNL     1      45.981   3.487  12.997  0.00  0.00    +0.000 C 
ATOM      3  C   UNL     1      44.779   3.506  12.055  0.00  0.00    +0.000 C 
ATOM      4  C   UNL     1      44.775   4.766  11.177  0.00  0.00    +0.000 C 
ATOM      5  C   UNL     1      44.826   6.026  12.056  0.00  0.00    +0.000 C 
ATOM      6  C   UNL     1      46.031   6.017  12.991  0.00  0.00    +0.000 C 
ENDROOT
BRANCH   1   7
ATOM      7  C   UNL     1      47.287   4.735  14.768  0.00  0.00    +0.000 C 
BRANCH   7   8
ATOM      8  O   UNL     1      47.517   3.405  15.260  0.00  0.00    +0.000 OA
BRANCH   8  10
ATOM      9  O   UNL     1      46.673   3.132  17.365  0.00  0.00    +0.000 OA
ATOM     10  C   UNL     1      47.625   3.226  16.600  0.00  0.00    +0.000 C 
BRANCH  10  11
ATOM     11  C   UNL     1      49.015   3.092  17.034  0.00  0.00    +0.000 A 
ATOM     12  C   UNL     1      49.741   1.933  16.806  0.00  0.00    +0.000 A 
ATOM     13  S   UNL     1      51.338   2.005  17.412  0.00  0.00    +0.000 S 
ATOM     14  C   UNL     1      51.116   3.599  17.965  0.00  0.00    +0.000 A 
ATOM     15  N   UNL     1      52.129   4.275  18.572  0.00  0.00    +0.000 NA
ATOM     16  C   UNL     1      51.828   5.491  18.905  0.00  0.00    +0.000 A 
ATOM     17  N   UNL     1      50.609   6.075  18.698  0.00  0.00    +0.000 N 
ATOM     18  C   UNL     1      49.526   5.399  18.190  0.00  0.00    +0.000 A 
ATOM     19  O   UNL     1      48.419   5.923  18.190  0.00  0.00    +0.000 OA
ATOM     20  C   UNL     1      49.836   4.059  17.718  0.00  0.00    +0.000 A 
ATOM     21  H   UNL     1      50.420   7.013  19.019  0.00  0.00    +0.000 HD
ENDBRANCH  10  11
ENDBRANCH   8  10
ENDBRANCH   7   8
ENDBRANCH   1   7
BRANCH   4  22
ATOM     22  C   UNL     1      43.545   4.779  10.248  0.00  0.00    +0.000 C 
BRANCH  22  23
ATOM     23  N   UNL     1      43.937   4.396   8.893  0.00  0.00    +0.000 NA
ATOM     24  H   UNL     1      43.426   4.953   8.209  0.00  0.00    +0.000 HD
BRANCH  23  25
ATOM     25  C   UNL     1      45.371   4.543   8.668  0.00  0.00    +0.000 C 
BRANCH  25  26
ATOM     26  C   UNL     1      45.959   3.270   8.122  0.00  0.00    +0.000 A 
ATOM     27  C   UNL     1      46.849   3.269   7.043  0.00  0.00    +0.000 A 
ATOM     28  C   UNL     1      47.381   2.067   6.584  0.00  0.00    +0.000 A 
ATOM     29  C   UNL     1      46.999   0.897   7.220  0.00  0.00    +0.000 A 
ATOM     30  N   UNL     1      46.135   0.853   8.255  0.00  0.00    +0.000 NA
ATOM     31  C   UNL     1      45.636   2.037   8.678  0.00  0.00    +0.000 A 
ENDBRANCH  25  26
ENDBRANCH  23  25
ENDBRANCH  22  23
ENDBRANCH   4  22
TORSDOF 8
ENDMDL
MODEL 3
REMARK VINA RESULT:    -8.410      2.397      3.227
REMARK INTER + INTRA:         -13.309
REMARK INTER:                 -11.955
REMARK INTRA:                  -1.355
REMARK UNBOUND:                -0.967
REMARK  Name = 
REMARK  8 active torsions:
REMARK  status: ('A' for Active; 'I' for Inactive)
REMARK    1  A    between atoms: C_2  and  O_3
REMARK    2  A    between atoms: C_2  and  C_20
REMARK    3  A    between atoms: O_3  and  C_4
REMARK    4  A    between atoms: C_4  and  C_5
REMARK    5  A    between atoms: C_8  and  C_9
REMARK    6  A    between atoms: C_9  and  N_10
REMARK    7  A    between atoms: N_10  and  C_11
REMARK    8  A    between atoms: C_11  and  C_12
REMARK                            x       y       z     vdW  Elec       q    Type
REMARK                         _______ _______ _______ _____ _____    ______ ____
ROOT
ATOM      1  C   UNL     1      45.983   6.477  12.548  0.00  0.00    +0.000 C 
ATOM      2  C   UNL     1      45.764   6.556  11.027  0.00  0.00    +0.000 C 
ATOM      3  C   UNL     1      45.368   5.203  10.439  0.00  0.00    +0.000 C 
ATOM      4  C   UNL     1      44.129   4.628  11.140  0.00  0.00    +0.000 C 
ATOM      5  C   UNL     1      44.371   4.537  12.656  0.00  0.00    +0.000 C 
ATOM      6  C   UNL     1      44.756   5.888  13.250  0.00  0.00    +0.000 C 
ENDROOT
BRANCH   1   7
ATOM      7  C   UNL     1      46.339   7.852  13.122  0.00  0.00    +0.000 C 
BRANCH   7   8
ATOM      8  O   UNL     1      47.765   7.999  13.207  0.00  0.00    +0.000 OA
BRANCH   8  10
ATOM      9  O   UNL     1      49.139   6.227  12.770  0.00  0.00    +0.000 OA
ATOM     10  C   UNL     1      48.502   6.915  13.558  0.00  0.00    +0.000 C 
BRANCH  10  11
ATOM     11  C   UNL     1      48.511   6.690  15.003  0.00  0.00    +0.000 A 
ATOM     12  C   UNL     1      48.972   7.653  15.888  0.00  0.00    +0.000 A 
ATOM     13  S   UNL     1      48.895   7.160  17.523  0.00  0.00    +0.000 S 
ATOM     14  C   UNL     1      48.210   5.661  17.098  0.00  0.00    +0.000 A 
ATOM     15  N   UNL     1      47.869   4.753  18.052  0.00  0.00    +0.000 NA
ATOM     16  C   UNL     1      47.324   3.674  17.585  0.00  0.00    +0.000 A 
ATOM     17  N   UNL     1      47.107   3.425  16.258  0.00  0.00    +0.000 N 
ATOM     18  C   UNL     1      47.532   4.261  15.254  0.00  0.00    +0.000 A 
ATOM     19  O   UNL     1      47.464   3.903  14.085  0.00  0.00    +0.000 OA
ATOM     20  C   UNL     1      48.069   5.526  15.729  0.00  0.00    +0.000 A 
ATOM     21  H   UNL     1      46.717   2.546  15.951  0.00  0.00    +0.000 HD
ENDBRANCH  10  11
ENDBRANCH   8  10
ENDBRANCH   7   8
ENDBRANCH   1   7
BRANCH   4  22
ATOM     22  C   UNL     1      43.756   3.255  10.548  0.00  0.00    +0.000 C 
BRANCH  22  23
ATOM     23  N   UNL     1      44.967   2.506  10.219  0.00  0.00    +0.000 NA
ATOM     24  H   UNL     1      45.243   1.920  11.007  0.00  0.00    +0.000 HD
BRANCH  23  25
ATOM     25  C   UNL     1      44.801   1.678   9.030  0.00  0.00    +0.000 C 
BRANCH  25  26
ATOM     26  C   UNL     1      45.878   1.972   8.020  0.00  0.00    +0.000 A 
ATOM     27  C   UNL     1      45.947   3.196   7.347  0.00  0.00    +0.000 A 
ATOM     28  C   UNL     1      46.972   3.427   6.433  0.00  0.00    +0.000 A 
ATOM     29  C   UNL     1      47.898   2.420   6.219  0.00  0.00    +0.000 A 
ATOM     30  N   UNL     1      47.861   1.222   6.838  0.00  0.00    +0.000 NA
ATOM     31  C   UNL     1      46.853   1.027   7.720  0.00  0.00    +0.000 A 
ENDBRANCH  25  26
ENDBRANCH  23  25
ENDBRANCH  22  23
ENDBRANCH   4  22
TORSDOF 8
ENDMDL
MODEL 4
REMARK VINA RESULT:    -8.074      1.383      2.337
REMARK INTER + INTRA:         -12.817
REMARK INTER:                 -11.711
REMARK INTRA:                  -1.106
REMARK UNBOUND:                -0.967
REMARK  Name = 
REMARK  8 active torsions:
REMARK  status: ('A' for Active; 'I' for Inactive)
REMARK    1  A    between atoms: C_2  and  O_3
REMARK    2  A    between atoms: C_2  and  C_20
REMARK    3  A    between atoms: O_3  and  C_4
REMARK    4  A    between atoms: C_4  and  C_5
REMARK    5  A    between atoms: C_8  and  C_9
REMARK    6  A    between atoms: C_9  and  N_10
REMARK    7  A    between atoms: N_10  and  C_11
REMARK    8  A    between atoms: C_11  and  C_12
REMARK                            x       y       z     vdW  Elec       q    Type
REMARK                         _______ _______ _______ _____ _____    ______ ____
ROOT
ATOM      1  C   UNL     1      46.667   4.689  13.396  0.00  0.00    +0.000 C 
ATOM      2  C   UNL     1      45.741   5.908  13.245  0.00  0.00    +0.000 C 
ATOM      3  C   UNL     1      44.992   5.893  11.914  0.00  0.00    +0.000 C 
ATOM      4  C   UNL     1      44.208   4.586  11.727  0.00  0.00    +0.000 C 
ATOM      5  C   UNL     1      45.150   3.378  11.861  0.00  0.00    +0.000 C 
ATOM      6  C   UNL     1      45.892   3.383  13.193  0.00  0.00    +0.000 C 
ENDROOT
BRANCH   1   7
ATOM      7  C   UNL     1      47.376   4.703  14.753  0.00  0.00    +0.000 C 
BRANCH   7   8
ATOM      8  O   UNL     1      47.476   3.369  15.274  0.00  0.00    +0.000 OA
BRANCH   8  10
ATOM      9  O   UNL     1      46.613   3.053  17.366  0.00  0.00    +0.000 OA
ATOM     10  C   UNL     1      47.571   3.210  16.618  0.00  0.00    +0.000 C 
BRANCH  10  11
ATOM     11  C   UNL     1      48.958   3.178  17.079  0.00  0.00    +0.000 A 
ATOM     12  C   UNL     1      49.771   2.074  16.873  0.00  0.00    +0.000 A 
ATOM     13  S   UNL     1      51.346   2.266  17.509  0.00  0.00    +0.000 S 
ATOM     14  C   UNL     1      50.999   3.843  18.047  0.00  0.00    +0.000 A 
ATOM     15  N   UNL     1      51.947   4.593  18.669  0.00  0.00    +0.000 NA
ATOM     16  C   UNL     1      51.552   5.786  18.989  0.00  0.00    +0.000 A 
ATOM     17  N   UNL     1      50.298   6.278  18.754  0.00  0.00    +0.000 N 
ATOM     18  C   UNL     1      49.278   5.523  18.230  0.00  0.00    +0.000 A 
ATOM     19  O   UNL     1      48.135   5.964  18.205  0.00  0.00    +0.000 OA
ATOM     20  C   UNL     1      49.693   4.207  17.773  0.00  0.00    +0.000 A 
ATOM     21  H   UNL     1      50.036   7.202  19.066  0.00  0.00    +0.000 HD
ENDBRANCH  10  11
ENDBRANCH   8  10
ENDBRANCH   7   8
ENDBRANCH   1   7
BRANCH   4  22
ATOM     22  C   UNL     1      43.476   4.579  10.371  0.00  0.00    +0.000 C 
BRANCH  22  23
ATOM     23  N   UNL     1      44.040   3.547   9.503  0.00  0.00    +0.000 NA
ATOM     24  H   UNL     1      43.302   2.931   9.164  0.00  0.00    +0.000 HD
BRANCH  23  25
ATOM     25  C   UNL     1      44.762   4.112   8.368  0.00  0.00    +0.000 C 
BRANCH  25  26
ATOM     26  C   UNL     1      45.745   3.118   7.812  0.00  0.00    +0.000 A 
ATOM     27  C   UNL     1      45.872   1.828   8.340  0.00  0.00    +0.000 A 
ATOM     28  C   UNL     1      46.785   0.937   7.781  0.00  0.00    +0.000 A 
ATOM     29  C   UNL     1      47.548   1.368   6.708  0.00  0.00    +0.000 A 
ATOM     30  N   UNL     1      47.465   2.606   6.177  0.00  0.00    +0.000 NA
ATOM     31  C   UNL     1      46.569   3.448   6.742  0.00  0.00    +0.000 A 
ENDBRANCH  25  26
ENDBRANCH  23  25
ENDBRANCH  22  23
ENDBRANCH   4  22
TORSDOF 8
ENDMDL
MODEL 5
REMARK VINA RESULT:    -7.983      2.035      2.562
REMARK INTER + INTRA:         -12.683
REMARK INTER:                 -11.754
REMARK INTRA:                  -0.929
REMARK UNBOUND:                -0.967
REMARK  Name = 
REMARK  8 active torsions:
REMARK  status: ('A' for Active; 'I' for Inactive)
REMARK    1  A    between atoms: C_2  and  O_3
REMARK    2  A    between atoms: C_2  and  C_20
REMARK    3  A    between atoms: O_3  and  C_4
REMARK    4  A    between atoms: C_4  and  C_5
REMARK    5  A    between atoms: C_8  and  C_9
REMARK    6  A    between atoms: C_9  and  N_10
REMARK    7  A    between atoms: N_10  and  C_11
REMARK    8  A    between atoms: C_11  and  C_12
REMARK                            x       y       z     vdW  Elec       q    Type
REMARK                         _______ _______ _______ _____ _____    ______ ____
ROOT
ATOM      1  C   UNL     1      46.902   6.227  13.121  0.00  0.00    +0.000 C 
ATOM      2  C   UNL     1      46.725   4.708  13.285  0.00  0.00    +0.000 C 
ATOM      3  C   UNL     1      45.355   4.238  12.802  0.00  0.00    +0.000 C 
ATOM      4  C   UNL     1      45.096   4.665  11.349  0.00  0.00    +0.000 C 
ATOM      5  C   UNL     1      45.257   6.188  11.206  0.00  0.00    +0.000 C 
ATOM      6  C   UNL     1      46.629   6.660  11.677  0.00  0.00    +0.000 C 
ENDROOT
BRANCH   1   7
ATOM      7  C   UNL     1      48.297   6.669  13.574  0.00  0.00    +0.000 C 
BRANCH   7   8
ATOM      8  O   UNL     1      48.611   6.090  14.849  0.00  0.00    +0.000 OA
BRANCH   8  10
ATOM      9  O   UNL     1      50.562   7.208  15.253  0.00  0.00    +0.000 OA
ATOM     10  C   UNL     1      49.503   6.732  15.644  0.00  0.00    +0.000 C 
BRANCH  10  11
ATOM     11  C   UNL     1      49.032   6.857  17.023  0.00  0.00    +0.000 A 
ATOM     12  C   UNL     1      48.516   8.047  17.513  0.00  0.00    +0.000 A 
ATOM     13  S   UNL     1      48.042   7.955  19.153  0.00  0.00    +0.000 S 
ATOM     14  C   UNL     1      48.479   6.313  19.246  0.00  0.00    +0.000 A 
ATOM     15  N   UNL     1      48.302   5.607  20.395  0.00  0.00    +0.000 NA
ATOM     16  C   UNL     1      48.644   4.360  20.307  0.00  0.00    +0.000 A 
ATOM     17  N   UNL     1      49.156   3.771  19.184  0.00  0.00    +0.000 N 
ATOM     18  C   UNL     1      49.454   4.466  18.037  0.00  0.00    +0.000 A 
ATOM     19  O   UNL     1      50.069   3.921  17.129  0.00  0.00    +0.000 OA
ATOM     20  C   UNL     1      49.006   5.850  18.054  0.00  0.00    +0.000 A 
ATOM     21  H   UNL     1      49.445   2.804  19.190  0.00  0.00    +0.000 HD
ENDBRANCH  10  11
ENDBRANCH   8  10
ENDBRANCH   7   8
ENDBRANCH   1   7
BRANCH   4  22
ATOM     22  C   UNL     1      43.702   4.202  10.885  0.00  0.00    +0.000 C 
BRANCH  22  23
ATOM     23  N   UNL     1      43.830   3.283   9.755  0.00  0.00    +0.000 NA
ATOM     24  H   UNL     1      42.911   2.947   9.470  0.00  0.00    +0.000 HD
BRANCH  23  25
ATOM     25  C   UNL     1      44.499   3.899   8.614  0.00  0.00    +0.000 C 
BRANCH  25  26
ATOM     26  C   UNL     1      45.571   2.993   8.072  0.00  0.00    +0.000 A 
ATOM     27  C   UNL     1      46.562   3.457   7.201  0.00  0.00    +0.000 A 
ATOM     28  C   UNL     1      47.544   2.584   6.739  0.00  0.00    +0.000 A 
ATOM     29  C   UNL     1      47.501   1.267   7.164  0.00  0.00    +0.000 A 
ATOM     30  N   UNL     1      46.556   0.776   7.993  0.00  0.00    +0.000 NA
ATOM     31  C   UNL     1      45.617   1.648   8.425  0.00  0.00    +0.000 A 
ENDBRANCH  25  26
ENDBRANCH  23  25
ENDBRANCH  22  23
ENDBRANCH   4  22
TORSDOF 8
ENDMDL
MODEL 6
REMARK VINA RESULT:    -7.771      3.164      4.206
REMARK INTER + INTRA:         -12.372
REMARK INTER:                 -11.256
REMARK INTRA:                  -1.116
REMARK UNBOUND:                -0.967
REMARK  Name = 
REMARK  8 active torsions:
REMARK  status: ('A' for Active; 'I' for Inactive)
REMARK    1  A    between atoms: C_2  and  O_3
REMARK    2  A    between atoms: C_2  and  C_20
REMARK    3  A    between atoms: O_3  and  C_4
REMARK    4  A    between atoms: C_4  and  C_5
REMARK    5  A    between atoms: C_8  and  C_9
REMARK    6  A    between atoms: C_9  and  N_10
REMARK    7  A    between atoms: N_10  and  C_11
REMARK    8  A    between atoms: C_11  and  C_12
REMARK                            x       y       z     vdW  Elec       q    Type
REMARK                         _______ _______ _______ _____ _____    ______ ____
ROOT
ATOM      1  C   UNL     1      46.772   6.247  13.095  0.00  0.00    +0.000 C 
ATOM      2  C   UNL     1      46.488   4.756  13.343  0.00  0.00    +0.000 C 
ATOM      3  C   UNL     1      45.156   4.322  12.735  0.00  0.00    +0.000 C 
ATOM      4  C   UNL     1      45.090   4.649  11.236  0.00  0.00    +0.000 C 
ATOM      5  C   UNL     1      45.356   6.146  11.007  0.00  0.00    +0.000 C 
ATOM      6  C   UNL     1      46.691   6.582  11.602  0.00  0.00    +0.000 C 
ENDROOT
BRANCH   1   7
ATOM      7  C   UNL     1      48.131   6.650  13.677  0.00  0.00    +0.000 C 
BRANCH   7   8
ATOM      8  O   UNL     1      48.341   6.001  14.940  0.00  0.00    +0.000 OA
BRANCH   8  10
ATOM      9  O   UNL     1      50.440   6.677  15.534  0.00  0.00    +0.000 OA
ATOM     10  C   UNL     1      49.252   6.535  15.792  0.00  0.00    +0.000 C 
BRANCH  10  11
ATOM     11  C   UNL     1      48.646   6.988  17.044  0.00  0.00    +0.000 A 
ATOM     12  C   UNL     1      48.389   6.113  18.088  0.00  0.00    +0.000 A 
ATOM     13  S   UNL     1      47.670   6.869  19.443  0.00  0.00    +0.000 S 
ATOM     14  C   UNL     1      47.715   8.393  18.687  0.00  0.00    +0.000 A 
ATOM     15  N   UNL     1      47.263   9.504  19.328  0.00  0.00    +0.000 NA
ATOM     16  C   UNL     1      47.394  10.599  18.646  0.00  0.00    +0.000 A 
ATOM     17  N   UNL     1      47.920  10.671  17.386  0.00  0.00    +0.000 N 
ATOM     18  C   UNL     1      48.286   9.565  16.658  0.00  0.00    +0.000 A 
ATOM     19  O   UNL     1      48.586   9.679  15.475  0.00  0.00    +0.000 OA
ATOM     20  C   UNL     1      48.242   8.322  17.411  0.00  0.00    +0.000 A 
ATOM     21  H   UNL     1      47.956  11.548  16.887  0.00  0.00    +0.000 HD
ENDBRANCH  10  11
ENDBRANCH   8  10
ENDBRANCH   7   8
ENDBRANCH   1   7
BRANCH   4  22
ATOM     22  C   UNL     1      43.732   4.224  10.644  0.00  0.00    +0.000 C 
BRANCH  22  23
ATOM     23  N   UNL     1      43.939   3.466   9.411  0.00  0.00    +0.000 NA
ATOM     24  H   UNL     1      44.182   4.096   8.648  0.00  0.00    +0.000 HD
BRANCH  23  25
ATOM     25  C   UNL     1      44.976   2.450   9.553  0.00  0.00    +0.000 C 
BRANCH  25  26
ATOM     26  C   UNL     1      45.824   2.376   8.312  0.00  0.00    +0.000 A 
ATOM     27  C   UNL     1      45.979   3.471   7.455  0.00  0.00    +0.000 A 
ATOM     28  C   UNL     1      46.788   3.360   6.327  0.00  0.00    +0.000 A 
ATOM     29  C   UNL     1      47.416   2.149   6.089  0.00  0.00    +0.000 A 
ATOM     30  N   UNL     1      47.283   1.065   6.883  0.00  0.00    +0.000 NA
ATOM     31  C   UNL     1      46.492   1.205   7.970  0.00  0.00    +0.000 A 
ENDBRANCH  25  26
ENDBRANCH  23  25
ENDBRANCH  22  23
ENDBRANCH   4  22
TORSDOF 8
ENDMDL
MODEL 7
REMARK VINA RESULT:    -7.768      2.034      2.576
REMARK INTER + INTRA:         -12.368
REMARK INTER:                 -11.353
REMARK INTRA:                  -1.015
REMARK UNBOUND:                -0.967
REMARK  Name = 
REMARK  8 active torsions:
REMARK  status: ('A' for Active; 'I' for Inactive)
REMARK    1  A    between atoms: C_2  and  O_3
REMARK    2  A    between atoms: C_2  and  C_20
REMARK    3  A    between atoms: O_3  and  C_4
REMARK    4  A    between atoms: C_4  and  C_5
REMARK    5  A    between atoms: C_8  and  C_9
REMARK    6  A    between atoms: C_9  and  N_10
REMARK    7  A    between atoms: N_10  and  C_11
REMARK    8  A    between atoms: C_11  and  C_12
REMARK                            x       y       z     vdW  Elec       q    Type
REMARK                         _______ _______ _______ _____ _____    ______ ____
ROOT
ATOM      1  C   UNL     1      47.190   6.049  12.823  0.00  0.00    +0.000 C 
ATOM      2  C   UNL     1      46.486   6.747  11.647  0.00  0.00    +0.000 C 
ATOM      3  C   UNL     1      45.790   5.749  10.725  0.00  0.00    +0.000 C 
ATOM      4  C   UNL     1      44.807   4.860  11.501  0.00  0.00    +0.000 C 
ATOM      5  C   UNL     1      45.530   4.153  12.659  0.00  0.00    +0.000 C 
ATOM      6  C   UNL     1      46.217   5.148  13.589  0.00  0.00    +0.000 C 
ENDROOT
BRANCH   1   7
ATOM      7  C   UNL     1      47.846   7.071  13.756  0.00  0.00    +0.000 C 
BRANCH   7   8
ATOM      8  O   UNL     1      48.890   6.447  14.520  0.00  0.00    +0.000 OA
BRANCH   8  10
ATOM      9  O   UNL     1      48.674   7.792  16.353  0.00  0.00    +0.000 OA
ATOM     10  C   UNL     1      48.960   6.714  15.848  0.00  0.00    +0.000 C 
BRANCH  10  11
ATOM     11  C   UNL     1      49.357   5.545  16.631  0.00  0.00    +0.000 A 
ATOM     12  C   UNL     1      48.434   4.600  17.051  0.00  0.00    +0.000 A 
ATOM     13  S   UNL     1      49.130   3.331  17.960  0.00  0.00    +0.000 S 
ATOM     14  C   UNL     1      50.691   3.988  17.788  0.00  0.00    +0.000 A 
ATOM     15  N   UNL     1      51.774   3.363  18.323  0.00  0.00    +0.000 NA
ATOM     16  C   UNL     1      52.900   3.957  18.080  0.00  0.00    +0.000 A 
ATOM     17  N   UNL     1      53.029   5.119  17.370  0.00  0.00    +0.000 N 
ATOM     18  C   UNL     1      51.957   5.842  16.907  0.00  0.00    +0.000 A 
ATOM     19  O   UNL     1      52.127   6.958  16.431  0.00  0.00    +0.000 OA
ATOM     20  C   UNL     1      50.678   5.172  17.075  0.00  0.00    +0.000 A 
ATOM     21  H   UNL     1      53.930   5.558  17.251  0.00  0.00    +0.000 HD
ENDBRANCH  10  11
ENDBRANCH   8  10
ENDBRANCH   7   8
ENDBRANCH   1   7
BRANCH   4  22
ATOM     22  C   UNL     1      44.131   3.845  10.559  0.00  0.00    +0.000 C 
BRANCH  22  23
ATOM     23  N   UNL     1      44.953   2.641  10.447  0.00  0.00    +0.000 NA
ATOM     24  H   UNL     1      44.798   2.034  11.252  0.00  0.00    +0.000 HD
BRANCH  23  25
ATOM     25  C   UNL     1      44.685   1.899   9.220  0.00  0.00    +0.000 C 
BRANCH  25  26
ATOM     26  C   UNL     1      45.790   2.105   8.220  0.00  0.00    +0.000 A 
ATOM     27  C   UNL     1      46.031   3.349   7.627  0.00  0.00    +0.000 A 
ATOM     28  C   UNL     1      47.077   3.495   6.720  0.00  0.00    +0.000 A 
ATOM     29  C   UNL     1      47.851   2.384   6.430  0.00  0.00    +0.000 A 
ATOM     30  N   UNL     1      47.645   1.164   6.969  0.00  0.00    +0.000 NA
ATOM     31  C   UNL     1      46.623   1.055   7.847  0.00  0.00    +0.000 A 
ENDBRANCH  25  26
ENDBRANCH  23  25
ENDBRANCH  22  23
ENDBRANCH   4  22
TORSDOF 8
ENDMDL
MODEL 8
REMARK VINA RESULT:    -7.766      1.854      2.098
REMARK INTER + INTRA:         -12.364
REMARK INTER:                 -11.467
REMARK INTRA:                  -0.897
REMARK UNBOUND:                -0.967
REMARK  Name = 
REMARK  8 active torsions:
REMARK  status: ('A' for Active; 'I' for Inactive)
REMARK    1  A    between atoms: C_2  and  O_3
REMARK    2  A    between atoms: C_2  and  C_20
REMARK    3  A    between atoms: O_3  and  C_4
REMARK    4  A    between atoms: C_4  and  C_5
REMARK    5  A    between atoms: C_8  and  C_9
REMARK    6  A    between atoms: C_9  and  N_10
REMARK    7  A    between atoms: N_10  and  C_11
REMARK    8  A    between atoms: C_11  and  C_12
REMARK                            x       y       z     vdW  Elec       q    Type
REMARK                         _______ _______ _______ _____ _____    ______ ____
ROOT
ATOM      1  C   UNL     1      46.939   6.253  13.316  0.00  0.00    +0.000 C 
ATOM      2  C   UNL     1      46.584   4.778  13.567  0.00  0.00    +0.000 C 
ATOM      3  C   UNL     1      45.217   4.415  12.990  0.00  0.00    +0.000 C 
ATOM      4  C   UNL     1      45.132   4.752  11.494  0.00  0.00    +0.000 C 
ATOM      5  C   UNL     1      45.470   6.234  11.263  0.00  0.00    +0.000 C 
ATOM      6  C   UNL     1      46.840   6.597  11.827  0.00  0.00    +0.000 C 
ENDROOT
BRANCH   1   7
ATOM      7  C   UNL     1      48.330   6.583  13.866  0.00  0.00    +0.000 C 
BRANCH   7   8
ATOM      8  O   UNL     1      48.531   5.930  15.129  0.00  0.00    +0.000 OA
BRANCH   8  10
ATOM      9  O   UNL     1      48.412   7.458  16.823  0.00  0.00    +0.000 OA
ATOM     10  C   UNL     1      49.049   6.656  16.152  0.00  0.00    +0.000 C 
BRANCH  10  11
ATOM     11  C   UNL     1      50.450   6.330  16.414  0.00  0.00    +0.000 A 
ATOM     12  C   UNL     1      51.485   7.121  15.937  0.00  0.00    +0.000 A 
ATOM     13  S   UNL     1      53.034   6.535  16.361  0.00  0.00    +0.000 S 
ATOM     14  C   UNL     1      52.366   5.228  17.223  0.00  0.00    +0.000 A 
ATOM     15  N   UNL     1      53.165   4.335  17.867  0.00  0.00    +0.000 NA
ATOM     16  C   UNL     1      52.518   3.416  18.513  0.00  0.00    +0.000 A 
ATOM     17  N   UNL     1      51.155   3.310  18.555  0.00  0.00    +0.000 N 
ATOM     18  C   UNL     1      50.313   4.120  17.834  0.00  0.00    +0.000 A 
ATOM     19  O   UNL     1      49.116   3.867  17.776  0.00  0.00    +0.000 OA
ATOM     20  C   UNL     1      50.985   5.222  17.165  0.00  0.00    +0.000 A 
ATOM     21  H   UNL     1      50.709   2.545  19.041  0.00  0.00    +0.000 HD
ENDBRANCH  10  11
ENDBRANCH   8  10
ENDBRANCH   7   8
ENDBRANCH   1   7
BRANCH   4  22
ATOM     22  C   UNL     1      43.740   4.399  10.934  0.00  0.00    +0.000 C 
BRANCH  22  23
ATOM     23  N   UNL     1      43.871   3.453   9.827  0.00  0.00    +0.000 NA
ATOM     24  H   UNL     1      42.952   3.107   9.552  0.00  0.00    +0.000 HD
BRANCH  23  25
ATOM     25  C   UNL     1      44.536   4.043   8.670  0.00  0.00    +0.000 C 
BRANCH  25  26
ATOM     26  C   UNL     1      45.538   3.084   8.086  0.00  0.00    +0.000 A 
ATOM     27  C   UNL     1      46.418   3.463   7.067  0.00  0.00    +0.000 A 
ATOM     28  C   UNL     1      47.340   2.545   6.570  0.00  0.00    +0.000 A 
ATOM     29  C   UNL     1      47.349   1.269   7.109  0.00  0.00    +0.000 A 
ATOM     30  N   UNL     1      46.511   0.860   8.084  0.00  0.00    +0.000 NA
ATOM     31  C   UNL     1      45.628   1.774   8.546  0.00  0.00    +0.000 A 
ENDBRANCH  25  26
ENDBRANCH  23  25
ENDBRANCH  22  23
ENDBRANCH   4  22
TORSDOF 8
ENDMDL
MODEL 9
REMARK VINA RESULT:    -7.560      2.561      3.662
REMARK INTER + INTRA:         -12.063
REMARK INTER:                 -11.214
REMARK INTRA:                  -0.850
REMARK UNBOUND:                -0.967
REMARK  Name = 
REMARK  8 active torsions:
REMARK  status: ('A' for Active; 'I' for Inactive)
REMARK    1  A    between atoms: C_2  and  O_3
REMARK    2  A    between atoms: C_2  and  C_20
REMARK    3  A    between atoms: O_3  and  C_4
REMARK    4  A    between atoms: C_4  and  C_5
REMARK    5  A    between atoms: C_8  and  C_9
REMARK    6  A    between atoms: C_9  and  N_10
REMARK    7  A    between atoms: N_10  and  C_11
REMARK    8  A    between atoms: C_11  and  C_12
REMARK                            x       y       z     vdW  Elec       q    Type
REMARK                         _______ _______ _______ _____ _____    ______ ____
ROOT
ATOM      1  C   UNL     1      47.196   5.938  12.955  0.00  0.00    +0.000 C 
ATOM      2  C   UNL     1      46.322   6.760  11.992  0.00  0.00    +0.000 C 
ATOM      3  C   UNL     1      45.572   5.870  11.004  0.00  0.00    +0.000 C 
ATOM      4  C   UNL     1      44.735   4.806  11.729  0.00  0.00    +0.000 C 
ATOM      5  C   UNL     1      45.626   3.981  12.672  0.00  0.00    +0.000 C 
ATOM      6  C   UNL     1      46.368   4.865  13.669  0.00  0.00    +0.000 C 
ENDROOT
BRANCH   1   7
ATOM      7  C   UNL     1      47.906   6.847  13.963  0.00  0.00    +0.000 C 
BRANCH   7   8
ATOM      8  O   UNL     1      48.743   6.066  14.830  0.00  0.00    +0.000 OA
BRANCH   8  10
ATOM      9  O   UNL     1      49.972   7.703  15.846  0.00  0.00    +0.000 OA
ATOM     10  C   UNL     1      49.303   6.678  15.904  0.00  0.00    +0.000 C 
BRANCH  10  11
ATOM     11  C   UNL     1      48.965   6.015  17.162  0.00  0.00    +0.000 A 
ATOM     12  C   UNL     1      49.175   4.657  17.351  0.00  0.00    +0.000 A 
ATOM     13  S   UNL     1      48.694   4.107  18.896  0.00  0.00    +0.000 S 
ATOM     14  C   UNL     1      48.226   5.673  19.371  0.00  0.00    +0.000 A 
ATOM     15  N   UNL     1      47.739   5.908  20.619  0.00  0.00    +0.000 NA
ATOM     16  C   UNL     1      47.460   7.152  20.852  0.00  0.00    +0.000 A 
ATOM     17  N   UNL     1      47.612   8.165  19.947  0.00  0.00    +0.000 N 
ATOM     18  C   UNL     1      47.995   7.961  18.644  0.00  0.00    +0.000 A 
ATOM     19  O   UNL     1      47.946   8.881  17.836  0.00  0.00    +0.000 OA
ATOM     20  C   UNL     1      48.405   6.596  18.357  0.00  0.00    +0.000 A 
ATOM     21  H   UNL     1      47.336   9.110  20.173  0.00  0.00    +0.000 HD
ENDBRANCH  10  11
ENDBRANCH   8  10
ENDBRANCH   7   8
ENDBRANCH   1   7
BRANCH   4  22
ATOM     22  C   UNL     1      44.003   3.904  10.716  0.00  0.00    +0.000 C 
BRANCH  22  23
ATOM     23  N   UNL     1      44.763   2.674  10.501  0.00  0.00    +0.000 NA
ATOM     24  H   UNL     1      44.572   2.008  11.249  0.00  0.00    +0.000 HD
BRANCH  23  25
ATOM     25  C   UNL     1      44.467   2.058   9.212  0.00  0.00    +0.000 C 
BRANCH  25  26
ATOM     26  C   UNL     1      45.655   2.146   8.293  0.00  0.00    +0.000 A 
ATOM     27  C   UNL     1      46.035   3.347   7.687  0.00  0.00    +0.000 A 
ATOM     28  C   UNL     1      47.153   3.382   6.857  0.00  0.00    +0.000 A 
ATOM     29  C   UNL     1      47.857   2.206   6.657  0.00  0.00    +0.000 A 
ATOM     30  N   UNL     1      47.517   1.024   7.213  0.00  0.00    +0.000 NA
ATOM     31  C   UNL     1      46.427   1.023   8.014  0.00  0.00    +0.000 A 
ENDBRANCH  25  26
ENDBRANCH  23  25
ENDBRANCH  22  23
ENDBRANCH   4  22
TORSDOF 8
ENDMDL
