MODEL 1
REMARK VINA RESULT:    -9.322      0.000      0.000
REMARK INTER + INTRA:         -14.118
REMARK INTER:                 -13.136
REMARK INTRA:                  -0.982
REMARK UNBOUND:                -0.982
REMARK  Name = 
REMARK  7 active torsions:
REMARK  status: ('A' for Active; 'I' for Inactive)
REMARK    1  A    between atoms: C_2  and  C_4
REMARK    2  A    between atoms: C_7  and  O_8
REMARK    3  A    between atoms: O_8  and  C_9
REMARK    4  A    between atoms: C_9  and  C_10
REMARK    5  A    between atoms: C_10  and  C_13
REMARK    6  A    between atoms: C_18  and  N_19
REMARK    7  A    between atoms: N_19  and  C_20
REMARK                            x       y       z     vdW  Elec       q    Type
REMARK                         _______ _______ _______ _____ _____    ______ ____
ROOT
ATOM      1  C   UNL     1      43.540   5.458  12.023  0.00  0.00    +0.000 C 
ATOM      2  F   UNL     1      43.209   6.597  11.340  0.00  0.00    +0.000 F 
ATOM      3  F   UNL     1      42.634   5.381  13.045  0.00  0.00    +0.000 F 
ENDROOT
BRANCH   1   4
ATOM      4  C   UNL     1      44.960   5.526  12.543  0.00  0.00    +0.000 A 
ATOM      5  C   UNL     1      45.878   6.451  12.031  0.00  0.00    +0.000 A 
ATOM      6  C   UNL     1      47.184   6.461  12.511  0.00  0.00    +0.000 A 
ATOM      7  F   UNL     1      48.052   7.361  12.028  0.00  0.00    +0.000 F 
ATOM      8  C   UNL     1      47.596   5.574  13.497  0.00  0.00    +0.000 A 
ATOM      9  C   UNL     1      46.697   4.648  14.034  0.00  0.00    +0.000 A 
ATOM     10  C   UNL     1      45.383   4.635  13.550  0.00  0.00    +0.000 A 
BRANCH   9  11
ATOM     11  N   UNL     1      47.110   3.847  15.116  0.00  0.00    +0.000 N 
ATOM     12  H   UNL     1      46.957   2.855  14.937  0.00  0.00    +0.000 HD
BRANCH  11  13
ATOM     13  C   UNL     1      47.154   4.224  16.496  0.00  0.00    +0.000 C 
ATOM     14  C   UNL     1      48.534   4.783  16.900  0.00  0.00    +0.000 C 
ATOM     15  C   UNL     1      48.556   3.802  18.084  0.00  0.00    +0.000 C 
ATOM     16  F   UNL     1      49.710   3.116  18.250  0.00  0.00    +0.000 F 
ATOM     17  F   UNL     1      48.253   4.343  19.286  0.00  0.00    +0.000 F 
ATOM     18  C   UNL     1      47.415   3.015  17.412  0.00  0.00    +0.000 C 
ENDBRANCH  11  13
ENDBRANCH   9  11
ENDBRANCH   1   4
BRANCH   1  19
ATOM     19  C   UNL     1      43.315   4.259  11.085  0.00  0.00    +0.000 C 
BRANCH  19  20
ATOM     20  O   UNL     1      43.575   4.683   9.736  0.00  0.00    +0.000 OA
BRANCH  20  24
ATOM     21  C   UNL     1      46.288   2.315   7.874  0.00  0.00    +0.000 A 
ATOM     22  C   UNL     1      46.260   3.681   7.611  0.00  0.00    +0.000 A 
ATOM     23  N   UNL     1      45.373   4.529   8.200  0.00  0.00    +0.000 NA
ATOM     24  C   UNL     1      44.517   3.942   9.070  0.00  0.00    +0.000 A 
ATOM     25  C   UNL     1      44.544   2.572   9.330  0.00  0.00    +0.000 A 
ATOM     26  N   UNL     1      45.423   1.721   8.744  0.00  0.00    +0.000 NA
BRANCH  21  28
ATOM     27  N   UNL     1      48.333   2.093   6.591  0.00  0.00    +0.000 N 
ATOM     28  C   UNL     1      47.290   1.447   7.198  0.00  0.00    +0.000 C 
ATOM     29  O   UNL     1      47.195   0.227   7.191  0.00  0.00    +0.000 OA
ATOM     30  H   UNL     1      49.057   1.554   6.138  0.00  0.00    +0.000 HD
ATOM     31  H   UNL     1      48.413   3.104   6.649  0.00  0.00    +0.000 HD
ENDBRANCH  21  28
ENDBRANCH  20  24
ENDBRANCH  19  20
ENDBRANCH   1  19
TORSDOF 7
ENDMDL
MODEL 2
REMARK VINA RESULT:    -9.007      1.035      1.357
REMARK INTER + INTRA:         -13.675
REMARK INTER:                 -12.574
REMARK INTRA:                  -1.101
REMARK UNBOUND:                -0.982
REMARK  Name = 
REMARK  7 active torsions:
REMARK  status: ('A' for Active; 'I' for Inactive)
REMARK    1  A    between atoms: C_2  and  C_4
REMARK    2  A    between atoms: C_7  and  O_8
REMARK    3  A    between atoms: O_8  and  C_9
REMARK    4  A    between atoms: C_9  and  C_10
REMARK    5  A    between atoms: C_10  and  C_13
REMARK    6  A    between atoms: C_18  and  N_19
REMARK    7  A    between atoms: N_19  and  C_20
REMARK                            x       y       z     vdW  Elec       q    Type
REMARK                         _______ _______ _______ _____ _____    ______ ____
ROOT
ATOM      1  C   UNL     1      43.792   4.969  12.043  0.00  0.00    +0.000 C 
ATOM      2  F   UNL     1      43.263   5.744  11.045  0.00  0.00    +0.000 F 
ATOM      3  F   UNL     1      42.918   5.092  13.088  0.00  0.00    +0.000 F 
ENDROOT
BRANCH   1   4
ATOM      4  C   UNL     1      45.180   5.440  12.421  0.00  0.00    +0.000 A 
ATOM      5  C   UNL     1      45.919   6.278  11.577  0.00  0.00    +0.000 A 
ATOM      6  C   UNL     1      47.205   6.663  11.944  0.00  0.00    +0.000 A 
ATOM      7  F   UNL     1      47.898   7.480  11.138  0.00  0.00    +0.000 F 
ATOM      8  C   UNL     1      47.772   6.236  13.137  0.00  0.00    +0.000 A 
ATOM      9  C   UNL     1      47.052   5.408  14.003  0.00  0.00    +0.000 A 
ATOM     10  C   UNL     1      45.759   5.019  13.635  0.00  0.00    +0.000 A 
BRANCH   9  11
ATOM     11  N   UNL     1      47.605   5.093  15.260  0.00  0.00    +0.000 N 
ATOM     12  H   UNL     1      48.597   5.323  15.310  0.00  0.00    +0.000 HD
BRANCH  11  13
ATOM     13  C   UNL     1      47.162   4.074  16.162  0.00  0.00    +0.000 C 
ATOM     14  C   UNL     1      47.242   4.529  17.634  0.00  0.00    +0.000 C 
ATOM     15  C   UNL     1      48.018   3.242  17.962  0.00  0.00    +0.000 C 
ATOM     16  F   UNL     1      49.127   3.408  18.718  0.00  0.00    +0.000 F 
ATOM     17  F   UNL     1      47.290   2.266  18.554  0.00  0.00    +0.000 F 
ATOM     18  C   UNL     1      48.272   3.049  16.455  0.00  0.00    +0.000 C 
ENDBRANCH  11  13
ENDBRANCH   9  11
ENDBRANCH   1   4
BRANCH   1  19
ATOM     19  C   UNL     1      43.776   3.506  11.568  0.00  0.00    +0.000 C 
BRANCH  19  20
ATOM     20  O   UNL     1      43.417   3.485  10.176  0.00  0.00    +0.000 OA
BRANCH  20  24
ATOM     21  C   UNL     1      46.428   2.689   7.580  0.00  0.00    +0.000 A 
ATOM     22  C   UNL     1      45.901   1.670   8.369  0.00  0.00    +0.000 A 
ATOM     23  N   UNL     1      44.893   1.872   9.261  0.00  0.00    +0.000 NA
ATOM     24  C   UNL     1      44.434   3.145   9.322  0.00  0.00    +0.000 A 
ATOM     25  C   UNL     1      44.965   4.165   8.533  0.00  0.00    +0.000 A 
ATOM     26  N   UNL     1      45.972   3.971   7.645  0.00  0.00    +0.000 NA
BRANCH  21  28
ATOM     27  N   UNL     1      47.532   3.133   5.468  0.00  0.00    +0.000 N 
ATOM     28  C   UNL     1      47.526   2.395   6.621  0.00  0.00    +0.000 C 
ATOM     29  O   UNL     1      48.380   1.548   6.849  0.00  0.00    +0.000 OA
ATOM     30  H   UNL     1      48.268   2.994   4.791  0.00  0.00    +0.000 HD
ATOM     31  H   UNL     1      46.837   3.860   5.322  0.00  0.00    +0.000 HD
ENDBRANCH  21  28
ENDBRANCH  20  24
ENDBRANCH  19  20
ENDBRANCH   1  19
TORSDOF 7
ENDMDL
MODEL 3
REMARK VINA RESULT:    -8.613      2.443      4.319
REMARK INTER + INTRA:         -13.119
REMARK INTER:                 -11.997
REMARK INTRA:                  -1.123
REMARK UNBOUND:                -0.982
REMARK  Name = 
REMARK  7 active torsions:
REMARK  status: ('A' for Active; 'I' for Inactive)
REMARK    1  A    between atoms: C_2  and  C_4
REMARK    2  A    between atoms: C_7  and  O_8
REMARK    3  A    between atoms: O_8  and  C_9
REMARK    4  A    between atoms: C_9  and  C_10
REMARK    5  A    between atoms: C_10  and  C_13
REMARK    6  A    between atoms: C_18  and  N_19
REMARK    7  A    between atoms: N_19  and  C_20
REMARK                            x       y       z     vdW  Elec       q    Type
REMARK                         _______ _______ _______ _____ _____    ______ ____
ROOT
ATOM      1  C   UNL     1      43.336   5.430  11.985  0.00  0.00    +0.000 C 
ATOM      2  F   UNL     1      43.011   6.614  11.380  0.00  0.00    +0.000 F 
ATOM      3  F   UNL     1      42.390   5.257  12.957  0.00  0.00    +0.000 F 
ENDROOT
BRANCH   1   4
ATOM      4  C   UNL     1      44.732   5.482  12.570  0.00  0.00    +0.000 A 
ATOM      5  C   UNL     1      45.372   4.324  13.027  0.00  0.00    +0.000 A 
ATOM      6  C   UNL     1      46.642   4.417  13.588  0.00  0.00    +0.000 A 
ATOM      7  F   UNL     1      47.255   3.301  14.007  0.00  0.00    +0.000 F 
ATOM      8  C   UNL     1      47.293   5.638  13.700  0.00  0.00    +0.000 A 
ATOM      9  C   UNL     1      46.681   6.808  13.241  0.00  0.00    +0.000 A 
ATOM     10  C   UNL     1      45.403   6.717  12.678  0.00  0.00    +0.000 A 
BRANCH   9  11
ATOM     11  N   UNL     1      47.415   8.010  13.255  0.00  0.00    +0.000 N 
ATOM     12  H   UNL     1      47.299   8.519  14.130  0.00  0.00    +0.000 HD
BRANCH  11  13
ATOM     13  C   UNL     1      47.779   8.807  12.123  0.00  0.00    +0.000 C 
ATOM     14  C   UNL     1      49.204   8.490  11.626  0.00  0.00    +0.000 C 
ATOM     15  C   UNL     1      49.527   9.992  11.670  0.00  0.00    +0.000 C 
ATOM     16  F   UNL     1      50.700  10.319  12.258  0.00  0.00    +0.000 F 
ATOM     17  F   UNL     1      49.508  10.622  10.472  0.00  0.00    +0.000 F 
ATOM     18  C   UNL     1      48.274  10.203  12.542  0.00  0.00    +0.000 C 
ENDBRANCH  11  13
ENDBRANCH   9  11
ENDBRANCH   1   4
BRANCH   1  19
ATOM     19  C   UNL     1      43.176   4.305  10.948  0.00  0.00    +0.000 C 
BRANCH  19  20
ATOM     20  O   UNL     1      43.700   4.768   9.691  0.00  0.00    +0.000 OA
BRANCH  20  24
ATOM     21  C   UNL     1      46.191   2.055   7.999  0.00  0.00    +0.000 A 
ATOM     22  C   UNL     1      46.205   3.378   7.566  0.00  0.00    +0.000 A 
ATOM     23  N   UNL     1      45.392   4.335   8.091  0.00  0.00    +0.000 NA
ATOM     24  C   UNL     1      44.567   3.904   9.074  0.00  0.00    +0.000 A 
ATOM     25  C   UNL     1      44.552   2.578   9.504  0.00  0.00    +0.000 A 
ATOM     26  N   UNL     1      45.356   1.618   8.983  0.00  0.00    +0.000 NA
BRANCH  21  28
ATOM     27  N   UNL     1      46.853  -0.254   7.664  0.00  0.00    +0.000 N 
ATOM     28  C   UNL     1      47.113   1.061   7.385  0.00  0.00    +0.000 C 
ATOM     29  O   UNL     1      48.045   1.396   6.666  0.00  0.00    +0.000 OA
ATOM     30  H   UNL     1      47.430  -0.973   7.253  0.00  0.00    +0.000 HD
ATOM     31  H   UNL     1      46.046  -0.508   8.227  0.00  0.00    +0.000 HD
ENDBRANCH  21  28
ENDBRANCH  20  24
ENDBRANCH  19  20
ENDBRANCH   1  19
TORSDOF 7
ENDMDL
MODEL 4
REMARK VINA RESULT:    -8.436      3.428      7.775
REMARK INTER + INTRA:         -12.870
REMARK INTER:                 -11.825
REMARK INTRA:                  -1.045
REMARK UNBOUND:                -0.982
REMARK  Name = 
REMARK  7 active torsions:
REMARK  status: ('A' for Active; 'I' for Inactive)
REMARK    1  A    between atoms: C_2  and  C_4
REMARK    2  A    between atoms: C_7  and  O_8
REMARK    3  A    between atoms: O_8  and  C_9
REMARK    4  A    between atoms: C_9  and  C_10
REMARK    5  A    between atoms: C_10  and  C_13
REMARK    6  A    between atoms: C_18  and  N_19
REMARK    7  A    between atoms: N_19  and  C_20
REMARK                            x       y       z     vdW  Elec       q    Type
REMARK                         _______ _______ _______ _____ _____    ______ ____
ROOT
ATOM      1  C   UNL     1      46.241   7.501  11.774  0.00  0.00    +0.000 C 
ATOM      2  F   UNL     1      45.765   8.739  11.433  0.00  0.00    +0.000 F 
ATOM      3  F   UNL     1      47.378   7.341  11.030  0.00  0.00    +0.000 F 
ENDROOT
BRANCH   1   4
ATOM      4  C   UNL     1      45.222   6.423  11.471  0.00  0.00    +0.000 A 
ATOM      5  C   UNL     1      43.863   6.608  11.750  0.00  0.00    +0.000 A 
ATOM      6  C   UNL     1      42.961   5.581  11.489  0.00  0.00    +0.000 A 
ATOM      7  F   UNL     1      41.659   5.773  11.743  0.00  0.00    +0.000 F 
ATOM      8  C   UNL     1      43.382   4.374  10.947  0.00  0.00    +0.000 A 
ATOM      9  C   UNL     1      44.731   4.167  10.648  0.00  0.00    +0.000 A 
ATOM     10  C   UNL     1      45.640   5.199  10.912  0.00  0.00    +0.000 A 
BRANCH   9  11
ATOM     11  N   UNL     1      45.108   2.982   9.986  0.00  0.00    +0.000 N 
ATOM     12  H   UNL     1      45.786   2.444  10.524  0.00  0.00    +0.000 HD
BRANCH  11  13
ATOM     13  C   UNL     1      45.121   2.754   8.573  0.00  0.00    +0.000 C 
ATOM     14  C   UNL     1      46.175   1.704   8.166  0.00  0.00    +0.000 C 
ATOM     15  C   UNL     1      46.715   2.690   7.117  0.00  0.00    +0.000 C 
ATOM     16  F   UNL     1      48.060   2.833   7.091  0.00  0.00    +0.000 F 
ATOM     17  F   UNL     1      46.329   2.444   5.843  0.00  0.00    +0.000 F 
ATOM     18  C   UNL     1      45.947   3.819   7.830  0.00  0.00    +0.000 C 
ENDBRANCH  11  13
ENDBRANCH   9  11
ENDBRANCH   1   4
BRANCH   1  19
ATOM     19  C   UNL     1      46.635   7.536  13.261  0.00  0.00    +0.000 C 
BRANCH  19  20
ATOM     20  O   UNL     1      47.848   6.782  13.426  0.00  0.00    +0.000 OA
BRANCH  20  24
ATOM     21  C   UNL     1      47.693   4.092  16.455  0.00  0.00    +0.000 A 
ATOM     22  C   UNL     1      48.527   5.203  16.552  0.00  0.00    +0.000 A 
ATOM     23  N   UNL     1      48.627   6.140  15.570  0.00  0.00    +0.000 NA
ATOM     24  C   UNL     1      47.847   5.913  14.486  0.00  0.00    +0.000 A 
ATOM     25  C   UNL     1      47.015   4.798  14.389  0.00  0.00    +0.000 A 
ATOM     26  N   UNL     1      46.914   3.859  15.362  0.00  0.00    +0.000 NA
BRANCH  21  28
ATOM     27  N   UNL     1      48.765   2.980  18.324  0.00  0.00    +0.000 N 
ATOM     28  C   UNL     1      47.629   3.110  17.570  0.00  0.00    +0.000 C 
ATOM     29  O   UNL     1      46.620   2.460  17.809  0.00  0.00    +0.000 OA
ATOM     30  H   UNL     1      48.771   2.348  19.111  0.00  0.00    +0.000 HD
ATOM     31  H   UNL     1      49.575   3.564  18.135  0.00  0.00    +0.000 HD
ENDBRANCH  21  28
ENDBRANCH  20  24
ENDBRANCH  19  20
ENDBRANCH   1  19
TORSDOF 7
ENDMDL
MODEL 5
REMARK VINA RESULT:    -8.336      3.386      8.331
REMARK INTER + INTRA:         -12.729
REMARK INTER:                 -11.972
REMARK INTRA:                  -0.757
REMARK UNBOUND:                -0.982
REMARK  Name = 
REMARK  7 active torsions:
REMARK  status: ('A' for Active; 'I' for Inactive)
REMARK    1  A    between atoms: C_2  and  C_4
REMARK    2  A    between atoms: C_7  and  O_8
REMARK    3  A    between atoms: O_8  and  C_9
REMARK    4  A    between atoms: C_9  and  C_10
REMARK    5  A    between atoms: C_10  and  C_13
REMARK    6  A    between atoms: C_18  and  N_19
REMARK    7  A    between atoms: N_19  and  C_20
REMARK                            x       y       z     vdW  Elec       q    Type
REMARK                         _______ _______ _______ _____ _____    ______ ____
ROOT
ATOM      1  C   UNL     1      46.612   6.503  12.432  0.00  0.00    +0.000 C 
ATOM      2  F   UNL     1      46.202   7.600  13.142  0.00  0.00    +0.000 F 
ATOM      3  F   UNL     1      47.347   7.007  11.395  0.00  0.00    +0.000 F 
ENDROOT
BRANCH   1   4
ATOM      4  C   UNL     1      45.428   5.701  11.936  0.00  0.00    +0.000 A 
ATOM      5  C   UNL     1      44.116   6.159  12.106  0.00  0.00    +0.000 A 
ATOM      6  C   UNL     1      43.052   5.378  11.666  0.00  0.00    +0.000 A 
ATOM      7  F   UNL     1      41.800   5.832  11.817  0.00  0.00    +0.000 F 
ATOM      8  C   UNL     1      43.265   4.151  11.052  0.00  0.00    +0.000 A 
ATOM      9  C   UNL     1      44.565   3.675  10.859  0.00  0.00    +0.000 A 
ATOM     10  C   UNL     1      45.636   4.459  11.303  0.00  0.00    +0.000 A 
BRANCH   9  11
ATOM     11  N   UNL     1      44.753   2.488  10.124  0.00  0.00    +0.000 N 
ATOM     12  H   UNL     1      45.268   1.788  10.656  0.00  0.00    +0.000 HD
BRANCH  11  13
ATOM     13  C   UNL     1      44.833   2.362   8.700  0.00  0.00    +0.000 C 
ATOM     14  C   UNL     1      46.187   1.780   8.246  0.00  0.00    +0.000 C 
ATOM     15  C   UNL     1      46.331   2.953   7.262  0.00  0.00    +0.000 C 
ATOM     16  F   UNL     1      47.537   3.566   7.260  0.00  0.00    +0.000 F 
ATOM     17  F   UNL     1      46.045   2.662   5.972  0.00  0.00    +0.000 F 
ATOM     18  C   UNL     1      45.219   3.693   8.030  0.00  0.00    +0.000 C 
ENDBRANCH  11  13
ENDBRANCH   9  11
ENDBRANCH   1   4
BRANCH   1  19
ATOM     19  C   UNL     1      47.546   5.676  13.332  0.00  0.00    +0.000 C 
BRANCH  19  20
ATOM     20  O   UNL     1      46.738   4.851  14.188  0.00  0.00    +0.000 OA
BRANCH  20  24
ATOM     21  C   UNL     1      48.355   4.467  17.886  0.00  0.00    +0.000 A 
ATOM     22  C   UNL     1      47.389   3.564  17.451  0.00  0.00    +0.000 A 
ATOM     23  N   UNL     1      46.805   3.640  16.224  0.00  0.00    +0.000 NA
ATOM     24  C   UNL     1      47.240   4.662  15.450  0.00  0.00    +0.000 A 
ATOM     25  C   UNL     1      48.206   5.568  15.888  0.00  0.00    +0.000 A 
ATOM     26  N   UNL     1      48.789   5.500  17.111  0.00  0.00    +0.000 NA
BRANCH  21  28
ATOM     27  N   UNL     1      48.465   3.298  20.008  0.00  0.00    +0.000 N 
ATOM     28  C   UNL     1      48.956   4.320  19.239  0.00  0.00    +0.000 C 
ATOM     29  O   UNL     1      49.843   5.061  19.642  0.00  0.00    +0.000 OA
ATOM     30  H   UNL     1      48.853   3.135  20.925  0.00  0.00    +0.000 HD
ATOM     31  H   UNL     1      47.761   2.669  19.634  0.00  0.00    +0.000 HD
ENDBRANCH  21  28
ENDBRANCH  20  24
ENDBRANCH  19  20
ENDBRANCH   1  19
TORSDOF 7
ENDMDL
MODEL 6
REMARK VINA RESULT:    -8.169      3.101      3.817
REMARK INTER + INTRA:         -12.493
REMARK INTER:                 -11.661
REMARK INTRA:                  -0.832
REMARK UNBOUND:                -0.982
REMARK  Name = 
REMARK  7 active torsions:
REMARK  status: ('A' for Active; 'I' for Inactive)
REMARK    1  A    between atoms: C_2  and  C_4
REMARK    2  A    between atoms: C_7  and  O_8
REMARK    3  A    between atoms: O_8  and  C_9
REMARK    4  A    between atoms: C_9  and  C_10
REMARK    5  A    between atoms: C_10  and  C_13
REMARK    6  A    between atoms: C_18  and  N_19
REMARK    7  A    between atoms: N_19  and  C_20
REMARK                            x       y       z     vdW  Elec       q    Type
REMARK                         _______ _______ _______ _____ _____    ______ ____
ROOT
ATOM      1  C   UNL     1      43.332   4.570  12.326  0.00  0.00    +0.000 C 
ATOM      2  F   UNL     1      42.130   4.829  11.724  0.00  0.00    +0.000 F 
ATOM      3  F   UNL     1      43.015   4.182  13.599  0.00  0.00    +0.000 F 
ENDROOT
BRANCH   1   4
ATOM      4  C   UNL     1      44.219   5.796  12.323  0.00  0.00    +0.000 A 
ATOM      5  C   UNL     1      43.937   6.895  11.503  0.00  0.00    +0.000 A 
ATOM      6  C   UNL     1      44.795   7.991  11.504  0.00  0.00    +0.000 A 
ATOM      7  F   UNL     1      44.508   9.047  10.729  0.00  0.00    +0.000 F 
ATOM      8  C   UNL     1      45.926   8.021  12.309  0.00  0.00    +0.000 A 
ATOM      9  C   UNL     1      46.224   6.942  13.146  0.00  0.00    +0.000 A 
ATOM     10  C   UNL     1      45.363   5.838  13.145  0.00  0.00    +0.000 A 
BRANCH   9  11
ATOM     11  N   UNL     1      47.307   7.053  14.040  0.00  0.00    +0.000 N 
ATOM     12  H   UNL     1      47.037   7.506  14.912  0.00  0.00    +0.000 HD
BRANCH  11  13
ATOM     13  C   UNL     1      48.694   7.144  13.702  0.00  0.00    +0.000 C 
ATOM     14  C   UNL     1      49.155   8.607  13.537  0.00  0.00    +0.000 C 
ATOM     15  C   UNL     1      49.758   8.236  12.172  0.00  0.00    +0.000 C 
ATOM     16  F   UNL     1      49.471   9.086  11.159  0.00  0.00    +0.000 F 
ATOM     17  F   UNL     1      51.100   8.064  12.162  0.00  0.00    +0.000 F 
ATOM     18  C   UNL     1      48.930   6.937  12.195  0.00  0.00    +0.000 C 
ENDBRANCH  11  13
ENDBRANCH   9  11
ENDBRANCH   1   4
BRANCH   1  19
ATOM     19  C   UNL     1      43.978   3.375  11.603  0.00  0.00    +0.000 C 
BRANCH  19  20
ATOM     20  O   UNL     1      43.554   3.393  10.229  0.00  0.00    +0.000 OA
BRANCH  20  24
ATOM     21  C   UNL     1      46.421   2.634   7.465  0.00  0.00    +0.000 A 
ATOM     22  C   UNL     1      45.995   1.623   8.322  0.00  0.00    +0.000 A 
ATOM     23  N   UNL     1      45.040   1.814   9.272  0.00  0.00    +0.000 NA
ATOM     24  C   UNL     1      44.528   3.067   9.320  0.00  0.00    +0.000 A 
ATOM     25  C   UNL     1      44.958   4.079   8.463  0.00  0.00    +0.000 A 
ATOM     26  N   UNL     1      45.912   3.897   7.516  0.00  0.00    +0.000 NA
BRANCH  21  28
ATOM     27  N   UNL     1      47.508   3.206   5.374  0.00  0.00    +0.000 N 
ATOM     28  C   UNL     1      47.465   2.352   6.444  0.00  0.00    +0.000 C 
ATOM     29  O   UNL     1      48.248   1.418   6.553  0.00  0.00    +0.000 OA
ATOM     30  H   UNL     1      48.213   3.079   4.663  0.00  0.00    +0.000 HD
ATOM     31  H   UNL     1      46.876   4.002   5.329  0.00  0.00    +0.000 HD
ENDBRANCH  21  28
ENDBRANCH  20  24
ENDBRANCH  19  20
ENDBRANCH   1  19
TORSDOF 7
ENDMDL
MODEL 7
REMARK VINA RESULT:    -8.027      3.058      5.517
REMARK INTER + INTRA:         -12.294
REMARK INTER:                 -11.441
REMARK INTRA:                  -0.853
REMARK UNBOUND:                -0.982
REMARK  Name = 
REMARK  7 active torsions:
REMARK  status: ('A' for Active; 'I' for Inactive)
REMARK    1  A    between atoms: C_2  and  C_4
REMARK    2  A    between atoms: C_7  and  O_8
REMARK    3  A    between atoms: O_8  and  C_9
REMARK    4  A    between atoms: C_9  and  C_10
REMARK    5  A    between atoms: C_10  and  C_13
REMARK    6  A    between atoms: C_18  and  N_19
REMARK    7  A    between atoms: N_19  and  C_20
REMARK                            x       y       z     vdW  Elec       q    Type
REMARK                         _______ _______ _______ _____ _____    ______ ____
ROOT
ATOM      1  C   UNL     1      43.693   4.443  12.332  0.00  0.00    +0.000 C 
ATOM      2  F   UNL     1      42.640   4.919  11.598  0.00  0.00    +0.000 F 
ATOM      3  F   UNL     1      43.150   4.069  13.530  0.00  0.00    +0.000 F 
ENDROOT
BRANCH   1   4
ATOM      4  C   UNL     1      44.758   5.504  12.512  0.00  0.00    +0.000 A 
ATOM      5  C   UNL     1      46.112   5.164  12.623  0.00  0.00    +0.000 A 
ATOM      6  C   UNL     1      47.057   6.166  12.820  0.00  0.00    +0.000 A 
ATOM      7  F   UNL     1      48.353   5.833  12.908  0.00  0.00    +0.000 F 
ATOM      8  C   UNL     1      46.686   7.501  12.903  0.00  0.00    +0.000 A 
ATOM      9  C   UNL     1      45.344   7.869  12.784  0.00  0.00    +0.000 A 
ATOM     10  C   UNL     1      44.390   6.862  12.587  0.00  0.00    +0.000 A 
BRANCH   9  11
ATOM     11  N   UNL     1      45.013   9.238  12.749  0.00  0.00    +0.000 N 
ATOM     12  H   UNL     1      44.542   9.539  13.601  0.00  0.00    +0.000 HD
BRANCH  11  13
ATOM     13  C   UNL     1      44.745  10.027  11.585  0.00  0.00    +0.000 C 
ATOM     14  C   UNL     1      43.583  11.016  11.811  0.00  0.00    +0.000 C 
ATOM     15  C   UNL     1      42.923  10.495  10.524  0.00  0.00    +0.000 C 
ATOM     16  F   UNL     1      41.603  10.215  10.619  0.00  0.00    +0.000 F 
ATOM     17  F   UNL     1      43.071  11.290   9.438  0.00  0.00    +0.000 F 
ATOM     18  C   UNL     1      43.860   9.274  10.575  0.00  0.00    +0.000 C 
ENDBRANCH  11  13
ENDBRANCH   9  11
ENDBRANCH   1   4
BRANCH   1  19
ATOM     19  C   UNL     1      44.232   3.184  11.630  0.00  0.00    +0.000 C 
BRANCH  19  20
ATOM     20  O   UNL     1      43.696   3.144  10.297  0.00  0.00    +0.000 OA
BRANCH  20  24
ATOM     21  C   UNL     1      46.414   2.766   7.313  0.00  0.00    +0.000 A 
ATOM     22  C   UNL     1      46.093   1.668   8.105  0.00  0.00    +0.000 A 
ATOM     23  N   UNL     1      45.193   1.729   9.124  0.00  0.00    +0.000 NA
ATOM     24  C   UNL     1      44.625   2.944   9.307  0.00  0.00    +0.000 A 
ATOM     25  C   UNL     1      44.949   4.045   8.514  0.00  0.00    +0.000 A 
ATOM     26  N   UNL     1      45.848   3.991   7.500  0.00  0.00    +0.000 NA
BRANCH  21  28
ATOM     27  N   UNL     1      48.616   2.089   6.556  0.00  0.00    +0.000 N 
ATOM     28  C   UNL     1      47.404   2.624   6.211  0.00  0.00    +0.000 C 
ATOM     29  O   UNL     1      47.151   2.958   5.061  0.00  0.00    +0.000 OA
ATOM     30  H   UNL     1      49.318   1.945   5.844  0.00  0.00    +0.000 HD
ATOM     31  H   UNL     1      48.786   1.778   7.508  0.00  0.00    +0.000 HD
ENDBRANCH  21  28
ENDBRANCH  20  24
ENDBRANCH  19  20
ENDBRANCH   1  19
TORSDOF 7
ENDMDL
MODEL 8
REMARK VINA RESULT:    -7.988      1.925      2.439
REMARK INTER + INTRA:         -12.239
REMARK INTER:                 -11.414
REMARK INTRA:                  -0.825
REMARK UNBOUND:                -0.982
REMARK  Name = 
REMARK  7 active torsions:
REMARK  status: ('A' for Active; 'I' for Inactive)
REMARK    1  A    between atoms: C_2  and  C_4
REMARK    2  A    between atoms: C_7  and  O_8
REMARK    3  A    between atoms: O_8  and  C_9
REMARK    4  A    between atoms: C_9  and  C_10
REMARK    5  A    between atoms: C_10  and  C_13
REMARK    6  A    between atoms: C_18  and  N_19
REMARK    7  A    between atoms: N_19  and  C_20
REMARK                            x       y       z     vdW  Elec       q    Type
REMARK                         _______ _______ _______ _____ _____    ______ ____
ROOT
ATOM      1  C   UNL     1      44.471   4.158  12.189  0.00  0.00    +0.000 C 
ATOM      2  F   UNL     1      43.577   3.944  13.204  0.00  0.00    +0.000 F 
ATOM      3  F   UNL     1      45.284   3.058  12.195  0.00  0.00    +0.000 F 
ENDROOT
BRANCH   1   4
ATOM      4  C   UNL     1      45.258   5.432  12.416  0.00  0.00    +0.000 A 
ATOM      5  C   UNL     1      44.758   6.676  12.014  0.00  0.00    +0.000 A 
ATOM      6  C   UNL     1      45.526   7.820  12.209  0.00  0.00    +0.000 A 
ATOM      7  F   UNL     1      45.032   9.010  11.837  0.00  0.00    +0.000 F 
ATOM      8  C   UNL     1      46.779   7.755  12.802  0.00  0.00    +0.000 A 
ATOM      9  C   UNL     1      47.297   6.527  13.224  0.00  0.00    +0.000 A 
ATOM     10  C   UNL     1      46.527   5.374  13.026  0.00  0.00    +0.000 A 
BRANCH   9  11
ATOM     11  N   UNL     1      48.514   6.508  13.933  0.00  0.00    +0.000 N 
ATOM     12  H   UNL     1      49.138   5.775  13.600  0.00  0.00    +0.000 HD
BRANCH  11  13
ATOM     13  C   UNL     1      48.729   6.936  15.282  0.00  0.00    +0.000 C 
ATOM     14  C   UNL     1      50.229   7.062  15.617  0.00  0.00    +0.000 C 
ATOM     15  C   UNL     1      49.996   6.195  16.866  0.00  0.00    +0.000 C 
ATOM     16  F   UNL     1      50.889   5.197  17.056  0.00  0.00    +0.000 F 
ATOM     17  F   UNL     1      49.924   6.875  18.034  0.00  0.00    +0.000 F 
ATOM     18  C   UNL     1      48.642   5.762  16.274  0.00  0.00    +0.000 C 
ENDBRANCH  11  13
ENDBRANCH   9  11
ENDBRANCH   1   4
BRANCH   1  19
ATOM     19  C   UNL     1      43.691   4.177  10.863  0.00  0.00    +0.000 C 
BRANCH  19  20
ATOM     20  O   UNL     1      43.743   2.861  10.288  0.00  0.00    +0.000 OA
BRANCH  20  24
ATOM     21  C   UNL     1      46.522   2.579   7.350  0.00  0.00    +0.000 A 
ATOM     22  C   UNL     1      46.191   1.458   8.105  0.00  0.00    +0.000 A 
ATOM     23  N   UNL     1      45.270   1.487   9.106  0.00  0.00    +0.000 NA
ATOM     24  C   UNL     1      44.692   2.694   9.312  0.00  0.00    +0.000 A 
ATOM     25  C   UNL     1      45.026   3.818   8.557  0.00  0.00    +0.000 A 
ATOM     26  N   UNL     1      45.946   3.796   7.560  0.00  0.00    +0.000 NA
BRANCH  21  28
ATOM     27  N   UNL     1      47.335   3.278   5.175  0.00  0.00    +0.000 N 
ATOM     28  C   UNL     1      47.534   2.474   6.265  0.00  0.00    +0.000 C 
ATOM     29  O   UNL     1      48.495   1.719   6.342  0.00  0.00    +0.000 OA
ATOM     30  H   UNL     1      48.004   3.267   4.419  0.00  0.00    +0.000 HD
ATOM     31  H   UNL     1      46.555   3.929   5.154  0.00  0.00    +0.000 HD
ENDBRANCH  21  28
ENDBRANCH  20  24
ENDBRANCH  19  20
ENDBRANCH   1  19
TORSDOF 7
ENDMDL
MODEL 9
REMARK VINA RESULT:    -7.436      3.947      8.729
REMARK INTER + INTRA:         -11.461
REMARK INTER:                 -10.669
REMARK INTRA:                  -0.792
REMARK UNBOUND:                -0.982
REMARK  Name = 
REMARK  7 active torsions:
REMARK  status: ('A' for Active; 'I' for Inactive)
REMARK    1  A    between atoms: C_2  and  C_4
REMARK    2  A    between atoms: C_7  and  O_8
REMARK    3  A    between atoms: O_8  and  C_9
REMARK    4  A    between atoms: C_9  and  C_10
REMARK    5  A    between atoms: C_10  and  C_13
REMARK    6  A    between atoms: C_18  and  N_19
REMARK    7  A    between atoms: N_19  and  C_20
REMARK                            x       y       z     vdW  Elec       q    Type
REMARK                         _______ _______ _______ _____ _____    ______ ____
ROOT
ATOM      1  C   UNL     1      46.541   4.770  13.739  0.00  0.00    +0.000 C 
ATOM      2  F   UNL     1      47.513   3.822  13.563  0.00  0.00    +0.000 F 
ATOM      3  F   UNL     1      46.217   4.704  15.066  0.00  0.00    +0.000 F 
ENDROOT
BRANCH   1   4
ATOM      4  C   UNL     1      45.341   4.490  12.859  0.00  0.00    +0.000 A 
ATOM      5  C   UNL     1      44.196   5.293  12.915  0.00  0.00    +0.000 A 
ATOM      6  C   UNL     1      43.100   4.984  12.114  0.00  0.00    +0.000 A 
ATOM      7  F   UNL     1      42.014   5.769  12.161  0.00  0.00    +0.000 F 
ATOM      8  C   UNL     1      43.121   3.896  11.252  0.00  0.00    +0.000 A 
ATOM      9  C   UNL     1      44.256   3.085  11.168  0.00  0.00    +0.000 A 
ATOM     10  C   UNL     1      45.359   3.393  11.974  0.00  0.00    +0.000 A 
BRANCH   9  11
ATOM     11  N   UNL     1      44.294   2.065  10.197  0.00  0.00    +0.000 N 
ATOM     12  H   UNL     1      44.600   1.176  10.589  0.00  0.00    +0.000 HD
BRANCH  11  13
ATOM     13  C   UNL     1      44.509   2.225   8.791  0.00  0.00    +0.000 C 
ATOM     14  C   UNL     1      46.000   2.099   8.416  0.00  0.00    +0.000 C 
ATOM     15  C   UNL     1      45.894   3.429   7.652  0.00  0.00    +0.000 C 
ATOM     16  F   UNL     1      46.885   4.318   7.889  0.00  0.00    +0.000 F 
ATOM     17  F   UNL     1      45.793   3.315   6.307  0.00  0.00    +0.000 F 
ATOM     18  C   UNL     1      44.569   3.709   8.387  0.00  0.00    +0.000 C 
ENDBRANCH  11  13
ENDBRANCH   9  11
ENDBRANCH   1   4
BRANCH   1  19
ATOM     19  C   UNL     1      47.165   6.148  13.460  0.00  0.00    +0.000 C 
BRANCH  19  20
ATOM     20  O   UNL     1      48.539   6.117  13.881  0.00  0.00    +0.000 OA
BRANCH  20  24
ATOM     21  C   UNL     1      49.156   7.614  17.598  0.00  0.00    +0.000 A 
ATOM     22  C   UNL     1      49.293   6.248  17.366  0.00  0.00    +0.000 A 
ATOM     23  N   UNL     1      49.097   5.683  16.143  0.00  0.00    +0.000 NA
ATOM     24  C   UNL     1      48.761   6.554  15.162  0.00  0.00    +0.000 A 
ATOM     25  C   UNL     1      48.621   7.921  15.397  0.00  0.00    +0.000 A 
ATOM     26  N   UNL     1      48.812   8.490  16.614  0.00  0.00    +0.000 NA
BRANCH  21  28
ATOM     27  N   UNL     1      50.256   9.223  19.040  0.00  0.00    +0.000 N 
ATOM     28  C   UNL     1      49.392   8.164  18.960  0.00  0.00    +0.000 C 
ATOM     29  O   UNL     1      48.843   7.704  19.952  0.00  0.00    +0.000 OA
ATOM     30  H   UNL     1      50.434   9.654  19.935  0.00  0.00    +0.000 HD
ATOM     31  H   UNL     1      50.665   9.616  18.196  0.00  0.00    +0.000 HD
ENDBRANCH  21  28
ENDBRANCH  20  24
ENDBRANCH  19  20
ENDBRANCH   1  19
TORSDOF 7
ENDMDL
