MODEL 1
REMARK VINA RESULT:    -9.346      0.000      0.000
REMARK INTER + INTRA:         -13.672
REMARK INTER:                 -12.897
REMARK INTRA:                  -0.774
REMARK UNBOUND:                -0.774
REMARK  Name = 
REMARK  7 active torsions:
REMARK  status: ('A' for Active; 'I' for Inactive)
REMARK    1  A    between atoms: C_2  and  C_4
REMARK    2  A    between atoms: N_8  and  C_9
REMARK    3  A    between atoms: C_9  and  C_10
REMARK    4  A    between atoms: C_10  and  C_13
REMARK    5  A    between atoms: C_17  and  C_18
REMARK    6  A    between atoms: C_19  and  C_20
REMARK    7  A    between atoms: C_22  and  O_23
REMARK                            x       y       z     vdW  Elec       q    Type
REMARK                         _______ _______ _______ _____ _____    ______ ____
ROOT
ATOM      1  C   UNL     1      43.441   5.402  12.248  0.00  0.00    +0.000 C 
ATOM      2  F   UNL     1      42.913   6.633  11.951  0.00  0.00    +0.000 F 
ATOM      3  F   UNL     1      42.645   4.919  13.252  0.00  0.00    +0.000 F 
ENDROOT
BRANCH   1   4
ATOM      4  C   UNL     1      44.881   5.531  12.724  0.00  0.00    +0.000 A 
ATOM      5  C   UNL     1      45.750   6.533  12.277  0.00  0.00    +0.000 A 
ATOM      6  C   UNL     1      47.056   6.542  12.735  0.00  0.00    +0.000 A 
ATOM      7  N   UNL     1      47.547   5.641  13.603  0.00  0.00    +0.000 NA
ATOM      8  C   UNL     1      46.715   4.674  14.051  0.00  0.00    +0.000 A 
ATOM      9  C   UNL     1      45.385   4.591  13.641  0.00  0.00    +0.000 A 
BRANCH   8  10
ATOM     10  C   UNL     1      47.286   3.707  15.002  0.00  0.00    +0.000 C 
ATOM     11  C   UNL     1      47.391   3.949  16.320  0.00  0.00    +0.000 C 
BRANCH  11  12
ATOM     12  C   UNL     1      47.953   2.919  17.232  0.00  0.00    +0.000 C 
ATOM     13  C   UNL     1      49.139   2.097  16.666  0.00  0.00    +0.000 C 
ATOM     14  C   UNL     1      50.111   3.018  17.432  0.00  0.00    +0.000 C 
ATOM     15  C   UNL     1      48.922   3.463  18.309  0.00  0.00    +0.000 C 
BRANCH  14  16
ATOM     16  O   UNL     1      51.201   2.375  18.116  0.00  0.00    +0.000 OA
ATOM     17  H   UNL     1      51.717   3.092  18.519  0.00  0.00    +0.000 HD
ENDBRANCH  14  16
ENDBRANCH  11  12
ENDBRANCH   8  10
ENDBRANCH   1   4
BRANCH   1  18
ATOM     18  C   UNL     1      43.250   4.505  10.994  0.00  0.00    +0.000 C 
BRANCH  18  23
ATOM     19  C   UNL     1      46.317   2.099   7.899  0.00  0.00    +0.000 A 
ATOM     20  C   UNL     1      46.363   3.421   7.468  0.00  0.00    +0.000 A 
ATOM     21  C   UNL     1      45.584   4.378   8.123  0.00  0.00    +0.000 A 
ATOM     22  C   UNL     1      44.785   4.004   9.203  0.00  0.00    +0.000 A 
ATOM     23  N   UNL     1      43.973   4.982   9.798  0.00  0.00    +0.000 N 
ATOM     24  N   UNL     1      44.720   2.719   9.614  0.00  0.00    +0.000 NA
ATOM     25  C   UNL     1      45.471   1.797   8.955  0.00  0.00    +0.000 A 
ATOM     26  H   UNL     1      44.494   5.837   9.974  0.00  0.00    +0.000 HD
BRANCH  19  28
ATOM     27  N   UNL     1      46.797  -0.266   7.644  0.00  0.00    +0.000 N 
ATOM     28  C   UNL     1      47.091   1.014   7.263  0.00  0.00    +0.000 C 
ATOM     29  O   UNL     1      47.934   1.244   6.406  0.00  0.00    +0.000 OA
ATOM     30  H   UNL     1      47.262  -1.007   7.134  0.00  0.00    +0.000 HD
ATOM     31  H   UNL     1      45.959  -0.507   8.153  0.00  0.00    +0.000 HD
ENDBRANCH  19  28
ENDBRANCH  18  23
ENDBRANCH   1  18
TORSDOF 7
ENDMDL
MODEL 2
REMARK VINA RESULT:    -8.903      2.119      8.464
REMARK INTER + INTRA:         -13.061
REMARK INTER:                 -12.435
REMARK INTRA:                  -0.626
REMARK UNBOUND:                -0.774
REMARK  Name = 
REMARK  7 active torsions:
REMARK  status: ('A' for Active; 'I' for Inactive)
REMARK    1  A    between atoms: C_2  and  C_4
REMARK    2  A    between atoms: N_8  and  C_9
REMARK    3  A    between atoms: C_9  and  C_10
REMARK    4  A    between atoms: C_10  and  C_13
REMARK    5  A    between atoms: C_17  and  C_18
REMARK    6  A    between atoms: C_19  and  C_20
REMARK    7  A    between atoms: C_22  and  O_23
REMARK                            x       y       z     vdW  Elec       q    Type
REMARK                         _______ _______ _______ _____ _____    ______ ____
ROOT
ATOM      1  C   UNL     1      46.179   6.729  12.552  0.00  0.00    +0.000 C 
ATOM      2  F   UNL     1      45.632   7.756  13.279  0.00  0.00    +0.000 F 
ATOM      3  F   UNL     1      46.816   7.346  11.509  0.00  0.00    +0.000 F 
ENDROOT
BRANCH   1   4
ATOM      4  C   UNL     1      45.095   5.792  12.038  0.00  0.00    +0.000 A 
ATOM      5  C   UNL     1      43.868   5.609  12.686  0.00  0.00    +0.000 A 
ATOM      6  C   UNL     1      42.963   4.703  12.164  0.00  0.00    +0.000 A 
ATOM      7  N   UNL     1      43.186   3.983  11.051  0.00  0.00    +0.000 NA
ATOM      8  C   UNL     1      44.364   4.158  10.410  0.00  0.00    +0.000 A 
ATOM      9  C   UNL     1      45.332   5.050  10.866  0.00  0.00    +0.000 A 
BRANCH   8  10
ATOM     10  C   UNL     1      44.573   3.355   9.194  0.00  0.00    +0.000 C 
ATOM     11  C   UNL     1      45.643   3.501   8.393  0.00  0.00    +0.000 C 
BRANCH  11  12
ATOM     12  C   UNL     1      45.808   2.639   7.194  0.00  0.00    +0.000 C 
ATOM     13  C   UNL     1      46.705   3.218   6.071  0.00  0.00    +0.000 C 
ATOM     14  C   UNL     1      47.876   2.365   6.599  0.00  0.00    +0.000 C 
ATOM     15  C   UNL     1      46.844   1.500   7.351  0.00  0.00    +0.000 C 
BRANCH  14  16
ATOM     16  O   UNL     1      48.675   1.689   5.611  0.00  0.00    +0.000 OA
ATOM     17  H   UNL     1      48.994   0.879   6.042  0.00  0.00    +0.000 HD
ENDBRANCH  14  16
ENDBRANCH  11  12
ENDBRANCH   8  10
ENDBRANCH   1   4
BRANCH   1  18
ATOM     18  C   UNL     1      47.250   6.050  13.450  0.00  0.00    +0.000 C 
BRANCH  18  23
ATOM     19  C   UNL     1      48.589   4.408  17.954  0.00  0.00    +0.000 A 
ATOM     20  C   UNL     1      47.659   3.473  17.511  0.00  0.00    +0.000 A 
ATOM     21  C   UNL     1      47.057   3.651  16.263  0.00  0.00    +0.000 A 
ATOM     22  C   UNL     1      47.403   4.747  15.472  0.00  0.00    +0.000 A 
ATOM     23  N   UNL     1      46.735   4.921  14.251  0.00  0.00    +0.000 N 
ATOM     24  N   UNL     1      48.291   5.669  15.905  0.00  0.00    +0.000 NA
ATOM     25  C   UNL     1      48.855   5.491  17.129  0.00  0.00    +0.000 A 
ATOM     26  H   UNL     1      46.699   4.053  13.723  0.00  0.00    +0.000 HD
BRANCH  19  28
ATOM     27  N   UNL     1      48.550   3.786  20.299  0.00  0.00    +0.000 N 
ATOM     28  C   UNL     1      49.268   4.316  19.262  0.00  0.00    +0.000 C 
ATOM     29  O   UNL     1      50.432   4.663  19.408  0.00  0.00    +0.000 OA
ATOM     30  H   UNL     1      49.052   3.636  21.166  0.00  0.00    +0.000 HD
ATOM     31  H   UNL     1      47.691   3.273  20.165  0.00  0.00    +0.000 HD
ENDBRANCH  19  28
ENDBRANCH  18  23
ENDBRANCH   1  18
TORSDOF 7
ENDMDL
MODEL 3
REMARK VINA RESULT:    -8.370      2.323      8.555
REMARK INTER + INTRA:         -12.324
REMARK INTER:                 -11.646
REMARK INTRA:                  -0.678
REMARK UNBOUND:                -0.774
REMARK  Name = 
REMARK  7 active torsions:
REMARK  status: ('A' for Active; 'I' for Inactive)
REMARK    1  A    between atoms: C_2  and  C_4
REMARK    2  A    between atoms: N_8  and  C_9
REMARK    3  A    between atoms: C_9  and  C_10
REMARK    4  A    between atoms: C_10  and  C_13
REMARK    5  A    between atoms: C_17  and  C_18
REMARK    6  A    between atoms: C_19  and  C_20
REMARK    7  A    between atoms: C_22  and  O_23
REMARK                            x       y       z     vdW  Elec       q    Type
REMARK                         _______ _______ _______ _____ _____    ______ ____
ROOT
ATOM      1  C   UNL     1      46.560   6.905  12.381  0.00  0.00    +0.000 C 
ATOM      2  F   UNL     1      46.087   7.859  13.246  0.00  0.00    +0.000 F 
ATOM      3  F   UNL     1      47.299   7.605  11.466  0.00  0.00    +0.000 F 
ENDROOT
BRANCH   1   4
ATOM      4  C   UNL     1      45.411   6.179  11.695  0.00  0.00    +0.000 A 
ATOM      5  C   UNL     1      44.102   6.170  12.193  0.00  0.00    +0.000 A 
ATOM      6  C   UNL     1      43.135   5.445  11.521  0.00  0.00    +0.000 A 
ATOM      7  N   UNL     1      43.372   4.746  10.398  0.00  0.00    +0.000 NA
ATOM      8  C   UNL     1      44.630   4.755   9.901  0.00  0.00    +0.000 A 
ATOM      9  C   UNL     1      45.665   5.458  10.514  0.00  0.00    +0.000 A 
BRANCH   8  10
ATOM     10  C   UNL     1      44.852   3.980   8.669  0.00  0.00    +0.000 C 
ATOM     11  C   UNL     1      45.727   2.963   8.590  0.00  0.00    +0.000 C 
BRANCH  11  12
ATOM     12  C   UNL     1      45.884   2.202   7.323  0.00  0.00    +0.000 C 
ATOM     13  C   UNL     1      46.588   2.960   6.169  0.00  0.00    +0.000 C 
ATOM     14  C   UNL     1      47.904   2.240   6.531  0.00  0.00    +0.000 C 
ATOM     15  C   UNL     1      47.066   1.203   7.307  0.00  0.00    +0.000 C 
BRANCH  14  16
ATOM     16  O   UNL     1      48.683   1.735   5.432  0.00  0.00    +0.000 OA
ATOM     17  H   UNL     1      48.711   0.771   5.551  0.00  0.00    +0.000 HD
ENDBRANCH  14  16
ENDBRANCH  11  12
ENDBRANCH   8  10
ENDBRANCH   1   4
BRANCH   1  18
ATOM     18  C   UNL     1      47.517   5.985  13.188  0.00  0.00    +0.000 C 
BRANCH  18  23
ATOM     19  C   UNL     1      48.615   4.998  17.941  0.00  0.00    +0.000 A 
ATOM     20  C   UNL     1      49.222   6.226  17.696  0.00  0.00    +0.000 A 
ATOM     21  C   UNL     1      49.124   6.792  16.424  0.00  0.00    +0.000 A 
ATOM     22  C   UNL     1      48.411   6.134  15.422  0.00  0.00    +0.000 A 
ATOM     23  N   UNL     1      48.383   6.707  14.141  0.00  0.00    +0.000 N 
ATOM     24  N   UNL     1      47.836   4.932  15.647  0.00  0.00    +0.000 NA
ATOM     25  C   UNL     1      47.955   4.386  16.886  0.00  0.00    +0.000 A 
ATOM     26  H   UNL     1      48.170   7.700  14.185  0.00  0.00    +0.000 HD
BRANCH  19  28
ATOM     27  N   UNL     1      48.296   2.999  19.279  0.00  0.00    +0.000 N 
ATOM     28  C   UNL     1      48.676   4.312  19.247  0.00  0.00    +0.000 C 
ATOM     29  O   UNL     1      49.081   4.880  20.253  0.00  0.00    +0.000 OA
ATOM     30  H   UNL     1      48.433   2.510  20.155  0.00  0.00    +0.000 HD
ATOM     31  H   UNL     1      48.193   2.438  18.445  0.00  0.00    +0.000 HD
ENDBRANCH  19  28
ENDBRANCH  18  23
ENDBRANCH   1  18
TORSDOF 7
ENDMDL
MODEL 4
REMARK VINA RESULT:    -8.353      2.907      4.466
REMARK INTER + INTRA:         -12.302
REMARK INTER:                 -11.458
REMARK INTRA:                  -0.844
REMARK UNBOUND:                -0.774
REMARK  Name = 
REMARK  7 active torsions:
REMARK  status: ('A' for Active; 'I' for Inactive)
REMARK    1  A    between atoms: C_2  and  C_4
REMARK    2  A    between atoms: N_8  and  C_9
REMARK    3  A    between atoms: C_9  and  C_10
REMARK    4  A    between atoms: C_10  and  C_13
REMARK    5  A    between atoms: C_17  and  C_18
REMARK    6  A    between atoms: C_19  and  C_20
REMARK    7  A    between atoms: C_22  and  O_23
REMARK                            x       y       z     vdW  Elec       q    Type
REMARK                         _______ _______ _______ _____ _____    ______ ____
ROOT
ATOM      1  C   UNL     1      43.857   5.853  11.913  0.00  0.00    +0.000 C 
ATOM      2  F   UNL     1      43.743   7.205  11.709  0.00  0.00    +0.000 F 
ATOM      3  F   UNL     1      42.853   5.551  12.793  0.00  0.00    +0.000 F 
ENDROOT
BRANCH   1   4
ATOM      4  C   UNL     1      45.214   5.507  12.510  0.00  0.00    +0.000 A 
ATOM      5  C   UNL     1      45.420   4.421  13.369  0.00  0.00    +0.000 A 
ATOM      6  C   UNL     1      46.682   4.213  13.896  0.00  0.00    +0.000 A 
ATOM      7  N   UNL     1      47.742   4.994  13.623  0.00  0.00    +0.000 NA
ATOM      8  C   UNL     1      47.558   6.040  12.786  0.00  0.00    +0.000 A 
ATOM      9  C   UNL     1      46.321   6.322  12.212  0.00  0.00    +0.000 A 
BRANCH   8  10
ATOM     10  C   UNL     1      48.741   6.871  12.509  0.00  0.00    +0.000 C 
ATOM     11  C   UNL     1      48.752   7.846  11.583  0.00  0.00    +0.000 C 
BRANCH  11  12
ATOM     12  C   UNL     1      49.971   8.669  11.370  0.00  0.00    +0.000 C 
ATOM     13  C   UNL     1      49.751  10.203  11.359  0.00  0.00    +0.000 C 
ATOM     14  C   UNL     1      50.215  10.255  12.830  0.00  0.00    +0.000 C 
ATOM     15  C   UNL     1      50.851   8.864  12.628  0.00  0.00    +0.000 C 
BRANCH  14  16
ATOM     16  O   UNL     1      51.115  11.321  13.182  0.00  0.00    +0.000 OA
ATOM     17  H   UNL     1      51.897  10.889  13.564  0.00  0.00    +0.000 HD
ENDBRANCH  14  16
ENDBRANCH  11  12
ENDBRANCH   8  10
ENDBRANCH   1   4
BRANCH   1  18
ATOM     18  C   UNL     1      43.550   5.157  10.558  0.00  0.00    +0.000 C 
BRANCH  18  23
ATOM     19  C   UNL     1      46.550   2.685   7.450  0.00  0.00    +0.000 A 
ATOM     20  C   UNL     1      45.998   1.693   8.255  0.00  0.00    +0.000 A 
ATOM     21  C   UNL     1      45.109   2.056   9.269  0.00  0.00    +0.000 A 
ATOM     22  C   UNL     1      44.773   3.398   9.453  0.00  0.00    +0.000 A 
ATOM     23  N   UNL     1      43.921   3.728  10.518  0.00  0.00    +0.000 N 
ATOM     24  N   UNL     1      45.321   4.367   8.688  0.00  0.00    +0.000 NA
ATOM     25  C   UNL     1      46.197   3.999   7.717  0.00  0.00    +0.000 A 
ATOM     26  H   UNL     1      43.111   3.114  10.548  0.00  0.00    +0.000 HD
BRANCH  19  28
ATOM     27  N   UNL     1      47.346   3.094   5.195  0.00  0.00    +0.000 N 
ATOM     28  C   UNL     1      47.510   2.403   6.364  0.00  0.00    +0.000 C 
ATOM     29  O   UNL     1      48.433   1.614   6.511  0.00  0.00    +0.000 OA
ATOM     30  H   UNL     1      48.064   2.968   4.491  0.00  0.00    +0.000 HD
ATOM     31  H   UNL     1      46.761   3.914   5.119  0.00  0.00    +0.000 HD
ENDBRANCH  19  28
ENDBRANCH  18  23
ENDBRANCH   1  18
TORSDOF 7
ENDMDL
MODEL 5
REMARK VINA RESULT:    -8.337      3.756      7.571
REMARK INTER + INTRA:         -12.280
REMARK INTER:                 -11.635
REMARK INTRA:                  -0.645
REMARK UNBOUND:                -0.774
REMARK  Name = 
REMARK  7 active torsions:
REMARK  status: ('A' for Active; 'I' for Inactive)
REMARK    1  A    between atoms: C_2  and  C_4
REMARK    2  A    between atoms: N_8  and  C_9
REMARK    3  A    between atoms: C_9  and  C_10
REMARK    4  A    between atoms: C_10  and  C_13
REMARK    5  A    between atoms: C_17  and  C_18
REMARK    6  A    between atoms: C_19  and  C_20
REMARK    7  A    between atoms: C_22  and  O_23
REMARK                            x       y       z     vdW  Elec       q    Type
REMARK                         _______ _______ _______ _____ _____    ______ ____
ROOT
ATOM      1  C   UNL     1      46.508   4.382  13.754  0.00  0.00    +0.000 C 
ATOM      2  F   UNL     1      47.287   3.267  13.939  0.00  0.00    +0.000 F 
ATOM      3  F   UNL     1      46.092   4.725  15.012  0.00  0.00    +0.000 F 
ENDROOT
BRANCH   1   4
ATOM      4  C   UNL     1      45.314   4.066  12.864  0.00  0.00    +0.000 A 
ATOM      5  C   UNL     1      43.988   4.305  13.244  0.00  0.00    +0.000 A 
ATOM      6  C   UNL     1      42.968   3.945  12.382  0.00  0.00    +0.000 A 
ATOM      7  N   UNL     1      43.172   3.379  11.180  0.00  0.00    +0.000 NA
ATOM      8  C   UNL     1      44.449   3.152  10.796  0.00  0.00    +0.000 A 
ATOM      9  C   UNL     1      45.536   3.484  11.602  0.00  0.00    +0.000 A 
BRANCH   8  10
ATOM     10  C   UNL     1      44.634   2.534   9.474  0.00  0.00    +0.000 C 
ATOM     11  C   UNL     1      45.761   2.668   8.752  0.00  0.00    +0.000 C 
BRANCH  11  12
ATOM     12  C   UNL     1      45.896   1.995   7.435  0.00  0.00    +0.000 C 
ATOM     13  C   UNL     1      46.567   2.834   6.318  0.00  0.00    +0.000 C 
ATOM     14  C   UNL     1      47.896   2.104   6.602  0.00  0.00    +0.000 C 
ATOM     15  C   UNL     1      47.084   1.010   7.326  0.00  0.00    +0.000 C 
BRANCH  14  16
ATOM     16  O   UNL     1      48.654   1.681   5.455  0.00  0.00    +0.000 OA
ATOM     17  H   UNL     1      48.063   1.800   4.692  0.00  0.00    +0.000 HD
ENDBRANCH  14  16
ENDBRANCH  11  12
ENDBRANCH   8  10
ENDBRANCH   1   4
BRANCH   1  18
ATOM     18  C   UNL     1      47.436   5.507  13.218  0.00  0.00    +0.000 C 
BRANCH  18  23
ATOM     19  C   UNL     1      44.457   9.040  11.369  0.00  0.00    +0.000 A 
ATOM     20  C   UNL     1      45.055   9.639  12.473  0.00  0.00    +0.000 A 
ATOM     21  C   UNL     1      45.952   8.899  13.246  0.00  0.00    +0.000 A 
ATOM     22  C   UNL     1      46.248   7.580  12.899  0.00  0.00    +0.000 A 
ATOM     23  N   UNL     1      47.109   6.852  13.733  0.00  0.00    +0.000 N 
ATOM     24  N   UNL     1      45.655   6.987  11.840  0.00  0.00    +0.000 NA
ATOM     25  C   UNL     1      44.772   7.715  11.108  0.00  0.00    +0.000 A 
ATOM     26  H   UNL     1      47.939   7.390  13.969  0.00  0.00    +0.000 HD
BRANCH  19  28
ATOM     27  N   UNL     1      42.173   9.700  10.882  0.00  0.00    +0.000 N 
ATOM     28  C   UNL     1      43.486   9.734  10.500  0.00  0.00    +0.000 C 
ATOM     29  O   UNL     1      43.840  10.345   9.501  0.00  0.00    +0.000 OA
ATOM     30  H   UNL     1      41.529  10.259  10.335  0.00  0.00    +0.000 HD
ATOM     31  H   UNL     1      41.878   9.423  11.807  0.00  0.00    +0.000 HD
ENDBRANCH  19  28
ENDBRANCH  18  23
ENDBRANCH   1  18
TORSDOF 7
ENDMDL
MODEL 6
REMARK VINA RESULT:    -8.304      1.692      2.085
REMARK INTER + INTRA:         -12.233
REMARK INTER:                 -11.373
REMARK INTRA:                  -0.861
REMARK UNBOUND:                -0.774
REMARK  Name = 
REMARK  7 active torsions:
REMARK  status: ('A' for Active; 'I' for Inactive)
REMARK    1  A    between atoms: C_2  and  C_4
REMARK    2  A    between atoms: N_8  and  C_9
REMARK    3  A    between atoms: C_9  and  C_10
REMARK    4  A    between atoms: C_10  and  C_13
REMARK    5  A    between atoms: C_17  and  C_18
REMARK    6  A    between atoms: C_19  and  C_20
REMARK    7  A    between atoms: C_22  and  O_23
REMARK                            x       y       z     vdW  Elec       q    Type
REMARK                         _______ _______ _______ _____ _____    ______ ____
ROOT
ATOM      1  C   UNL     1      43.556   5.260  11.938  0.00  0.00    +0.000 C 
ATOM      2  F   UNL     1      42.782   6.392  11.962  0.00  0.00    +0.000 F 
ATOM      3  F   UNL     1      42.970   4.422  12.848  0.00  0.00    +0.000 F 
ENDROOT
BRANCH   1   4
ATOM      4  C   UNL     1      44.989   5.575  12.347  0.00  0.00    +0.000 A 
ATOM      5  C   UNL     1      45.850   6.365  11.577  0.00  0.00    +0.000 A 
ATOM      6  C   UNL     1      47.149   6.559  12.011  0.00  0.00    +0.000 A 
ATOM      7  N   UNL     1      47.641   6.038  13.148  0.00  0.00    +0.000 NA
ATOM      8  C   UNL     1      46.816   5.281  13.906  0.00  0.00    +0.000 A 
ATOM      9  C   UNL     1      45.493   5.034  13.544  0.00  0.00    +0.000 A 
BRANCH   8  10
ATOM     10  C   UNL     1      47.387   4.729  15.145  0.00  0.00    +0.000 C 
ATOM     11  C   UNL     1      48.269   5.398  15.908  0.00  0.00    +0.000 C 
BRANCH  11  12
ATOM     12  C   UNL     1      48.788   4.795  17.163  0.00  0.00    +0.000 C 
ATOM     13  C   UNL     1      49.014   5.781  18.337  0.00  0.00    +0.000 C 
ATOM     14  C   UNL     1      47.656   5.350  18.928  0.00  0.00    +0.000 C 
ATOM     15  C   UNL     1      47.721   4.093  18.037  0.00  0.00    +0.000 C 
BRANCH  14  16
ATOM     16  O   UNL     1      47.616   5.123  20.348  0.00  0.00    +0.000 OA
ATOM     17  H   UNL     1      47.979   5.929  20.753  0.00  0.00    +0.000 HD
ENDBRANCH  14  16
ENDBRANCH  11  12
ENDBRANCH   8  10
ENDBRANCH   1   4
BRANCH   1  18
ATOM     18  C   UNL     1      43.409   4.632  10.524  0.00  0.00    +0.000 C 
BRANCH  18  23
ATOM     19  C   UNL     1      46.578   2.483   7.345  0.00  0.00    +0.000 A 
ATOM     20  C   UNL     1      46.094   1.428   8.112  0.00  0.00    +0.000 A 
ATOM     21  C   UNL     1      45.179   1.693   9.133  0.00  0.00    +0.000 A 
ATOM     22  C   UNL     1      44.752   3.001   9.363  0.00  0.00    +0.000 A 
ATOM     23  N   UNL     1      43.878   3.234  10.436  0.00  0.00    +0.000 N 
ATOM     24  N   UNL     1      45.234   4.032   8.636  0.00  0.00    +0.000 NA
ATOM     25  C   UNL     1      46.136   3.759   7.656  0.00  0.00    +0.000 A 
ATOM     26  H   UNL     1      43.112   2.566  10.440  0.00  0.00    +0.000 HD
BRANCH  19  28
ATOM     27  N   UNL     1      47.535   3.227   5.242  0.00  0.00    +0.000 N 
ATOM     28  C   UNL     1      47.557   2.306   6.253  0.00  0.00    +0.000 C 
ATOM     29  O   UNL     1      48.377   1.398   6.266  0.00  0.00    +0.000 OA
ATOM     30  H   UNL     1      48.271   3.156   4.550  0.00  0.00    +0.000 HD
ATOM     31  H   UNL     1      47.050   4.110   5.316  0.00  0.00    +0.000 HD
ENDBRANCH  19  28
ENDBRANCH  18  23
ENDBRANCH   1  18
TORSDOF 7
ENDMDL
MODEL 7
REMARK VINA RESULT:    -8.243      2.361      8.333
REMARK INTER + INTRA:         -12.150
REMARK INTER:                 -11.492
REMARK INTRA:                  -0.659
REMARK UNBOUND:                -0.774
REMARK  Name = 
REMARK  7 active torsions:
REMARK  status: ('A' for Active; 'I' for Inactive)
REMARK    1  A    between atoms: C_2  and  C_4
REMARK    2  A    between atoms: N_8  and  C_9
REMARK    3  A    between atoms: C_9  and  C_10
REMARK    4  A    between atoms: C_10  and  C_13
REMARK    5  A    between atoms: C_17  and  C_18
REMARK    6  A    between atoms: C_19  and  C_20
REMARK    7  A    between atoms: C_22  and  O_23
REMARK                            x       y       z     vdW  Elec       q    Type
REMARK                         _______ _______ _______ _____ _____    ______ ____
ROOT
ATOM      1  C   UNL     1      46.406   5.370  13.488  0.00  0.00    +0.000 C 
ATOM      2  F   UNL     1      46.402   6.730  13.664  0.00  0.00    +0.000 F 
ATOM      3  F   UNL     1      47.576   5.111  12.827  0.00  0.00    +0.000 F 
ENDROOT
BRANCH   1   4
ATOM      4  C   UNL     1      45.212   4.928  12.653  0.00  0.00    +0.000 A 
ATOM      5  C   UNL     1      43.884   5.120  13.051  0.00  0.00    +0.000 A 
ATOM      6  C   UNL     1      42.866   4.644  12.244  0.00  0.00    +0.000 A 
ATOM      7  N   UNL     1      43.075   4.009  11.078  0.00  0.00    +0.000 NA
ATOM      8  C   UNL     1      44.353   3.826  10.676  0.00  0.00    +0.000 A 
ATOM      9  C   UNL     1      45.438   4.273  11.429  0.00  0.00    +0.000 A 
BRANCH   8  10
ATOM     10  C   UNL     1      44.544   3.129   9.394  0.00  0.00    +0.000 C 
ATOM     11  C   UNL     1      45.691   3.179   8.695  0.00  0.00    +0.000 C 
BRANCH  11  12
ATOM     12  C   UNL     1      45.828   2.429   7.419  0.00  0.00    +0.000 C 
ATOM     13  C   UNL     1      46.646   3.137   6.310  0.00  0.00    +0.000 C 
ATOM     14  C   UNL     1      47.872   2.290   6.708  0.00  0.00    +0.000 C 
ATOM     15  C   UNL     1      46.910   1.323   7.429  0.00  0.00    +0.000 C 
BRANCH  14  16
ATOM     16  O   UNL     1      48.645   1.733   5.629  0.00  0.00    +0.000 OA
ATOM     17  H   UNL     1      48.020   1.207   5.104  0.00  0.00    +0.000 HD
ENDBRANCH  14  16
ENDBRANCH  11  12
ENDBRANCH   8  10
ENDBRANCH   1   4
BRANCH   1  18
ATOM     18  C   UNL     1      46.484   4.724  14.899  0.00  0.00    +0.000 C 
BRANCH  18  23
ATOM     19  C   UNL     1      50.319   2.759  17.389  0.00  0.00    +0.000 A 
ATOM     20  C   UNL     1      50.274   4.083  17.817  0.00  0.00    +0.000 A 
ATOM     21  C   UNL     1      49.306   4.937  17.286  0.00  0.00    +0.000 A 
ATOM     22  C   UNL     1      48.390   4.455  16.350  0.00  0.00    +0.000 A 
ATOM     23  N   UNL     1      47.470   5.358  15.797  0.00  0.00    +0.000 N 
ATOM     24  N   UNL     1      48.442   3.177  15.915  0.00  0.00    +0.000 NA
ATOM     25  C   UNL     1      49.401   2.363  16.430  0.00  0.00    +0.000 A 
ATOM     26  H   UNL     1      47.031   5.926  16.517  0.00  0.00    +0.000 HD
BRANCH  19  28
ATOM     27  N   UNL     1      52.375   2.280  18.588  0.00  0.00    +0.000 N 
ATOM     28  C   UNL     1      51.314   1.785  17.881  0.00  0.00    +0.000 C 
ATOM     29  O   UNL     1      51.180   0.582  17.697  0.00  0.00    +0.000 OA
ATOM     30  H   UNL     1      52.998   1.599  19.004  0.00  0.00    +0.000 HD
ATOM     31  H   UNL     1      52.393   3.217  18.964  0.00  0.00    +0.000 HD
ENDBRANCH  19  28
ENDBRANCH  18  23
ENDBRANCH   1  18
TORSDOF 7
ENDMDL
MODEL 8
REMARK VINA RESULT:    -7.969      3.610      4.514
REMARK INTER + INTRA:         -11.771
REMARK INTER:                 -11.003
REMARK INTRA:                  -0.768
REMARK UNBOUND:                -0.774
REMARK  Name = 
REMARK  7 active torsions:
REMARK  status: ('A' for Active; 'I' for Inactive)
REMARK    1  A    between atoms: C_2  and  C_4
REMARK    2  A    between atoms: N_8  and  C_9
REMARK    3  A    between atoms: C_9  and  C_10
REMARK    4  A    between atoms: C_10  and  C_13
REMARK    5  A    between atoms: C_17  and  C_18
REMARK    6  A    between atoms: C_19  and  C_20
REMARK    7  A    between atoms: C_22  and  O_23
REMARK                            x       y       z     vdW  Elec       q    Type
REMARK                         _______ _______ _______ _____ _____    ______ ____
ROOT
ATOM      1  C   UNL     1      44.335   4.497  12.389  0.00  0.00    +0.000 C 
ATOM      2  F   UNL     1      43.472   4.447  13.454  0.00  0.00    +0.000 F 
ATOM      3  F   UNL     1      45.194   3.451  12.593  0.00  0.00    +0.000 F 
ENDROOT
BRANCH   1   4
ATOM      4  C   UNL     1      45.095   5.816  12.369  0.00  0.00    +0.000 A 
ATOM      5  C   UNL     1      44.467   7.062  12.253  0.00  0.00    +0.000 A 
ATOM      6  C   UNL     1      45.247   8.203  12.201  0.00  0.00    +0.000 A 
ATOM      7  N   UNL     1      46.589   8.193  12.264  0.00  0.00    +0.000 NA
ATOM      8  C   UNL     1      47.208   6.997  12.386  0.00  0.00    +0.000 A 
ATOM      9  C   UNL     1      46.500   5.798  12.447  0.00  0.00    +0.000 A 
BRANCH   8  10
ATOM     10  C   UNL     1      48.678   7.024  12.456  0.00  0.00    +0.000 C 
ATOM     11  C   UNL     1      49.437   7.767  11.632  0.00  0.00    +0.000 C 
BRANCH  11  12
ATOM     12  C   UNL     1      50.917   7.772  11.773  0.00  0.00    +0.000 C 
ATOM     13  C   UNL     1      51.715   7.557  10.462  0.00  0.00    +0.000 C 
ATOM     14  C   UNL     1      51.919   9.083  10.365  0.00  0.00    +0.000 C 
ATOM     15  C   UNL     1      51.557   9.178  11.862  0.00  0.00    +0.000 C 
BRANCH  14  16
ATOM     16  O   UNL     1      53.237   9.533  10.000  0.00  0.00    +0.000 OA
ATOM     17  H   UNL     1      53.559  10.044  10.760  0.00  0.00    +0.000 HD
ENDBRANCH  14  16
ENDBRANCH  11  12
ENDBRANCH   8  10
ENDBRANCH   1   4
BRANCH   1  18
ATOM     18  C   UNL     1      43.503   4.209  11.109  0.00  0.00    +0.000 C 
BRANCH  18  23
ATOM     19  C   UNL     1      46.501   2.270   7.641  0.00  0.00    +0.000 A 
ATOM     20  C   UNL     1      46.374   3.606   7.276  0.00  0.00    +0.000 A 
ATOM     21  C   UNL     1      45.566   4.448   8.044  0.00  0.00    +0.000 A 
ATOM     22  C   UNL     1      44.911   3.947   9.169  0.00  0.00    +0.000 A 
ATOM     23  N   UNL     1      44.063   4.809   9.881  0.00  0.00    +0.000 N 
ATOM     24  N   UNL     1      45.013   2.646   9.517  0.00  0.00    +0.000 NA
ATOM     25  C   UNL     1      45.790   1.837   8.750  0.00  0.00    +0.000 A 
ATOM     26  H   UNL     1      44.509   5.706  10.054  0.00  0.00    +0.000 HD
BRANCH  19  28
ATOM     27  N   UNL     1      48.343   1.803   6.132  0.00  0.00    +0.000 N 
ATOM     28  C   UNL     1      47.319   1.300   6.886  0.00  0.00    +0.000 C 
ATOM     29  O   UNL     1      47.117   0.095   6.957  0.00  0.00    +0.000 OA
ATOM     30  H   UNL     1      48.959   1.127   5.696  0.00  0.00    +0.000 HD
ATOM     31  H   UNL     1      48.690   2.746   6.238  0.00  0.00    +0.000 HD
ENDBRANCH  19  28
ENDBRANCH  18  23
ENDBRANCH   1  18
TORSDOF 7
ENDMDL
MODEL 9
REMARK VINA RESULT:    -7.946      2.230      2.719
REMARK INTER + INTRA:         -11.740
REMARK INTER:                 -11.343
REMARK INTRA:                  -0.397
REMARK UNBOUND:                -0.774
REMARK  Name = 
REMARK  7 active torsions:
REMARK  status: ('A' for Active; 'I' for Inactive)
REMARK    1  A    between atoms: C_2  and  C_4
REMARK    2  A    between atoms: N_8  and  C_9
REMARK    3  A    between atoms: C_9  and  C_10
REMARK    4  A    between atoms: C_10  and  C_13
REMARK    5  A    between atoms: C_17  and  C_18
REMARK    6  A    between atoms: C_19  and  C_20
REMARK    7  A    between atoms: C_22  and  O_23
REMARK                            x       y       z     vdW  Elec       q    Type
REMARK                         _______ _______ _______ _____ _____    ______ ____
ROOT
ATOM      1  C   UNL     1      43.703   4.663  12.415  0.00  0.00    +0.000 C 
ATOM      2  F   UNL     1      42.651   4.873  13.272  0.00  0.00    +0.000 F 
ATOM      3  F   UNL     1      44.279   3.502  12.856  0.00  0.00    +0.000 F 
ENDROOT
BRANCH   1   4
ATOM      4  C   UNL     1      44.697   5.814  12.486  0.00  0.00    +0.000 A 
ATOM      5  C   UNL     1      44.504   7.036  11.832  0.00  0.00    +0.000 A 
ATOM      6  C   UNL     1      45.486   8.006  11.921  0.00  0.00    +0.000 A 
ATOM      7  N   UNL     1      46.627   7.851  12.615  0.00  0.00    +0.000 NA
ATOM      8  C   UNL     1      46.821   6.679  13.260  0.00  0.00    +0.000 A 
ATOM      9  C   UNL     1      45.884   5.648  13.223  0.00  0.00    +0.000 A 
BRANCH   8  10
ATOM     10  C   UNL     1      48.079   6.545  14.011  0.00  0.00    +0.000 C 
ATOM     11  C   UNL     1      48.936   7.565  14.195  0.00  0.00    +0.000 C 
BRANCH  11  12
ATOM     12  C   UNL     1      50.177   7.372  14.988  0.00  0.00    +0.000 C 
ATOM     13  C   UNL     1      50.541   8.526  15.956  0.00  0.00    +0.000 C 
ATOM     14  C   UNL     1      49.915   7.721  17.113  0.00  0.00    +0.000 C 
ATOM     15  C   UNL     1      50.021   6.461  16.229  0.00  0.00    +0.000 C 
BRANCH  14  16
ATOM     16  O   UNL     1      50.651   7.695  18.349  0.00  0.00    +0.000 OA
ATOM     17  H   UNL     1      51.590   7.696  18.096  0.00  0.00    +0.000 HD
ENDBRANCH  14  16
ENDBRANCH  11  12
ENDBRANCH   8  10
ENDBRANCH   1   4
BRANCH   1  18
ATOM     18  C   UNL     1      43.103   4.411  11.004  0.00  0.00    +0.000 C 
BRANCH  18  23
ATOM     19  C   UNL     1      46.277   2.080   7.960  0.00  0.00    +0.000 A 
ATOM     20  C   UNL     1      46.410   3.425   7.630  0.00  0.00    +0.000 A 
ATOM     21  C   UNL     1      45.628   4.370   8.297  0.00  0.00    +0.000 A 
ATOM     22  C   UNL     1      44.739   3.962   9.291  0.00  0.00    +0.000 A 
ATOM     23  N   UNL     1      43.930   4.934   9.898  0.00  0.00    +0.000 N 
ATOM     24  N   UNL     1      44.590   2.656   9.602  0.00  0.00    +0.000 NA
ATOM     25  C   UNL     1      45.346   1.747   8.932  0.00  0.00    +0.000 A 
ATOM     26  H   UNL     1      44.473   5.750  10.170  0.00  0.00    +0.000 HD
BRANCH  19  28
ATOM     27  N   UNL     1      46.755  -0.280   7.663  0.00  0.00    +0.000 N 
ATOM     28  C   UNL     1      47.047   1.006   7.302  0.00  0.00    +0.000 C 
ATOM     29  O   UNL     1      47.886   1.249   6.445  0.00  0.00    +0.000 OA
ATOM     30  H   UNL     1      47.217  -1.013   7.138  0.00  0.00    +0.000 HD
ATOM     31  H   UNL     1      45.919  -0.530   8.172  0.00  0.00    +0.000 HD
ENDBRANCH  19  28
ENDBRANCH  18  23
ENDBRANCH   1  18
TORSDOF 7
ENDMDL
