MODEL 1
REMARK VINA RESULT:    -9.218      0.000      0.000
REMARK INTER + INTRA:         -14.009
REMARK INTER:                 -12.991
REMARK INTRA:                  -1.018
REMARK UNBOUND:                -1.018
REMARK  Name = 
REMARK  9 active torsions:
REMARK  status: ('A' for Active; 'I' for Inactive)
REMARK    1  A    between atoms: C_1  and  C_2
REMARK    2  A    between atoms: C_2  and  C_3
REMARK    3  A    between atoms: C_6  and  O_7
REMARK    4  A    between atoms: O_7  and  C_8
REMARK    5  A    between atoms: C_10  and  C_11
REMARK    6  A    between atoms: C_11  and  C_14
REMARK    7  A    between atoms: C_14  and  N_15
REMARK    8  A    between atoms: C_19  and  C_20
REMARK    9  A    between atoms: C_27  and  C_28
REMARK                            x       y       z     vdW  Elec       q    Type
REMARK                         _______ _______ _______ _____ _____    ______ ____
ROOT
ATOM      1  C   UNL     1      46.910   5.306  13.864  0.00  0.00    +0.000 A 
ATOM      2  C   UNL     1      45.714   4.646  13.523  0.00  0.00    +0.000 A 
ATOM      3  C   UNL     1      44.661   5.314  12.864  0.00  0.00    +0.000 A 
ATOM      4  C   UNL     1      44.842   6.654  12.508  0.00  0.00    +0.000 A 
ATOM      5  C   UNL     1      46.056   7.294  12.775  0.00  0.00    +0.000 A 
ATOM      6  C   UNL     1      47.110   6.626  13.439  0.00  0.00    +0.000 A 
ENDROOT
BRANCH   6   7
ATOM      7  C   UNL     1      48.405   7.380  13.635  0.00  0.00    +0.000 C 
ATOM      8  F   UNL     1      49.547   6.682  13.394  0.00  0.00    +0.000 F 
ATOM      9  F   UNL     1      48.474   8.477  12.823  0.00  0.00    +0.000 F 
ATOM     10  F   UNL     1      48.528   7.865  14.904  0.00  0.00    +0.000 F 
ENDBRANCH   6   7
BRANCH   3  11
ATOM     11  C   UNL     1      43.333   4.612  12.589  0.00  0.00    +0.000 C 
ATOM     12  F   UNL     1      43.064   3.644  13.514  0.00  0.00    +0.000 F 
ATOM     13  F   UNL     1      42.276   5.481  12.659  0.00  0.00    +0.000 F 
BRANCH  11  14
ATOM     14  C   UNL     1      43.337   3.977  11.173  0.00  0.00    +0.000 C 
BRANCH  14  15
ATOM     15  N   UNL     1      44.017   4.782  10.122  0.00  0.00    +0.000 N 
ATOM     16  C   UNL     1      44.852   4.004   9.298  0.00  0.00    +0.000 A 
ATOM     17  C   UNL     1      45.574   4.580   8.240  0.00  0.00    +0.000 A 
ATOM     18  N   UNL     1      46.392   3.885   7.394  0.00  0.00    +0.000 NA
ATOM     19  C   UNL     1      46.445   2.549   7.641  0.00  0.00    +0.000 A 
ATOM     20  C   UNL     1      45.726   1.961   8.666  0.00  0.00    +0.000 A 
ATOM     21  N   UNL     1      44.923   2.671   9.501  0.00  0.00    +0.000 NA
ATOM     22  H   UNL     1      44.535   5.569  10.516  0.00  0.00    +0.000 HD
BRANCH  19  23
ATOM     23  C   UNL     1      47.323   1.692   6.791  0.00  0.00    +0.000 C 
ATOM     24  N   UNL     1      48.324   2.320   6.111  0.00  0.00    +0.000 N 
ATOM     25  O   UNL     1      47.152   0.479   6.701  0.00  0.00    +0.000 OA
ATOM     26  H   UNL     1      48.454   3.326   6.205  0.00  0.00    +0.000 HD
ATOM     27  H   UNL     1      48.950   1.776   5.536  0.00  0.00    +0.000 HD
ENDBRANCH  19  23
ENDBRANCH  14  15
ENDBRANCH  11  14
ENDBRANCH   3  11
BRANCH   1  28
ATOM     28  O   UNL     1      47.909   4.708  14.612  0.00  0.00    +0.000 OA
BRANCH  28  34
ATOM     29  C   UNL     1      47.044   2.856  17.712  0.00  0.00    +0.000 C 
ATOM     30  C   UNL     1      48.188   3.427  16.873  0.00  0.00    +0.000 C 
ATOM     31  C   UNL     1      49.020   2.311  16.257  0.00  0.00    +0.000 C 
ATOM     32  O   UNL     1      49.044   4.239  17.730  0.00  0.00    +0.000 OA
ATOM     33  C   UNL     1      48.860   5.392  16.883  0.00  0.00    +0.000 C 
ATOM     34  C   UNL     1      47.769   4.695  16.057  0.00  0.00    +0.000 C 
ENDBRANCH  28  34
ENDBRANCH   1  28
TORSDOF 7
ENDMDL
MODEL 2
REMARK VINA RESULT:    -8.247      2.220      4.183
REMARK INTER + INTRA:         -12.640
REMARK INTER:                 -11.663
REMARK INTRA:                  -0.977
REMARK UNBOUND:                -1.018
REMARK  Name = 
REMARK  9 active torsions:
REMARK  status: ('A' for Active; 'I' for Inactive)
REMARK    1  A    between atoms: C_1  and  C_2
REMARK    2  A    between atoms: C_2  and  C_3
REMARK    3  A    between atoms: C_6  and  O_7
REMARK    4  A    between atoms: O_7  and  C_8
REMARK    5  A    between atoms: C_10  and  C_11
REMARK    6  A    between atoms: C_11  and  C_14
REMARK    7  A    between atoms: C_14  and  N_15
REMARK    8  A    between atoms: C_19  and  C_20
REMARK    9  A    between atoms: C_27  and  C_28
REMARK                            x       y       z     vdW  Elec       q    Type
REMARK                         _______ _______ _______ _____ _____    ______ ____
ROOT
ATOM      1  C   UNL     1      46.472   7.121  12.475  0.00  0.00    +0.000 A 
ATOM      2  C   UNL     1      45.164   6.628  12.302  0.00  0.00    +0.000 A 
ATOM      3  C   UNL     1      44.746   5.414  12.884  0.00  0.00    +0.000 A 
ATOM      4  C   UNL     1      45.653   4.714  13.688  0.00  0.00    +0.000 A 
ATOM      5  C   UNL     1      46.927   5.236  13.927  0.00  0.00    +0.000 A 
ATOM      6  C   UNL     1      47.348   6.451  13.341  0.00  0.00    +0.000 A 
ENDROOT
BRANCH   6   7
ATOM      7  C   UNL     1      48.723   6.965  13.700  0.00  0.00    +0.000 C 
ATOM      8  F   UNL     1      48.791   8.262  14.102  0.00  0.00    +0.000 F 
ATOM      9  F   UNL     1      49.278   6.242  14.719  0.00  0.00    +0.000 F 
ATOM     10  F   UNL     1      49.600   6.852  12.662  0.00  0.00    +0.000 F 
ENDBRANCH   6   7
BRANCH   3  11
ATOM     11  C   UNL     1      43.358   4.844  12.606  0.00  0.00    +0.000 C 
ATOM     12  F   UNL     1      42.944   3.999  13.596  0.00  0.00    +0.000 F 
ATOM     13  F   UNL     1      42.407   5.828  12.553  0.00  0.00    +0.000 F 
BRANCH  11  14
ATOM     14  C   UNL     1      43.340   4.088  11.252  0.00  0.00    +0.000 C 
BRANCH  14  15
ATOM     15  N   UNL     1      43.967   4.816  10.114  0.00  0.00    +0.000 N 
ATOM     16  C   UNL     1      44.811   3.994   9.343  0.00  0.00    +0.000 A 
ATOM     17  C   UNL     1      45.488   4.495   8.220  0.00  0.00    +0.000 A 
ATOM     18  N   UNL     1      46.311   3.753   7.419  0.00  0.00    +0.000 NA
ATOM     19  C   UNL     1      46.417   2.447   7.785  0.00  0.00    +0.000 A 
ATOM     20  C   UNL     1      45.741   1.932   8.876  0.00  0.00    +0.000 A 
ATOM     21  N   UNL     1      44.933   2.688   9.664  0.00  0.00    +0.000 NA
ATOM     22  H   UNL     1      44.467   5.652  10.423  0.00  0.00    +0.000 HD
BRANCH  19  23
ATOM     23  C   UNL     1      47.305   1.546   6.992  0.00  0.00    +0.000 C 
ATOM     24  N   UNL     1      48.471   2.080   6.533  0.00  0.00    +0.000 N 
ATOM     25  O   UNL     1      47.000   0.379   6.760  0.00  0.00    +0.000 OA
ATOM     26  H   UNL     1      48.710   3.048   6.743  0.00  0.00    +0.000 HD
ATOM     27  H   UNL     1      49.108   1.501   6.005  0.00  0.00    +0.000 HD
ENDBRANCH  19  23
ENDBRANCH  14  15
ENDBRANCH  11  14
ENDBRANCH   3  11
BRANCH   1  28
ATOM     28  O   UNL     1      46.942   8.245  11.822  0.00  0.00    +0.000 OA
BRANCH  28  34
ATOM     29  C   UNL     1      48.053  11.509  13.202  0.00  0.00    +0.000 C 
ATOM     30  C   UNL     1      47.456  10.803  11.985  0.00  0.00    +0.000 C 
ATOM     31  C   UNL     1      48.446  10.783  10.827  0.00  0.00    +0.000 C 
ATOM     32  O   UNL     1      46.254  11.516  11.567  0.00  0.00    +0.000 OA
ATOM     33  C   UNL     1      45.457  10.321  11.699  0.00  0.00    +0.000 C 
ATOM     34  C   UNL     1      46.603   9.548  12.366  0.00  0.00    +0.000 C 
ENDBRANCH  28  34
ENDBRANCH   1  28
TORSDOF 7
ENDMDL
MODEL 3
REMARK VINA RESULT:    -8.069      2.404      4.512
REMARK INTER + INTRA:         -12.390
REMARK INTER:                 -10.965
REMARK INTRA:                  -1.425
REMARK UNBOUND:                -1.018
REMARK  Name = 
REMARK  9 active torsions:
REMARK  status: ('A' for Active; 'I' for Inactive)
REMARK    1  A    between atoms: C_1  and  C_2
REMARK    2  A    between atoms: C_2  and  C_3
REMARK    3  A    between atoms: C_6  and  O_7
REMARK    4  A    between atoms: O_7  and  C_8
REMARK    5  A    between atoms: C_10  and  C_11
REMARK    6  A    between atoms: C_11  and  C_14
REMARK    7  A    between atoms: C_14  and  N_15
REMARK    8  A    between atoms: C_19  and  C_20
REMARK    9  A    between atoms: C_27  and  C_28
REMARK                            x       y       z     vdW  Elec       q    Type
REMARK                         _______ _______ _______ _____ _____    ______ ____
ROOT
ATOM      1  C   UNL     1      45.822   7.589  12.968  0.00  0.00    +0.000 A 
ATOM      2  C   UNL     1      44.629   6.857  12.813  0.00  0.00    +0.000 A 
ATOM      3  C   UNL     1      44.622   5.447  12.800  0.00  0.00    +0.000 A 
ATOM      4  C   UNL     1      45.833   4.773  12.991  0.00  0.00    +0.000 A 
ATOM      5  C   UNL     1      47.008   5.493  13.223  0.00  0.00    +0.000 A 
ATOM      6  C   UNL     1      47.017   6.906  13.232  0.00  0.00    +0.000 A 
ENDROOT
BRANCH   6   7
ATOM      7  C   UNL     1      48.323   7.598  13.545  0.00  0.00    +0.000 C 
ATOM      8  F   UNL     1      48.295   8.501  14.561  0.00  0.00    +0.000 F 
ATOM      9  F   UNL     1      49.296   6.701  13.887  0.00  0.00    +0.000 F 
ATOM     10  F   UNL     1      48.819   8.270  12.466  0.00  0.00    +0.000 F 
ENDBRANCH   6   7
BRANCH   3  11
ATOM     11  C   UNL     1      43.336   4.668  12.532  0.00  0.00    +0.000 C 
ATOM     12  F   UNL     1      43.135   3.681  13.454  0.00  0.00    +0.000 F 
ATOM     13  F   UNL     1      42.230   5.471  12.618  0.00  0.00    +0.000 F 
BRANCH  11  14
ATOM     14  C   UNL     1      43.364   4.042  11.113  0.00  0.00    +0.000 C 
BRANCH  14  15
ATOM     15  N   UNL     1      44.070   4.850  10.081  0.00  0.00    +0.000 N 
ATOM     16  C   UNL     1      44.928   4.074   9.278  0.00  0.00    +0.000 A 
ATOM     17  C   UNL     1      45.677   4.652   8.240  0.00  0.00    +0.000 A 
ATOM     18  N   UNL     1      46.517   3.959   7.415  0.00  0.00    +0.000 NA
ATOM     19  C   UNL     1      46.566   2.622   7.662  0.00  0.00    +0.000 A 
ATOM     20  C   UNL     1      45.820   2.032   8.667  0.00  0.00    +0.000 A 
ATOM     21  N   UNL     1      44.995   2.740   9.482  0.00  0.00    +0.000 NA
ATOM     22  H   UNL     1      44.577   5.637  10.490  0.00  0.00    +0.000 HD
BRANCH  19  23
ATOM     23  C   UNL     1      47.466   1.768   6.833  0.00  0.00    +0.000 C 
ATOM     24  N   UNL     1      48.569   2.369   6.304  0.00  0.00    +0.000 N 
ATOM     25  O   UNL     1      47.226   0.581   6.632  0.00  0.00    +0.000 OA
ATOM     26  H   UNL     1      48.755   3.353   6.490  0.00  0.00    +0.000 HD
ATOM     27  H   UNL     1      49.213   1.824   5.750  0.00  0.00    +0.000 HD
ENDBRANCH  19  23
ENDBRANCH  14  15
ENDBRANCH  11  14
ENDBRANCH   3  11
BRANCH   1  28
ATOM     28  O   UNL     1      45.873   8.968  12.867  0.00  0.00    +0.000 OA
BRANCH  28  34
ATOM     29  C   UNL     1      43.873   9.830   9.860  0.00  0.00    +0.000 C 
ATOM     30  C   UNL     1      44.545  10.384  11.117  0.00  0.00    +0.000 C 
ATOM     31  C   UNL     1      43.506  10.849  12.129  0.00  0.00    +0.000 C 
ATOM     32  O   UNL     1      45.385  11.516  10.745  0.00  0.00    +0.000 OA
ATOM     33  C   UNL     1      46.548  10.888  11.322  0.00  0.00    +0.000 C 
ATOM     34  C   UNL     1      45.806   9.562  11.544  0.00  0.00    +0.000 C 
ENDBRANCH  28  34
ENDBRANCH   1  28
TORSDOF 7
ENDMDL
MODEL 4
REMARK VINA RESULT:    -7.970      1.870      2.316
REMARK INTER + INTRA:         -12.250
REMARK INTER:                 -10.933
REMARK INTRA:                  -1.317
REMARK UNBOUND:                -1.018
REMARK  Name = 
REMARK  9 active torsions:
REMARK  status: ('A' for Active; 'I' for Inactive)
REMARK    1  A    between atoms: C_1  and  C_2
REMARK    2  A    between atoms: C_2  and  C_3
REMARK    3  A    between atoms: C_6  and  O_7
REMARK    4  A    between atoms: O_7  and  C_8
REMARK    5  A    between atoms: C_10  and  C_11
REMARK    6  A    between atoms: C_11  and  C_14
REMARK    7  A    between atoms: C_14  and  N_15
REMARK    8  A    between atoms: C_19  and  C_20
REMARK    9  A    between atoms: C_27  and  C_28
REMARK                            x       y       z     vdW  Elec       q    Type
REMARK                         _______ _______ _______ _____ _____    ______ ____
ROOT
ATOM      1  C   UNL     1      47.774   6.388  13.228  0.00  0.00    +0.000 A 
ATOM      2  C   UNL     1      46.647   5.546  13.260  0.00  0.00    +0.000 A 
ATOM      3  C   UNL     1      45.500   5.812  12.484  0.00  0.00    +0.000 A 
ATOM      4  C   UNL     1      45.516   6.921  11.631  0.00  0.00    +0.000 A 
ATOM      5  C   UNL     1      46.660   7.718  11.537  0.00  0.00    +0.000 A 
ATOM      6  C   UNL     1      47.808   7.454  12.318  0.00  0.00    +0.000 A 
ENDROOT
BRANCH   6   7
ATOM      7  C   UNL     1      49.017   8.336  12.109  0.00  0.00    +0.000 C 
ATOM      8  F   UNL     1      49.602   8.829  13.233  0.00  0.00    +0.000 F 
ATOM      9  F   UNL     1      50.012   7.673  11.446  0.00  0.00    +0.000 F 
ATOM     10  F   UNL     1      48.732   9.421  11.334  0.00  0.00    +0.000 F 
ENDBRANCH   6   7
BRANCH   3  11
ATOM     11  C   UNL     1      44.249   4.945  12.603  0.00  0.00    +0.000 C 
ATOM     12  F   UNL     1      44.484   3.804  13.315  0.00  0.00    +0.000 F 
ATOM     13  F   UNL     1      43.247   5.590  13.277  0.00  0.00    +0.000 F 
BRANCH  11  14
ATOM     14  C   UNL     1      43.714   4.565  11.197  0.00  0.00    +0.000 C 
BRANCH  14  15
ATOM     15  N   UNL     1      43.972   3.159  10.782  0.00  0.00    +0.000 N 
ATOM     16  C   UNL     1      44.783   3.073   9.633  0.00  0.00    +0.000 A 
ATOM     17  C   UNL     1      45.148   1.831   9.090  0.00  0.00    +0.000 A 
ATOM     18  N   UNL     1      45.941   1.672   7.988  0.00  0.00    +0.000 NA
ATOM     19  C   UNL     1      46.385   2.839   7.447  0.00  0.00    +0.000 A 
ATOM     20  C   UNL     1      46.052   4.071   7.981  0.00  0.00    +0.000 A 
ATOM     21  N   UNL     1      45.256   4.208   9.073  0.00  0.00    +0.000 NA
ATOM     22  H   UNL     1      43.107   2.633  10.649  0.00  0.00    +0.000 HD
BRANCH  19  23
ATOM     23  C   UNL     1      47.243   2.788   6.227  0.00  0.00    +0.000 C 
ATOM     24  N   UNL     1      48.566   2.521   6.417  0.00  0.00    +0.000 N 
ATOM     25  O   UNL     1      46.784   2.981   5.105  0.00  0.00    +0.000 OA
ATOM     26  H   UNL     1      48.926   2.355   7.355  0.00  0.00    +0.000 HD
ATOM     27  H   UNL     1      49.180   2.462   5.618  0.00  0.00    +0.000 HD
ENDBRANCH  19  23
ENDBRANCH  14  15
ENDBRANCH  11  14
ENDBRANCH   3  11
BRANCH   1  28
ATOM     28  O   UNL     1      48.862   6.217  14.065  0.00  0.00    +0.000 OA
BRANCH  28  34
ATOM     29  C   UNL     1      49.970   5.634  17.561  0.00  0.00    +0.000 C 
ATOM     30  C   UNL     1      49.926   6.644  16.414  0.00  0.00    +0.000 C 
ATOM     31  C   UNL     1      51.321   6.889  15.852  0.00  0.00    +0.000 C 
ATOM     32  O   UNL     1      49.388   7.905  16.912  0.00  0.00    +0.000 OA
ATOM     33  C   UNL     1      48.336   7.886  15.926  0.00  0.00    +0.000 C 
ATOM     34  C   UNL     1      48.681   6.457  15.485  0.00  0.00    +0.000 C 
ENDBRANCH  28  34
ENDBRANCH   1  28
TORSDOF 7
ENDMDL
MODEL 5
REMARK VINA RESULT:    -7.702      2.756      3.715
REMARK INTER + INTRA:         -11.872
REMARK INTER:                 -10.508
REMARK INTRA:                  -1.364
REMARK UNBOUND:                -1.018
REMARK  Name = 
REMARK  9 active torsions:
REMARK  status: ('A' for Active; 'I' for Inactive)
REMARK    1  A    between atoms: C_1  and  C_2
REMARK    2  A    between atoms: C_2  and  C_3
REMARK    3  A    between atoms: C_6  and  O_7
REMARK    4  A    between atoms: O_7  and  C_8
REMARK    5  A    between atoms: C_10  and  C_11
REMARK    6  A    between atoms: C_11  and  C_14
REMARK    7  A    between atoms: C_14  and  N_15
REMARK    8  A    between atoms: C_19  and  C_20
REMARK    9  A    between atoms: C_27  and  C_28
REMARK                            x       y       z     vdW  Elec       q    Type
REMARK                         _______ _______ _______ _____ _____    ______ ____
ROOT
ATOM      1  C   UNL     1      46.598   8.190  12.855  0.00  0.00    +0.000 A 
ATOM      2  C   UNL     1      45.943   6.945  12.908  0.00  0.00    +0.000 A 
ATOM      3  C   UNL     1      44.750   6.704  12.197  0.00  0.00    +0.000 A 
ATOM      4  C   UNL     1      44.240   7.724  11.386  0.00  0.00    +0.000 A 
ATOM      5  C   UNL     1      44.927   8.936  11.268  0.00  0.00    +0.000 A 
ATOM      6  C   UNL     1      46.121   9.179  11.984  0.00  0.00    +0.000 A 
ENDROOT
BRANCH   6   7
ATOM      7  C   UNL     1      46.822  10.497  11.751  0.00  0.00    +0.000 C 
ATOM      8  F   UNL     1      46.125  11.432  11.052  0.00  0.00    +0.000 F 
ATOM      9  F   UNL     1      47.156  11.102  12.930  0.00  0.00    +0.000 F 
ATOM     10  F   UNL     1      48.001  10.339  11.084  0.00  0.00    +0.000 F 
ENDBRANCH   6   7
BRANCH   3  11
ATOM     11  C   UNL     1      43.999   5.383  12.342  0.00  0.00    +0.000 C 
ATOM     12  F   UNL     1      44.774   4.414  12.912  0.00  0.00    +0.000 F 
ATOM     13  F   UNL     1      42.912   5.505  13.166  0.00  0.00    +0.000 F 
BRANCH  11  14
ATOM     14  C   UNL     1      43.498   4.886  10.960  0.00  0.00    +0.000 C 
BRANCH  14  15
ATOM     15  N   UNL     1      43.702   3.434  10.699  0.00  0.00    +0.000 N 
ATOM     16  C   UNL     1      44.612   3.194   9.653  0.00  0.00    +0.000 A 
ATOM     17  C   UNL     1      44.944   1.887   9.262  0.00  0.00    +0.000 A 
ATOM     18  N   UNL     1      45.828   1.579   8.265  0.00  0.00    +0.000 NA
ATOM     19  C   UNL     1      46.399   2.662   7.671  0.00  0.00    +0.000 A 
ATOM     20  C   UNL     1      46.099   3.956   8.057  0.00  0.00    +0.000 A 
ATOM     21  N   UNL     1      45.211   4.241   9.045  0.00  0.00    +0.000 NA
ATOM     22  H   UNL     1      42.820   2.948  10.526  0.00  0.00    +0.000 HD
BRANCH  19  23
ATOM     23  C   UNL     1      47.367   2.446   6.555  0.00  0.00    +0.000 C 
ATOM     24  N   UNL     1      47.232   3.247   5.461  0.00  0.00    +0.000 N 
ATOM     25  O   UNL     1      48.241   1.586   6.615  0.00  0.00    +0.000 OA
ATOM     26  H   UNL     1      46.506   3.961   5.434  0.00  0.00    +0.000 HD
ATOM     27  H   UNL     1      47.875   3.145   4.690  0.00  0.00    +0.000 HD
ENDBRANCH  19  23
ENDBRANCH  14  15
ENDBRANCH  11  14
ENDBRANCH   3  11
BRANCH   1  28
ATOM     28  O   UNL     1      47.702   8.490  13.632  0.00  0.00    +0.000 OA
BRANCH  28  34
ATOM     29  C   UNL     1      50.850   8.190  11.685  0.00  0.00    +0.000 C 
ATOM     30  C   UNL     1      50.245   8.577  13.036  0.00  0.00    +0.000 C 
ATOM     31  C   UNL     1      50.354  10.079  13.270  0.00  0.00    +0.000 C 
ATOM     32  O   UNL     1      50.965   7.879  14.094  0.00  0.00    +0.000 OA
ATOM     33  C   UNL     1      49.745   7.281  14.578  0.00  0.00    +0.000 C 
ATOM     34  C   UNL     1      48.941   7.780  13.369  0.00  0.00    +0.000 C 
ENDBRANCH  28  34
ENDBRANCH   1  28
TORSDOF 7
ENDMDL
MODEL 6
REMARK VINA RESULT:    -7.228      3.358      7.843
REMARK INTER + INTRA:         -11.204
REMARK INTER:                 -10.193
REMARK INTRA:                  -1.012
REMARK UNBOUND:                -1.018
REMARK  Name = 
REMARK  9 active torsions:
REMARK  status: ('A' for Active; 'I' for Inactive)
REMARK    1  A    between atoms: C_1  and  C_2
REMARK    2  A    between atoms: C_2  and  C_3
REMARK    3  A    between atoms: C_6  and  O_7
REMARK    4  A    between atoms: O_7  and  C_8
REMARK    5  A    between atoms: C_10  and  C_11
REMARK    6  A    between atoms: C_11  and  C_14
REMARK    7  A    between atoms: C_14  and  N_15
REMARK    8  A    between atoms: C_19  and  C_20
REMARK    9  A    between atoms: C_27  and  C_28
REMARK                            x       y       z     vdW  Elec       q    Type
REMARK                         _______ _______ _______ _____ _____    ______ ____
ROOT
ATOM      1  C   UNL     1      45.480   5.304  11.366  0.00  0.00    +0.000 A 
ATOM      2  C   UNL     1      46.646   6.082  11.497  0.00  0.00    +0.000 A 
ATOM      3  C   UNL     1      46.652   7.291  12.223  0.00  0.00    +0.000 A 
ATOM      4  C   UNL     1      45.473   7.691  12.862  0.00  0.00    +0.000 A 
ATOM      5  C   UNL     1      44.333   6.884  12.800  0.00  0.00    +0.000 A 
ATOM      6  C   UNL     1      44.325   5.675  12.069  0.00  0.00    +0.000 A 
ENDROOT
BRANCH   6   7
ATOM      7  C   UNL     1      43.065   4.842  12.105  0.00  0.00    +0.000 C 
ATOM      8  F   UNL     1      43.065   3.721  11.335  0.00  0.00    +0.000 F 
ATOM      9  F   UNL     1      42.785   4.410  13.371  0.00  0.00    +0.000 F 
ATOM     10  F   UNL     1      41.968   5.555  11.719  0.00  0.00    +0.000 F 
ENDBRANCH   6   7
BRANCH   3  11
ATOM     11  C   UNL     1      47.898   8.173  12.274  0.00  0.00    +0.000 C 
ATOM     12  F   UNL     1      48.287   8.580  11.030  0.00  0.00    +0.000 F 
ATOM     13  F   UNL     1      47.674   9.326  12.977  0.00  0.00    +0.000 F 
BRANCH  11  14
ATOM     14  C   UNL     1      49.071   7.418  12.953  0.00  0.00    +0.000 C 
BRANCH  14  15
ATOM     15  N   UNL     1      49.273   7.732  14.394  0.00  0.00    +0.000 N 
ATOM     16  C   UNL     1      48.795   6.714  15.243  0.00  0.00    +0.000 A 
ATOM     17  C   UNL     1      48.902   6.820  16.639  0.00  0.00    +0.000 A 
ATOM     18  N   UNL     1      48.473   5.867  17.520  0.00  0.00    +0.000 NA
ATOM     19  C   UNL     1      47.935   4.764  16.933  0.00  0.00    +0.000 A 
ATOM     20  C   UNL     1      47.840   4.635  15.559  0.00  0.00    +0.000 A 
ATOM     21  N   UNL     1      48.266   5.596  14.699  0.00  0.00    +0.000 NA
ATOM     22  H   UNL     1      48.866   8.633  14.652  0.00  0.00    +0.000 HD
BRANCH  19  23
ATOM     23  C   UNL     1      47.415   3.666  17.800  0.00  0.00    +0.000 C 
ATOM     24  N   UNL     1      48.049   3.470  18.991  0.00  0.00    +0.000 N 
ATOM     25  O   UNL     1      46.465   2.967  17.458  0.00  0.00    +0.000 OA
ATOM     26  H   UNL     1      48.830   4.066  19.260  0.00  0.00    +0.000 HD
ATOM     27  H   UNL     1      47.720   2.748  19.615  0.00  0.00    +0.000 HD
ENDBRANCH  19  23
ENDBRANCH  14  15
ENDBRANCH  11  14
ENDBRANCH   3  11
BRANCH   1  28
ATOM     28  O   UNL     1      45.416   4.179  10.564  0.00  0.00    +0.000 OA
BRANCH  28  34
ATOM     29  C   UNL     1      46.888   3.442   7.236  0.00  0.00    +0.000 C 
ATOM     30  C   UNL     1      45.715   3.160   8.176  0.00  0.00    +0.000 C 
ATOM     31  C   UNL     1      45.756   1.724   8.681  0.00  0.00    +0.000 C 
ATOM     32  O   UNL     1      44.467   3.373   7.452  0.00  0.00    +0.000 OA
ATOM     33  C   UNL     1      44.027   4.342   8.426  0.00  0.00    +0.000 C 
ATOM     34  C   UNL     1      45.393   4.362   9.124  0.00  0.00    +0.000 C 
ENDBRANCH  28  34
ENDBRANCH   1  28
TORSDOF 7
ENDMDL
MODEL 7
REMARK VINA RESULT:    -7.077      4.238      6.580
REMARK INTER + INTRA:         -10.992
REMARK INTER:                  -9.819
REMARK INTRA:                  -1.173
REMARK UNBOUND:                -1.018
REMARK  Name = 
REMARK  9 active torsions:
REMARK  status: ('A' for Active; 'I' for Inactive)
REMARK    1  A    between atoms: C_1  and  C_2
REMARK    2  A    between atoms: C_2  and  C_3
REMARK    3  A    between atoms: C_6  and  O_7
REMARK    4  A    between atoms: O_7  and  C_8
REMARK    5  A    between atoms: C_10  and  C_11
REMARK    6  A    between atoms: C_11  and  C_14
REMARK    7  A    between atoms: C_14  and  N_15
REMARK    8  A    between atoms: C_19  and  C_20
REMARK    9  A    between atoms: C_27  and  C_28
REMARK                            x       y       z     vdW  Elec       q    Type
REMARK                         _______ _______ _______ _____ _____    ______ ____
ROOT
ATOM      1  C   UNL     1      51.706   3.857  17.916  0.00  0.00    +0.000 A 
ATOM      2  C   UNL     1      50.489   4.553  17.787  0.00  0.00    +0.000 A 
ATOM      3  C   UNL     1      49.312   3.912  17.348  0.00  0.00    +0.000 A 
ATOM      4  C   UNL     1      49.361   2.540  17.080  0.00  0.00    +0.000 A 
ATOM      5  C   UNL     1      50.547   1.827  17.280  0.00  0.00    +0.000 A 
ATOM      6  C   UNL     1      51.728   2.469  17.715  0.00  0.00    +0.000 A 
ENDROOT
BRANCH   6   7
ATOM      7  C   UNL     1      52.946   1.609  17.957  0.00  0.00    +0.000 C 
ATOM      8  F   UNL     1      53.616   1.831  19.119  0.00  0.00    +0.000 F 
ATOM      9  F   UNL     1      52.627   0.281  17.972  0.00  0.00    +0.000 F 
ATOM     10  F   UNL     1      53.873   1.744  16.965  0.00  0.00    +0.000 F 
ENDBRANCH   6   7
BRANCH   3  11
ATOM     11  C   UNL     1      48.025   4.700  17.119  0.00  0.00    +0.000 C 
ATOM     12  F   UNL     1      47.131   4.528  18.137  0.00  0.00    +0.000 F 
ATOM     13  F   UNL     1      48.258   6.049  17.069  0.00  0.00    +0.000 F 
BRANCH  11  14
ATOM     14  C   UNL     1      47.359   4.279  15.782  0.00  0.00    +0.000 C 
BRANCH  14  15
ATOM     15  N   UNL     1      47.179   5.379  14.793  0.00  0.00    +0.000 N 
ATOM     16  C   UNL     1      46.463   4.969  13.652  0.00  0.00    +0.000 A 
ATOM     17  C   UNL     1      46.182   5.865  12.608  0.00  0.00    +0.000 A 
ATOM     18  N   UNL     1      45.483   5.542  11.479  0.00  0.00    +0.000 NA
ATOM     19  C   UNL     1      45.044   4.254  11.444  0.00  0.00    +0.000 A 
ATOM     20  C   UNL     1      45.295   3.363  12.472  0.00  0.00    +0.000 A 
ATOM     21  N   UNL     1      45.999   3.703  13.583  0.00  0.00    +0.000 NA
ATOM     22  H   UNL     1      48.069   5.802  14.525  0.00  0.00    +0.000 HD
BRANCH  19  23
ATOM     23  C   UNL     1      44.285   3.784  10.248  0.00  0.00    +0.000 C 
ATOM     24  N   UNL     1      44.161   4.662   9.213  0.00  0.00    +0.000 N 
ATOM     25  O   UNL     1      43.790   2.661  10.198  0.00  0.00    +0.000 OA
ATOM     26  H   UNL     1      44.586   5.585   9.271  0.00  0.00    +0.000 HD
ATOM     27  H   UNL     1      43.667   4.378   8.379  0.00  0.00    +0.000 HD
ENDBRANCH  19  23
ENDBRANCH  14  15
ENDBRANCH  11  14
ENDBRANCH   3  11
BRANCH   1  28
ATOM     28  O   UNL     1      52.898   4.484  18.230  0.00  0.00    +0.000 OA
BRANCH  28  34
ATOM     29  C   UNL     1      52.760   7.303  15.817  0.00  0.00    +0.000 C 
ATOM     30  C   UNL     1      53.332   6.826  17.152  0.00  0.00    +0.000 C 
ATOM     31  C   UNL     1      52.711   7.590  18.315  0.00  0.00    +0.000 C 
ATOM     32  O   UNL     1      54.773   7.046  17.156  0.00  0.00    +0.000 OA
ATOM     33  C   UNL     1      55.022   5.650  17.418  0.00  0.00    +0.000 C 
ATOM     34  C   UNL     1      53.549   5.277  17.202  0.00  0.00    +0.000 C 
ENDBRANCH  28  34
ENDBRANCH   1  28
TORSDOF 7
ENDMDL
MODEL 8
REMARK VINA RESULT:    -7.044      4.044      6.339
REMARK INTER + INTRA:         -10.945
REMARK INTER:                  -9.742
REMARK INTRA:                  -1.203
REMARK UNBOUND:                -1.018
REMARK  Name = 
REMARK  9 active torsions:
REMARK  status: ('A' for Active; 'I' for Inactive)
REMARK    1  A    between atoms: C_1  and  C_2
REMARK    2  A    between atoms: C_2  and  C_3
REMARK    3  A    between atoms: C_6  and  O_7
REMARK    4  A    between atoms: O_7  and  C_8
REMARK    5  A    between atoms: C_10  and  C_11
REMARK    6  A    between atoms: C_11  and  C_14
REMARK    7  A    between atoms: C_14  and  N_15
REMARK    8  A    between atoms: C_19  and  C_20
REMARK    9  A    between atoms: C_27  and  C_28
REMARK                            x       y       z     vdW  Elec       q    Type
REMARK                         _______ _______ _______ _____ _____    ______ ____
ROOT
ATOM      1  C   UNL     1      51.410   4.080  17.912  0.00  0.00    +0.000 A 
ATOM      2  C   UNL     1      50.042   4.372  17.748  0.00  0.00    +0.000 A 
ATOM      3  C   UNL     1      49.122   3.395  17.315  0.00  0.00    +0.000 A 
ATOM      4  C   UNL     1      49.589   2.095  17.088  0.00  0.00    +0.000 A 
ATOM      5  C   UNL     1      50.930   1.780  17.322  0.00  0.00    +0.000 A 
ATOM      6  C   UNL     1      51.853   2.759  17.752  0.00  0.00    +0.000 A 
ENDROOT
BRANCH   6   7
ATOM      7  C   UNL     1      53.270   2.314  18.033  0.00  0.00    +0.000 C 
ATOM      8  F   UNL     1      54.244   2.922  17.305  0.00  0.00    +0.000 F 
ATOM      9  F   UNL     1      53.612   2.523  19.339  0.00  0.00    +0.000 F 
ATOM     10  F   UNL     1      53.436   0.976  17.828  0.00  0.00    +0.000 F 
ENDBRANCH   6   7
BRANCH   3  11
ATOM     11  C   UNL     1      47.662   3.751  17.048  0.00  0.00    +0.000 C 
ATOM     12  F   UNL     1      46.805   2.965  17.764  0.00  0.00    +0.000 F 
ATOM     13  F   UNL     1      47.376   5.035  17.429  0.00  0.00    +0.000 F 
BRANCH  11  14
ATOM     14  C   UNL     1      47.336   3.615  15.538  0.00  0.00    +0.000 C 
BRANCH  14  15
ATOM     15  N   UNL     1      46.716   4.818  14.916  0.00  0.00    +0.000 N 
ATOM     16  C   UNL     1      46.095   4.532  13.684  0.00  0.00    +0.000 A 
ATOM     17  C   UNL     1      45.445   5.535  12.946  0.00  0.00    +0.000 A 
ATOM     18  N   UNL     1      44.812   5.327  11.753  0.00  0.00    +0.000 NA
ATOM     19  C   UNL     1      44.836   4.037  11.324  0.00  0.00    +0.000 A 
ATOM     20  C   UNL     1      45.454   3.033  12.048  0.00  0.00    +0.000 A 
ATOM     21  N   UNL     1      46.085   3.260  13.229  0.00  0.00    +0.000 NA
ATOM     22  H   UNL     1      47.384   5.583  14.810  0.00  0.00    +0.000 HD
BRANCH  19  23
ATOM     23  C   UNL     1      44.191   3.696  10.022  0.00  0.00    +0.000 C 
ATOM     24  N   UNL     1      43.899   4.736   9.190  0.00  0.00    +0.000 N 
ATOM     25  O   UNL     1      43.930   2.537   9.713  0.00  0.00    +0.000 OA
ATOM     26  H   UNL     1      44.131   5.690   9.461  0.00  0.00    +0.000 HD
ATOM     27  H   UNL     1      43.475   4.549   8.293  0.00  0.00    +0.000 HD
ENDBRANCH  19  23
ENDBRANCH  14  15
ENDBRANCH  11  14
ENDBRANCH   3  11
BRANCH   1  28
ATOM     28  O   UNL     1      52.351   5.046  18.221  0.00  0.00    +0.000 OA
BRANCH  28  34
ATOM     29  C   UNL     1      51.558   7.579  15.624  0.00  0.00    +0.000 C 
ATOM     30  C   UNL     1      52.181   7.352  17.002  0.00  0.00    +0.000 C 
ATOM     31  C   UNL     1      51.328   7.983  18.096  0.00  0.00    +0.000 C 
ATOM     32  O   UNL     1      53.508   7.956  17.027  0.00  0.00    +0.000 OA
ATOM     33  C   UNL     1      54.113   6.697  17.387  0.00  0.00    +0.000 C 
ATOM     34  C   UNL     1      52.806   5.926  17.159  0.00  0.00    +0.000 C 
ENDBRANCH  28  34
ENDBRANCH   1  28
TORSDOF 7
ENDMDL
MODEL 9
REMARK VINA RESULT:    -7.037      5.152      8.296
REMARK INTER + INTRA:         -10.935
REMARK INTER:                 -10.120
REMARK INTRA:                  -0.815
REMARK UNBOUND:                -1.018
REMARK  Name = 
REMARK  9 active torsions:
REMARK  status: ('A' for Active; 'I' for Inactive)
REMARK    1  A    between atoms: C_1  and  C_2
REMARK    2  A    between atoms: C_2  and  C_3
REMARK    3  A    between atoms: C_6  and  O_7
REMARK    4  A    between atoms: O_7  and  C_8
REMARK    5  A    between atoms: C_10  and  C_11
REMARK    6  A    between atoms: C_11  and  C_14
REMARK    7  A    between atoms: C_14  and  N_15
REMARK    8  A    between atoms: C_19  and  C_20
REMARK    9  A    between atoms: C_27  and  C_28
REMARK                            x       y       z     vdW  Elec       q    Type
REMARK                         _______ _______ _______ _____ _____    ______ ____
ROOT
ATOM      1  C   UNL     1      46.677   4.906  13.444  0.00  0.00    +0.000 A 
ATOM      2  C   UNL     1      46.776   4.300  14.710  0.00  0.00    +0.000 A 
ATOM      3  C   UNL     1      47.610   4.823  15.720  0.00  0.00    +0.000 A 
ATOM      4  C   UNL     1      48.318   6.001  15.454  0.00  0.00    +0.000 A 
ATOM      5  C   UNL     1      48.166   6.649  14.226  0.00  0.00    +0.000 A 
ATOM      6  C   UNL     1      47.333   6.123  13.212  0.00  0.00    +0.000 A 
ENDROOT
BRANCH   6   7
ATOM      7  C   UNL     1      47.188   6.922  11.938  0.00  0.00    +0.000 C 
ATOM      8  F   UNL     1      46.761   6.235  10.845  0.00  0.00    +0.000 F 
ATOM      9  F   UNL     1      46.298   7.949  12.089  0.00  0.00    +0.000 F 
ATOM     10  F   UNL     1      48.359   7.515  11.568  0.00  0.00    +0.000 F 
ENDBRANCH   6   7
BRANCH   3  11
ATOM     11  C   UNL     1      47.781   4.101  17.054  0.00  0.00    +0.000 C 
ATOM     12  F   UNL     1      47.903   4.974  18.096  0.00  0.00    +0.000 F 
ATOM     13  F   UNL     1      46.691   3.329  17.356  0.00  0.00    +0.000 F 
BRANCH  11  14
ATOM     14  C   UNL     1      49.026   3.176  17.016  0.00  0.00    +0.000 C 
BRANCH  14  15
ATOM     15  N   UNL     1      50.298   3.811  17.460  0.00  0.00    +0.000 N 
ATOM     16  C   UNL     1      51.321   2.872  17.692  0.00  0.00    +0.000 A 
ATOM     17  C   UNL     1      52.600   3.275  18.109  0.00  0.00    +0.000 A 
ATOM     18  N   UNL     1      53.642   2.422  18.341  0.00  0.00    +0.000 NA
ATOM     19  C   UNL     1      53.352   1.112  18.113  0.00  0.00    +0.000 A 
ATOM     20  C   UNL     1      52.104   0.699  17.683  0.00  0.00    +0.000 A 
ATOM     21  N   UNL     1      51.079   1.562  17.465  0.00  0.00    +0.000 NA
ATOM     22  H   UNL     1      50.164   4.405  18.280  0.00  0.00    +0.000 HD
BRANCH  19  23
ATOM     23  C   UNL     1      54.411   0.087  18.352  0.00  0.00    +0.000 C 
ATOM     24  N   UNL     1      55.579   0.238  17.666  0.00  0.00    +0.000 N 
ATOM     25  O   UNL     1      54.239  -0.851  19.125  0.00  0.00    +0.000 OA
ATOM     26  H   UNL     1      55.705   1.028  17.035  0.00  0.00    +0.000 HD
ATOM     27  H   UNL     1      56.327  -0.425  17.809  0.00  0.00    +0.000 HD
ENDBRANCH  19  23
ENDBRANCH  14  15
ENDBRANCH  11  14
ENDBRANCH   3  11
BRANCH   1  28
ATOM     28  O   UNL     1      45.960   4.349  12.400  0.00  0.00    +0.000 OA
BRANCH  28  34
ATOM     29  C   UNL     1      42.643   5.698  11.414  0.00  0.00    +0.000 C 
ATOM     30  C   UNL     1      43.622   4.535  11.245  0.00  0.00    +0.000 C 
ATOM     31  C   UNL     1      44.201   4.512   9.837  0.00  0.00    +0.000 C 
ATOM     32  O   UNL     1      42.916   3.283  11.488  0.00  0.00    +0.000 OA
ATOM     33  C   UNL     1      43.847   2.919  12.529  0.00  0.00    +0.000 C 
ATOM     34  C   UNL     1      44.513   4.302  12.510  0.00  0.00    +0.000 C 
ENDBRANCH  28  34
ENDBRANCH   1  28
TORSDOF 7
ENDMDL
