MODEL 1
REMARK VINA RESULT:    -9.103      0.000      0.000
REMARK INTER + INTRA:         -11.892
REMARK INTER:                 -11.232
REMARK INTRA:                  -0.660
REMARK UNBOUND:                -0.660
REMARK  Name = 
REMARK  4 active torsions:
REMARK  status: ('A' for Active; 'I' for Inactive)
REMARK    1  A    between atoms: C_2  and  C_4
REMARK    2  A    between atoms: N_8  and  C_9
REMARK    3  A    between atoms: C_9  and  C_10
REMARK    4  A    between atoms: C_14  and  C_15
REMARK                            x       y       z     vdW  Elec       q    Type
REMARK                         _______ _______ _______ _____ _____    ______ ____
ROOT
ATOM      1  C   UNL     1      44.139   4.763  11.720  0.00  0.00    +0.000 C 
ATOM      2  C   UNL     1      43.010   5.084  12.677  0.00  0.00    +0.000 C 
ATOM      3  C   UNL     1      42.962   5.602  11.275  0.00  0.00    +0.000 C 
ENDROOT
BRANCH   1   8
ATOM      4  C   UNL     1      46.365   2.713   7.560  0.00  0.00    +0.000 A 
ATOM      5  C   UNL     1      46.098   4.029   7.896  0.00  0.00    +0.000 A 
ATOM      6  C   UNL     1      45.299   4.278   9.006  0.00  0.00    +0.000 A 
ATOM      7  C   UNL     1      44.862   3.235   9.823  0.00  0.00    +0.000 A 
ATOM      8  N   UNL     1      44.212   3.455  11.045  0.00  0.00    +0.000 N 
ATOM      9  N   UNL     1      45.059   1.952   9.462  0.00  0.00    +0.000 NA
ATOM     10  C   UNL     1      45.776   1.718   8.327  0.00  0.00    +0.000 A 
ATOM     11  H   UNL     1      44.081   2.585  11.548  0.00  0.00    +0.000 HD
BRANCH   4  13
ATOM     12  N   UNL     1      47.217   3.178   5.338  0.00  0.00    +0.000 N 
ATOM     13  C   UNL     1      47.253   2.355   6.437  0.00  0.00    +0.000 C 
ATOM     14  O   UNL     1      48.019   1.410   6.518  0.00  0.00    +0.000 OA
ATOM     15  H   UNL     1      47.927   3.013   4.637  0.00  0.00    +0.000 HD
ATOM     16  H   UNL     1      46.781   4.089   5.357  0.00  0.00    +0.000 HD
ENDBRANCH   4  13
ENDBRANCH   1   8
BRANCH   1  17
ATOM     17  C   UNL     1      45.516   5.368  12.037  0.00  0.00    +0.000 A 
ATOM     18  C   UNL     1      45.888   6.621  11.527  0.00  0.00    +0.000 A 
ATOM     19  C   UNL     1      46.885   7.379  12.144  0.00  0.00    +0.000 A 
ATOM     20  C   UNL     1      47.498   6.908  13.307  0.00  0.00    +0.000 A 
ATOM     21  C   UNL     1      47.208   5.630  13.803  0.00  0.00    +0.000 A 
ATOM     22  C   UNL     1      46.313   4.835  13.066  0.00  0.00    +0.000 A 
BRANCH  21  23
ATOM     23  C   UNL     1      47.629   5.189  15.148  0.00  0.00    +0.000 A 
ATOM     24  C   UNL     1      47.118   4.041  15.766  0.00  0.00    +0.000 A 
ATOM     25  C   UNL     1      47.440   3.742  17.090  0.00  0.00    +0.000 A 
ATOM     26  C   UNL     1      48.276   4.605  17.775  0.00  0.00    +0.000 A 
ATOM     27  N   UNL     1      48.790   5.730  17.235  0.00  0.00    +0.000 NA
ATOM     28  C   UNL     1      48.460   5.986  15.945  0.00  0.00    +0.000 A 
ENDBRANCH  21  23
ENDBRANCH   1  17
TORSDOF 4
ENDMDL
MODEL 2
REMARK VINA RESULT:    -8.816      2.038      3.448
REMARK INTER + INTRA:         -11.538
REMARK INTER:                 -10.732
REMARK INTRA:                  -0.805
REMARK UNBOUND:                -0.660
REMARK  Name = 
REMARK  4 active torsions:
REMARK  status: ('A' for Active; 'I' for Inactive)
REMARK    1  A    between atoms: C_2  and  C_4
REMARK    2  A    between atoms: N_8  and  C_9
REMARK    3  A    between atoms: C_9  and  C_10
REMARK    4  A    between atoms: C_14  and  C_15
REMARK                            x       y       z     vdW  Elec       q    Type
REMARK                         _______ _______ _______ _____ _____    ______ ____
ROOT
ATOM      1  C   UNL     1      43.783   4.864  11.643  0.00  0.00    +0.000 C 
ATOM      2  C   UNL     1      42.420   5.384  12.049  0.00  0.00    +0.000 C 
ATOM      3  C   UNL     1      43.057   5.876  10.788  0.00  0.00    +0.000 C 
ENDROOT
BRANCH   1   8
ATOM      4  C   UNL     1      46.366   2.799   7.702  0.00  0.00    +0.000 A 
ATOM      5  C   UNL     1      46.052   4.114   7.998  0.00  0.00    +0.000 A 
ATOM      6  C   UNL     1      45.163   4.364   9.038  0.00  0.00    +0.000 A 
ATOM      7  C   UNL     1      44.680   3.324   9.831  0.00  0.00    +0.000 A 
ATOM      8  N   UNL     1      43.931   3.548  10.995  0.00  0.00    +0.000 N 
ATOM      9  N   UNL     1      44.924   2.040   9.505  0.00  0.00    +0.000 NA
ATOM     10  C   UNL     1      45.733   1.804   8.433  0.00  0.00    +0.000 A 
ATOM     11  H   UNL     1      43.774   2.683  11.497  0.00  0.00    +0.000 HD
BRANCH   4  13
ATOM     12  N   UNL     1      47.381   3.248   5.546  0.00  0.00    +0.000 N 
ATOM     13  C   UNL     1      47.345   2.442   6.658  0.00  0.00    +0.000 C 
ATOM     14  O   UNL     1      48.121   1.514   6.815  0.00  0.00    +0.000 OA
ATOM     15  H   UNL     1      48.147   3.086   4.906  0.00  0.00    +0.000 HD
ATOM     16  H   UNL     1      46.927   4.150   5.516  0.00  0.00    +0.000 HD
ENDBRANCH   4  13
ENDBRANCH   1   8
BRANCH   1  17
ATOM     17  C   UNL     1      44.970   5.239  12.546  0.00  0.00    +0.000 A 
ATOM     18  C   UNL     1      45.672   4.255  13.258  0.00  0.00    +0.000 A 
ATOM     19  C   UNL     1      46.981   4.481  13.690  0.00  0.00    +0.000 A 
ATOM     20  C   UNL     1      47.620   5.683  13.380  0.00  0.00    +0.000 A 
ATOM     21  C   UNL     1      46.926   6.717  12.737  0.00  0.00    +0.000 A 
ATOM     22  C   UNL     1      45.565   6.510  12.456  0.00  0.00    +0.000 A 
BRANCH  21  23
ATOM     23  C   UNL     1      47.613   7.894  12.165  0.00  0.00    +0.000 A 
ATOM     24  C   UNL     1      48.946   7.861  11.737  0.00  0.00    +0.000 A 
ATOM     25  C   UNL     1      49.592   9.030  11.335  0.00  0.00    +0.000 A 
ATOM     26  C   UNL     1      48.885  10.219  11.367  0.00  0.00    +0.000 A 
ATOM     27  N   UNL     1      47.603  10.312  11.778  0.00  0.00    +0.000 NA
ATOM     28  C   UNL     1      47.005   9.155  12.157  0.00  0.00    +0.000 A 
ENDBRANCH  21  23
ENDBRANCH   1  17
TORSDOF 4
ENDMDL
MODEL 3
REMARK VINA RESULT:    -6.792      3.805      5.454
REMARK INTER + INTRA:          -9.040
REMARK INTER:                  -8.045
REMARK INTRA:                  -0.995
REMARK UNBOUND:                -0.660
REMARK  Name = 
REMARK  4 active torsions:
REMARK  status: ('A' for Active; 'I' for Inactive)
REMARK    1  A    between atoms: C_2  and  C_4
REMARK    2  A    between atoms: N_8  and  C_9
REMARK    3  A    between atoms: C_9  and  C_10
REMARK    4  A    between atoms: C_14  and  C_15
REMARK                            x       y       z     vdW  Elec       q    Type
REMARK                         _______ _______ _______ _____ _____    ______ ____
ROOT
ATOM      1  C   UNL     1      49.021   8.350  12.630  0.00  0.00    +0.000 C 
ATOM      2  C   UNL     1      50.136   9.023  11.857  0.00  0.00    +0.000 C 
ATOM      3  C   UNL     1      49.900   7.555  11.692  0.00  0.00    +0.000 C 
ENDROOT
BRANCH   1   8
ATOM      4  C   UNL     1      44.789   5.424  12.613  0.00  0.00    +0.000 A 
ATOM      5  C   UNL     1      46.125   5.095  12.760  0.00  0.00    +0.000 A 
ATOM      6  C   UNL     1      47.079   6.078  12.522  0.00  0.00    +0.000 A 
ATOM      7  C   UNL     1      46.699   7.391  12.245  0.00  0.00    +0.000 A 
ATOM      8  N   UNL     1      47.621   8.445  12.179  0.00  0.00    +0.000 N 
ATOM      9  N   UNL     1      45.405   7.702  12.031  0.00  0.00    +0.000 NA
ATOM     10  C   UNL     1      44.484   6.710  12.188  0.00  0.00    +0.000 A 
ATOM     11  H   UNL     1      47.147   9.336  12.088  0.00  0.00    +0.000 HD
BRANCH   4  13
ATOM     12  N   UNL     1      44.027   3.132  12.815  0.00  0.00    +0.000 N 
ATOM     13  C   UNL     1      43.708   4.464  12.904  0.00  0.00    +0.000 C 
ATOM     14  O   UNL     1      42.608   4.847  13.266  0.00  0.00    +0.000 OA
ATOM     15  H   UNL     1      43.329   2.484  13.155  0.00  0.00    +0.000 HD
ATOM     16  H   UNL     1      44.983   2.806  12.763  0.00  0.00    +0.000 HD
ENDBRANCH   4  13
ENDBRANCH   1   8
BRANCH   1  17
ATOM     17  C   UNL     1      49.169   8.289  14.158  0.00  0.00    +0.000 A 
ATOM     18  C   UNL     1      48.822   9.386  14.961  0.00  0.00    +0.000 A 
ATOM     19  C   UNL     1      48.507   9.216  16.310  0.00  0.00    +0.000 A 
ATOM     20  C   UNL     1      48.499   7.936  16.868  0.00  0.00    +0.000 A 
ATOM     21  C   UNL     1      48.914   6.826  16.119  0.00  0.00    +0.000 A 
ATOM     22  C   UNL     1      49.371   7.059  14.811  0.00  0.00    +0.000 A 
BRANCH  21  23
ATOM     23  C   UNL     1      48.686   5.438  16.570  0.00  0.00    +0.000 A 
ATOM     24  C   UNL     1      49.617   4.725  17.336  0.00  0.00    +0.000 A 
ATOM     25  C   UNL     1      49.419   3.374  17.619  0.00  0.00    +0.000 A 
ATOM     26  C   UNL     1      48.283   2.757  17.127  0.00  0.00    +0.000 A 
ATOM     27  N   UNL     1      47.358   3.389  16.377  0.00  0.00    +0.000 NA
ATOM     28  C   UNL     1      47.579   4.704  16.126  0.00  0.00    +0.000 A 
ENDBRANCH  21  23
ENDBRANCH   1  17
TORSDOF 4
ENDMDL
MODEL 4
REMARK VINA RESULT:    -6.743      3.369      7.136
REMARK INTER + INTRA:          -8.980
REMARK INTER:                  -8.760
REMARK INTRA:                  -0.220
REMARK UNBOUND:                -0.660
REMARK  Name = 
REMARK  4 active torsions:
REMARK  status: ('A' for Active; 'I' for Inactive)
REMARK    1  A    between atoms: C_2  and  C_4
REMARK    2  A    between atoms: N_8  and  C_9
REMARK    3  A    between atoms: C_9  and  C_10
REMARK    4  A    between atoms: C_14  and  C_15
REMARK                            x       y       z     vdW  Elec       q    Type
REMARK                         _______ _______ _______ _____ _____    ______ ____
ROOT
ATOM      1  C   UNL     1      46.115   5.290  13.516  0.00  0.00    +0.000 C 
ATOM      2  C   UNL     1      46.516   4.394  14.669  0.00  0.00    +0.000 C 
ATOM      3  C   UNL     1      47.511   4.715  13.600  0.00  0.00    +0.000 C 
ENDROOT
BRANCH   1   8
ATOM      4  C   UNL     1      48.608   9.406  11.696  0.00  0.00    +0.000 A 
ATOM      5  C   UNL     1      48.961   8.068  11.732  0.00  0.00    +0.000 A 
ATOM      6  C   UNL     1      48.170   7.195  12.470  0.00  0.00    +0.000 A 
ATOM      7  C   UNL     1      46.992   7.634  13.074  0.00  0.00    +0.000 A 
ATOM      8  N   UNL     1      46.077   6.755  13.670  0.00  0.00    +0.000 N 
ATOM      9  N   UNL     1      46.681   8.945  13.102  0.00  0.00    +0.000 NA
ATOM     10  C   UNL     1      47.509   9.804  12.442  0.00  0.00    +0.000 A 
ATOM     11  H   UNL     1      45.233   7.243  13.945  0.00  0.00    +0.000 HD
BRANCH   4  13
ATOM     12  N   UNL     1      50.715  10.235  10.828  0.00  0.00    +0.000 N 
ATOM     13  C   UNL     1      49.352  10.392  10.889  0.00  0.00    +0.000 C 
ATOM     14  O   UNL     1      48.769  11.260  10.262  0.00  0.00    +0.000 OA
ATOM     15  H   UNL     1      51.200  10.821  10.161  0.00  0.00    +0.000 HD
ATOM     16  H   UNL     1      51.177   9.388  11.130  0.00  0.00    +0.000 HD
ENDBRANCH   4  13
ENDBRANCH   1   8
BRANCH   1  17
ATOM     17  C   UNL     1      45.051   4.748  12.548  0.00  0.00    +0.000 A 
ATOM     18  C   UNL     1      43.763   5.303  12.509  0.00  0.00    +0.000 A 
ATOM     19  C   UNL     1      42.958   5.166  11.376  0.00  0.00    +0.000 A 
ATOM     20  C   UNL     1      43.448   4.503  10.249  0.00  0.00    +0.000 A 
ATOM     21  C   UNL     1      44.698   3.870  10.277  0.00  0.00    +0.000 A 
ATOM     22  C   UNL     1      45.413   3.898  11.487  0.00  0.00    +0.000 A 
BRANCH  21  23
ATOM     23  C   UNL     1      45.365   3.381   9.053  0.00  0.00    +0.000 A 
ATOM     24  C   UNL     1      45.702   2.036   8.858  0.00  0.00    +0.000 A 
ATOM     25  C   UNL     1      46.454   1.645   7.750  0.00  0.00    +0.000 A 
ATOM     26  C   UNL     1      46.856   2.617   6.851  0.00  0.00    +0.000 A 
ATOM     27  N   UNL     1      46.569   3.927   6.992  0.00  0.00    +0.000 NA
ATOM     28  C   UNL     1      45.832   4.270   8.078  0.00  0.00    +0.000 A 
ENDBRANCH  21  23
ENDBRANCH   1  17
TORSDOF 4
ENDMDL
MODEL 5
REMARK VINA RESULT:    -6.686      2.874      7.662
REMARK INTER + INTRA:          -8.909
REMARK INTER:                  -9.052
REMARK INTRA:                   0.143
REMARK UNBOUND:                -0.660
REMARK  Name = 
REMARK  4 active torsions:
REMARK  status: ('A' for Active; 'I' for Inactive)
REMARK    1  A    between atoms: C_2  and  C_4
REMARK    2  A    between atoms: N_8  and  C_9
REMARK    3  A    between atoms: C_9  and  C_10
REMARK    4  A    between atoms: C_14  and  C_15
REMARK                            x       y       z     vdW  Elec       q    Type
REMARK                         _______ _______ _______ _____ _____    ______ ____
ROOT
ATOM      1  C   UNL     1      48.451   7.651  12.900  0.00  0.00    +0.000 C 
ATOM      2  C   UNL     1      49.435   7.127  11.875  0.00  0.00    +0.000 C 
ATOM      3  C   UNL     1      49.346   8.597  12.132  0.00  0.00    +0.000 C 
ENDROOT
BRANCH   1   8
ATOM      4  C   UNL     1      47.928   4.352  16.812  0.00  0.00    +0.000 A 
ATOM      5  C   UNL     1      47.296   4.416  15.582  0.00  0.00    +0.000 A 
ATOM      6  C   UNL     1      47.495   5.544  14.795  0.00  0.00    +0.000 A 
ATOM      7  C   UNL     1      48.390   6.540  15.184  0.00  0.00    +0.000 A 
ATOM      8  N   UNL     1      48.755   7.599  14.341  0.00  0.00    +0.000 N 
ATOM      9  N   UNL     1      48.952   6.518  16.409  0.00  0.00    +0.000 NA
ATOM     10  C   UNL     1      48.686   5.445  17.206  0.00  0.00    +0.000 A 
ATOM     11  H   UNL     1      49.501   8.148  14.751  0.00  0.00    +0.000 HD
BRANCH   4  13
ATOM     12  N   UNL     1      48.896   2.913  18.506  0.00  0.00    +0.000 N 
ATOM     13  C   UNL     1      47.824   3.168  17.687  0.00  0.00    +0.000 C 
ATOM     14  O   UNL     1      46.807   2.496  17.716  0.00  0.00    +0.000 OA
ATOM     15  H   UNL     1      48.761   2.191  19.202  0.00  0.00    +0.000 HD
ATOM     16  H   UNL     1      49.626   3.592  18.671  0.00  0.00    +0.000 HD
ENDBRANCH   4  13
ENDBRANCH   1   8
BRANCH   1  17
ATOM     17  C   UNL     1      46.956   7.482  12.582  0.00  0.00    +0.000 A 
ATOM     18  C   UNL     1      46.109   8.597  12.485  0.00  0.00    +0.000 A 
ATOM     19  C   UNL     1      44.913   8.528  11.769  0.00  0.00    +0.000 A 
ATOM     20  C   UNL     1      44.566   7.349  11.105  0.00  0.00    +0.000 A 
ATOM     21  C   UNL     1      45.347   6.193  11.241  0.00  0.00    +0.000 A 
ATOM     22  C   UNL     1      46.460   6.259  12.096  0.00  0.00    +0.000 A 
BRANCH  21  23
ATOM     23  C   UNL     1      45.170   5.012  10.371  0.00  0.00    +0.000 A 
ATOM     24  C   UNL     1      45.663   4.952   9.062  0.00  0.00    +0.000 A 
ATOM     25  C   UNL     1      45.352   3.874   8.233  0.00  0.00    +0.000 A 
ATOM     26  C   UNL     1      44.547   2.868   8.736  0.00  0.00    +0.000 A 
ATOM     27  N   UNL     1      44.036   2.876   9.984  0.00  0.00    +0.000 NA
ATOM     28  C   UNL     1      44.364   3.937  10.764  0.00  0.00    +0.000 A 
ENDBRANCH  21  23
ENDBRANCH   1  17
TORSDOF 4
ENDMDL
MODEL 6
REMARK VINA RESULT:    -6.635      1.832      2.927
REMARK INTER + INTRA:          -8.846
REMARK INTER:                  -8.312
REMARK INTRA:                  -0.534
REMARK UNBOUND:                -0.660
REMARK  Name = 
REMARK  4 active torsions:
REMARK  status: ('A' for Active; 'I' for Inactive)
REMARK    1  A    between atoms: C_2  and  C_4
REMARK    2  A    between atoms: N_8  and  C_9
REMARK    3  A    between atoms: C_9  and  C_10
REMARK    4  A    between atoms: C_14  and  C_15
REMARK                            x       y       z     vdW  Elec       q    Type
REMARK                         _______ _______ _______ _____ _____    ______ ____
ROOT
ATOM      1  C   UNL     1      45.638   7.784  12.549  0.00  0.00    +0.000 C 
ATOM      2  C   UNL     1      45.198   9.178  12.947  0.00  0.00    +0.000 C 
ATOM      3  C   UNL     1      45.434   8.859  11.505  0.00  0.00    +0.000 C 
ENDROOT
BRANCH   1   8
ATOM      4  C   UNL     1      44.903   3.564   9.699  0.00  0.00    +0.000 A 
ATOM      5  C   UNL     1      45.665   4.698   9.472  0.00  0.00    +0.000 A 
ATOM      6  C   UNL     1      45.517   5.778  10.334  0.00  0.00    +0.000 A 
ATOM      7  C   UNL     1      44.701   5.687  11.462  0.00  0.00    +0.000 A 
ATOM      8  N   UNL     1      44.666   6.681  12.449  0.00  0.00    +0.000 N 
ATOM      9  N   UNL     1      43.905   4.616  11.649  0.00  0.00    +0.000 NA
ATOM     10  C   UNL     1      43.999   3.595  10.751  0.00  0.00    +0.000 A 
ATOM     11  H   UNL     1      44.110   6.384  13.243  0.00  0.00    +0.000 HD
BRANCH   4  13
ATOM     12  N   UNL     1      46.083   2.324   7.983  0.00  0.00    +0.000 N 
ATOM     13  C   UNL     1      45.038   2.350   8.873  0.00  0.00    +0.000 C 
ATOM     14  O   UNL     1      44.291   1.398   9.028  0.00  0.00    +0.000 OA
ATOM     15  H   UNL     1      46.257   1.438   7.527  0.00  0.00    +0.000 HD
ATOM     16  H   UNL     1      46.845   2.988   8.021  0.00  0.00    +0.000 HD
ENDBRANCH   4  13
ENDBRANCH   1   8
BRANCH   1  17
ATOM     17  C   UNL     1      47.032   7.333  13.014  0.00  0.00    +0.000 A 
ATOM     18  C   UNL     1      48.149   8.168  12.858  0.00  0.00    +0.000 A 
ATOM     19  C   UNL     1      49.283   8.002  13.654  0.00  0.00    +0.000 A 
ATOM     20  C   UNL     1      49.301   7.020  14.647  0.00  0.00    +0.000 A 
ATOM     21  C   UNL     1      48.236   6.119  14.782  0.00  0.00    +0.000 A 
ATOM     22  C   UNL     1      47.179   6.219  13.861  0.00  0.00    +0.000 A 
BRANCH  21  23
ATOM     23  C   UNL     1      48.089   5.238  15.959  0.00  0.00    +0.000 A 
ATOM     24  C   UNL     1      49.023   5.203  17.002  0.00  0.00    +0.000 A 
ATOM     25  C   UNL     1      48.914   4.257  18.022  0.00  0.00    +0.000 A 
ATOM     26  C   UNL     1      47.863   3.359  17.978  0.00  0.00    +0.000 A 
ATOM     27  N   UNL     1      46.940   3.339  16.994  0.00  0.00    +0.000 NA
ATOM     28  C   UNL     1      47.074   4.276  16.022  0.00  0.00    +0.000 A 
ENDBRANCH  21  23
ENDBRANCH   1  17
TORSDOF 4
ENDMDL
MODEL 7
REMARK VINA RESULT:    -6.561      3.632      8.487
REMARK INTER + INTRA:          -8.755
REMARK INTER:                  -8.033
REMARK INTRA:                  -0.722
REMARK UNBOUND:                -0.660
REMARK  Name = 
REMARK  4 active torsions:
REMARK  status: ('A' for Active; 'I' for Inactive)
REMARK    1  A    between atoms: C_2  and  C_4
REMARK    2  A    between atoms: N_8  and  C_9
REMARK    3  A    between atoms: C_9  and  C_10
REMARK    4  A    between atoms: C_14  and  C_15
REMARK                            x       y       z     vdW  Elec       q    Type
REMARK                         _______ _______ _______ _____ _____    ______ ____
ROOT
ATOM      1  C   UNL     1      48.844   7.780  12.638  0.00  0.00    +0.000 C 
ATOM      2  C   UNL     1      49.579   8.101  11.353  0.00  0.00    +0.000 C 
ATOM      3  C   UNL     1      49.488   9.131  12.433  0.00  0.00    +0.000 C 
ENDROOT
BRANCH   1   8
ATOM      4  C   UNL     1      48.764   7.459  17.772  0.00  0.00    +0.000 A 
ATOM      5  C   UNL     1      48.375   8.474  16.916  0.00  0.00    +0.000 A 
ATOM      6  C   UNL     1      48.698   8.363  15.568  0.00  0.00    +0.000 A 
ATOM      7  C   UNL     1      49.306   7.210  15.071  0.00  0.00    +0.000 A 
ATOM      8  N   UNL     1      49.484   6.982  13.699  0.00  0.00    +0.000 N 
ATOM      9  N   UNL     1      49.751   6.252  15.908  0.00  0.00    +0.000 NA
ATOM     10  C   UNL     1      49.499   6.411  17.238  0.00  0.00    +0.000 A 
ATOM     11  H   UNL     1      49.831   6.045  13.530  0.00  0.00    +0.000 HD
BRANCH   4  13
ATOM     12  N   UNL     1      47.585   8.473  19.632  0.00  0.00    +0.000 N 
ATOM     13  C   UNL     1      48.411   7.463  19.205  0.00  0.00    +0.000 C 
ATOM     14  O   UNL     1      48.789   6.573  19.948  0.00  0.00    +0.000 OA
ATOM     15  H   UNL     1      47.231   8.388  20.576  0.00  0.00    +0.000 HD
ATOM     16  H   UNL     1      47.070   9.061  18.990  0.00  0.00    +0.000 HD
ENDBRANCH   4  13
ENDBRANCH   1   8
BRANCH   1  17
ATOM     17  C   UNL     1      47.326   7.561  12.538  0.00  0.00    +0.000 A 
ATOM     18  C   UNL     1      46.436   8.644  12.590  0.00  0.00    +0.000 A 
ATOM     19  C   UNL     1      45.151   8.543  12.053  0.00  0.00    +0.000 A 
ATOM     20  C   UNL     1      44.751   7.365  11.420  0.00  0.00    +0.000 A 
ATOM     21  C   UNL     1      45.583   6.236  11.415  0.00  0.00    +0.000 A 
ATOM     22  C   UNL     1      46.806   6.329  12.101  0.00  0.00    +0.000 A 
BRANCH  21  23
ATOM     23  C   UNL     1      45.321   5.065  10.555  0.00  0.00    +0.000 A 
ATOM     24  C   UNL     1      45.644   5.036   9.192  0.00  0.00    +0.000 A 
ATOM     25  C   UNL     1      45.252   3.964   8.391  0.00  0.00    +0.000 A 
ATOM     26  C   UNL     1      44.540   2.931   8.975  0.00  0.00    +0.000 A 
ATOM     27  N   UNL     1      44.194   2.909  10.278  0.00  0.00    +0.000 NA
ATOM     28  C   UNL     1      44.596   3.965  11.028  0.00  0.00    +0.000 A 
ENDBRANCH  21  23
ENDBRANCH   1  17
TORSDOF 4
ENDMDL
MODEL 8
REMARK VINA RESULT:    -6.545      3.430      7.106
REMARK INTER + INTRA:          -8.735
REMARK INTER:                  -8.554
REMARK INTRA:                  -0.182
REMARK UNBOUND:                -0.660
REMARK  Name = 
REMARK  4 active torsions:
REMARK  status: ('A' for Active; 'I' for Inactive)
REMARK    1  A    between atoms: C_2  and  C_4
REMARK    2  A    between atoms: N_8  and  C_9
REMARK    3  A    between atoms: C_9  and  C_10
REMARK    4  A    between atoms: C_14  and  C_15
REMARK                            x       y       z     vdW  Elec       q    Type
REMARK                         _______ _______ _______ _____ _____    ______ ____
ROOT
ATOM      1  C   UNL     1      45.664   7.563  12.668  0.00  0.00    +0.000 C 
ATOM      2  C   UNL     1      45.609   8.560  11.529  0.00  0.00    +0.000 C 
ATOM      3  C   UNL     1      44.874   8.845  12.799  0.00  0.00    +0.000 C 
ENDROOT
BRANCH   1   8
ATOM      4  C   UNL     1      50.769   8.127  12.370  0.00  0.00    +0.000 A 
ATOM      5  C   UNL     1      49.820   7.876  11.394  0.00  0.00    +0.000 A 
ATOM      6  C   UNL     1      48.524   7.572  11.794  0.00  0.00    +0.000 A 
ATOM      7  C   UNL     1      48.160   7.621  13.139  0.00  0.00    +0.000 A 
ATOM      8  N   UNL     1      46.831   7.501  13.566  0.00  0.00    +0.000 N 
ATOM      9  N   UNL     1      49.092   7.794  14.097  0.00  0.00    +0.000 NA
ATOM     10  C   UNL     1      50.376   8.011  13.696  0.00  0.00    +0.000 A 
ATOM     11  H   UNL     1      46.751   7.681  14.560  0.00  0.00    +0.000 HD
BRANCH   4  13
ATOM     12  N   UNL     1      52.986   7.518  11.600  0.00  0.00    +0.000 N 
ATOM     13  C   UNL     1      52.152   8.517  12.038  0.00  0.00    +0.000 C 
ATOM     14  O   UNL     1      52.507   9.683  12.094  0.00  0.00    +0.000 OA
ATOM     15  H   UNL     1      53.882   7.814  11.238  0.00  0.00    +0.000 HD
ATOM     16  H   UNL     1      52.642   6.612  11.314  0.00  0.00    +0.000 HD
ENDBRANCH   4  13
ENDBRANCH   1   8
BRANCH   1  17
ATOM     17  C   UNL     1      44.998   6.198  12.432  0.00  0.00    +0.000 A 
ATOM     18  C   UNL     1      43.696   5.943  12.888  0.00  0.00    +0.000 A 
ATOM     19  C   UNL     1      42.918   4.937  12.311  0.00  0.00    +0.000 A 
ATOM     20  C   UNL     1      43.421   4.196  11.240  0.00  0.00    +0.000 A 
ATOM     21  C   UNL     1      44.743   4.369  10.807  0.00  0.00    +0.000 A 
ATOM     22  C   UNL     1      45.544   5.282  11.514  0.00  0.00    +0.000 A 
BRANCH  21  23
ATOM     23  C   UNL     1      45.240   3.804   9.536  0.00  0.00    +0.000 A 
ATOM     24  C   UNL     1      45.321   2.426   9.298  0.00  0.00    +0.000 A 
ATOM     25  C   UNL     1      45.926   1.939   8.139  0.00  0.00    +0.000 A 
ATOM     26  C   UNL     1      46.440   2.849   7.232  0.00  0.00    +0.000 A 
ATOM     27  N   UNL     1      46.398   4.185   7.412  0.00  0.00    +0.000 NA
ATOM     28  C   UNL     1      45.799   4.623   8.548  0.00  0.00    +0.000 A 
ENDBRANCH  21  23
ENDBRANCH   1  17
TORSDOF 4
ENDMDL
MODEL 9
REMARK VINA RESULT:    -6.308      3.716      7.780
REMARK INTER + INTRA:          -8.443
REMARK INTER:                  -7.348
REMARK INTRA:                  -1.096
REMARK UNBOUND:                -0.660
REMARK  Name = 
REMARK  4 active torsions:
REMARK  status: ('A' for Active; 'I' for Inactive)
REMARK    1  A    between atoms: C_2  and  C_4
REMARK    2  A    between atoms: N_8  and  C_9
REMARK    3  A    between atoms: C_9  and  C_10
REMARK    4  A    between atoms: C_14  and  C_15
REMARK                            x       y       z     vdW  Elec       q    Type
REMARK                         _______ _______ _______ _____ _____    ______ ____
ROOT
ATOM      1  C   UNL     1      49.114   8.869  16.144  0.00  0.00    +0.000 C 
ATOM      2  C   UNL     1      48.819  10.271  16.633  0.00  0.00    +0.000 C 
ATOM      3  C   UNL     1      47.916   9.145  17.023  0.00  0.00    +0.000 C 
ENDROOT
BRANCH   1   8
ATOM      4  C   UNL     1      49.987   3.886  17.083  0.00  0.00    +0.000 A 
ATOM      5  C   UNL     1      48.824   4.564  16.760  0.00  0.00    +0.000 A 
ATOM      6  C   UNL     1      48.847   5.954  16.757  0.00  0.00    +0.000 A 
ATOM      7  C   UNL     1      50.036   6.650  16.971  0.00  0.00    +0.000 A 
ATOM      8  N   UNL     1      50.140   8.037  16.797  0.00  0.00    +0.000 N 
ATOM      9  N   UNL     1      51.153   6.001  17.355  0.00  0.00    +0.000 NA
ATOM     10  C   UNL     1      51.097   4.642  17.433  0.00  0.00    +0.000 A 
ATOM     11  H   UNL     1      51.103   8.342  16.881  0.00  0.00    +0.000 HD
BRANCH   4  13
ATOM     12  N   UNL     1      50.878   1.824  17.994  0.00  0.00    +0.000 N 
ATOM     13  C   UNL     1      50.072   2.414  17.052  0.00  0.00    +0.000 C 
ATOM     14  O   UNL     1      49.407   1.763  16.264  0.00  0.00    +0.000 OA
ATOM     15  H   UNL     1      50.818   0.816  18.061  0.00  0.00    +0.000 HD
ATOM     16  H   UNL     1      51.230   2.326  18.798  0.00  0.00    +0.000 HD
ENDBRANCH   4  13
ENDBRANCH   1   8
BRANCH   1  17
ATOM     17  C   UNL     1      48.993   8.617  14.632  0.00  0.00    +0.000 A 
ATOM     18  C   UNL     1      50.098   8.777  13.784  0.00  0.00    +0.000 A 
ATOM     19  C   UNL     1      50.151   8.134  12.546  0.00  0.00    +0.000 A 
ATOM     20  C   UNL     1      49.111   7.288  12.155  0.00  0.00    +0.000 A 
ATOM     21  C   UNL     1      47.957   7.163  12.940  0.00  0.00    +0.000 A 
ATOM     22  C   UNL     1      47.875   7.946  14.104  0.00  0.00    +0.000 A 
BRANCH  21  23
ATOM     23  C   UNL     1      46.953   6.104  12.707  0.00  0.00    +0.000 A 
ATOM     24  C   UNL     1      46.098   6.099  11.598  0.00  0.00    +0.000 A 
ATOM     25  C   UNL     1      45.075   5.157  11.493  0.00  0.00    +0.000 A 
ATOM     26  C   UNL     1      44.927   4.229  12.509  0.00  0.00    +0.000 A 
ATOM     27  N   UNL     1      45.714   4.192  13.604  0.00  0.00    +0.000 NA
ATOM     28  C   UNL     1      46.701   5.119  13.670  0.00  0.00    +0.000 A 
ENDBRANCH  21  23
ENDBRANCH   1  17
TORSDOF 4
ENDMDL
