MODEL 1
REMARK VINA RESULT:    -9.074      0.000      0.000
REMARK INTER + INTRA:         -11.898
REMARK INTER:                 -11.196
REMARK INTRA:                  -0.702
REMARK UNBOUND:                -0.702
REMARK  Name = 
REMARK  4 active torsions:
REMARK  status: ('A' for Active; 'I' for Inactive)
REMARK    1  A    between atoms: C_2  and  C_4
REMARK    2  A    between atoms: N_8  and  C_9
REMARK    3  A    between atoms: C_9  and  C_10
REMARK    4  A    between atoms: C_14  and  C_15
REMARK                            x       y       z     vdW  Elec       q    Type
REMARK                         _______ _______ _______ _____ _____    ______ ____
ROOT
ATOM      1  C   UNL     1      46.405   2.320   7.741  0.00  0.00    +0.000 A 
ATOM      2  C   UNL     1      45.528   1.881   8.701  0.00  0.00    +0.000 A 
ATOM      3  N   UNL     1      44.678   2.696   9.356  0.00  0.00    +0.000 NA
ATOM      4  C   UNL     1      44.713   4.003   9.049  0.00  0.00    +0.000 A 
ATOM      5  N   UNL     1      43.810   4.870   9.629  0.00  0.00    +0.000 N 
ATOM      6  N   UNL     1      45.555   4.531   8.150  0.00  0.00    +0.000 NA
ATOM      7  C   UNL     1      46.394   3.676   7.517  0.00  0.00    +0.000 A 
ATOM      8  H   UNL     1      44.113   5.818   9.440  0.00  0.00    +0.000 HD
ENDROOT
BRANCH   1  10
ATOM      9  N   UNL     1      48.432   2.000   6.448  0.00  0.00    +0.000 N 
ATOM     10  C   UNL     1      47.319   1.436   7.010  0.00  0.00    +0.000 C 
ATOM     11  O   UNL     1      47.109   0.232   6.934  0.00  0.00    +0.000 OA
ATOM     12  H   UNL     1      49.100   1.356   6.036  0.00  0.00    +0.000 HD
ATOM     13  H   UNL     1      48.776   2.916   6.695  0.00  0.00    +0.000 HD
ENDBRANCH   1  10
BRANCH   5  14
ATOM     14  C   UNL     1      43.492   4.598  11.015  0.00  0.00    +0.000 C 
BRANCH  14  15
ATOM     15  C   UNL     1      44.666   4.971  11.890  0.00  0.00    +0.000 A 
ATOM     16  C   UNL     1      45.256   4.004  12.717  0.00  0.00    +0.000 A 
ATOM     17  C   UNL     1      46.383   4.311  13.469  0.00  0.00    +0.000 A 
ATOM     18  C   UNL     1      46.960   5.577  13.366  0.00  0.00    +0.000 A 
ATOM     19  C   UNL     1      46.435   6.556  12.501  0.00  0.00    +0.000 A 
ATOM     20  C   UNL     1      45.253   6.242  11.803  0.00  0.00    +0.000 A 
BRANCH  19  21
ATOM     21  C   UNL     1      47.145   7.827  12.249  0.00  0.00    +0.000 A 
ATOM     22  C   UNL     1      48.494   7.851  11.886  0.00  0.00    +0.000 A 
ATOM     23  C   UNL     1      49.095   9.062  11.554  0.00  0.00    +0.000 A 
ATOM     24  C   UNL     1      48.343  10.226  11.594  0.00  0.00    +0.000 A 
ATOM     25  C   UNL     1      47.014  10.125  11.972  0.00  0.00    +0.000 A 
ATOM     26  N   UNL     1      46.402   8.961  12.290  0.00  0.00    +0.000 NA
ENDBRANCH  19  21
ENDBRANCH  14  15
ENDBRANCH   5  14
TORSDOF 4
ENDMDL
MODEL 2
REMARK VINA RESULT:    -8.916      2.058      3.699
REMARK INTER + INTRA:         -11.703
REMARK INTER:                 -11.008
REMARK INTRA:                  -0.695
REMARK UNBOUND:                -0.702
REMARK  Name = 
REMARK  4 active torsions:
REMARK  status: ('A' for Active; 'I' for Inactive)
REMARK    1  A    between atoms: C_2  and  C_4
REMARK    2  A    between atoms: N_8  and  C_9
REMARK    3  A    between atoms: C_9  and  C_10
REMARK    4  A    between atoms: C_14  and  C_15
REMARK                            x       y       z     vdW  Elec       q    Type
REMARK                         _______ _______ _______ _____ _____    ______ ____
ROOT
ATOM      1  C   UNL     1      46.400   2.317   7.652  0.00  0.00    +0.000 A 
ATOM      2  C   UNL     1      45.711   1.876   8.753  0.00  0.00    +0.000 A 
ATOM      3  N   UNL     1      44.912   2.669   9.495  0.00  0.00    +0.000 NA
ATOM      4  C   UNL     1      44.808   3.957   9.129  0.00  0.00    +0.000 A 
ATOM      5  N   UNL     1      43.944   4.795   9.804  0.00  0.00    +0.000 N 
ATOM      6  N   UNL     1      45.466   4.489   8.090  0.00  0.00    +0.000 NA
ATOM      7  C   UNL     1      46.260   3.656   7.374  0.00  0.00    +0.000 A 
ATOM      8  H   UNL     1      44.147   5.749   9.529  0.00  0.00    +0.000 HD
ENDROOT
BRANCH   1  10
ATOM      9  N   UNL     1      48.303   2.041   6.174  0.00  0.00    +0.000 N 
ATOM     10  C   UNL     1      47.255   1.454   6.829  0.00  0.00    +0.000 C 
ATOM     11  O   UNL     1      47.054   0.248   6.758  0.00  0.00    +0.000 OA
ATOM     12  H   UNL     1      48.938   1.411   5.694  0.00  0.00    +0.000 HD
ATOM     13  H   UNL     1      48.657   2.959   6.400  0.00  0.00    +0.000 HD
ENDBRANCH   1  10
BRANCH   5  14
ATOM     14  C   UNL     1      43.857   4.579  11.232  0.00  0.00    +0.000 C 
BRANCH  14  15
ATOM     15  C   UNL     1      45.033   5.232  11.919  0.00  0.00    +0.000 A 
ATOM     16  C   UNL     1      45.355   6.567  11.634  0.00  0.00    +0.000 A 
ATOM     17  C   UNL     1      46.386   7.206  12.313  0.00  0.00    +0.000 A 
ATOM     18  C   UNL     1      47.076   6.528  13.319  0.00  0.00    +0.000 A 
ATOM     19  C   UNL     1      46.742   5.208  13.678  0.00  0.00    +0.000 A 
ATOM     20  C   UNL     1      45.742   4.562  12.927  0.00  0.00    +0.000 A 
BRANCH  19  21
ATOM     21  C   UNL     1      47.341   4.553  14.859  0.00  0.00    +0.000 A 
ATOM     22  C   UNL     1      47.593   5.260  16.038  0.00  0.00    +0.000 A 
ATOM     23  C   UNL     1      48.058   4.582  17.160  0.00  0.00    +0.000 A 
ATOM     24  C   UNL     1      48.267   3.213  17.087  0.00  0.00    +0.000 A 
ATOM     25  C   UNL     1      48.004   2.581  15.884  0.00  0.00    +0.000 A 
ATOM     26  N   UNL     1      47.543   3.215  14.779  0.00  0.00    +0.000 NA
ENDBRANCH  19  21
ENDBRANCH  14  15
ENDBRANCH   5  14
TORSDOF 4
ENDMDL
MODEL 3
REMARK VINA RESULT:    -7.627      2.777      6.755
REMARK INTER + INTRA:         -10.113
REMARK INTER:                  -9.371
REMARK INTRA:                  -0.742
REMARK UNBOUND:                -0.702
REMARK  Name = 
REMARK  4 active torsions:
REMARK  status: ('A' for Active; 'I' for Inactive)
REMARK    1  A    between atoms: C_2  and  C_4
REMARK    2  A    between atoms: N_8  and  C_9
REMARK    3  A    between atoms: C_9  and  C_10
REMARK    4  A    between atoms: C_14  and  C_15
REMARK                            x       y       z     vdW  Elec       q    Type
REMARK                         _______ _______ _______ _____ _____    ______ ____
ROOT
ATOM      1  C   UNL     1      48.957   7.543  12.734  0.00  0.00    +0.000 A 
ATOM      2  C   UNL     1      48.059   7.993  11.800  0.00  0.00    +0.000 A 
ATOM      3  N   UNL     1      46.742   7.705  11.838  0.00  0.00    +0.000 NA
ATOM      4  C   UNL     1      46.308   6.927  12.843  0.00  0.00    +0.000 A 
ATOM      5  N   UNL     1      44.960   6.667  12.976  0.00  0.00    +0.000 N 
ATOM      6  N   UNL     1      47.112   6.414  13.784  0.00  0.00    +0.000 NA
ATOM      7  C   UNL     1      48.428   6.726  13.706  0.00  0.00    +0.000 A 
ATOM      8  H   UNL     1      44.846   5.917  13.649  0.00  0.00    +0.000 HD
ENDROOT
BRANCH   1  10
ATOM      9  N   UNL     1      51.081   7.760  13.884  0.00  0.00    +0.000 N 
ATOM     10  C   UNL     1      50.387   7.869  12.710  0.00  0.00    +0.000 C 
ATOM     11  O   UNL     1      50.944   8.195  11.670  0.00  0.00    +0.000 OA
ATOM     12  H   UNL     1      52.086   7.891  13.823  0.00  0.00    +0.000 HD
ATOM     13  H   UNL     1      50.737   7.259  14.690  0.00  0.00    +0.000 HD
ENDBRANCH   1  10
BRANCH   5  14
ATOM     14  C   UNL     1      44.236   6.487  11.736  0.00  0.00    +0.000 C 
BRANCH  14  15
ATOM     15  C   UNL     1      44.234   5.025  11.355  0.00  0.00    +0.000 A 
ATOM     16  C   UNL     1      43.342   4.141  11.981  0.00  0.00    +0.000 A 
ATOM     17  C   UNL     1      43.275   2.810  11.589  0.00  0.00    +0.000 A 
ATOM     18  C   UNL     1      44.067   2.359  10.532  0.00  0.00    +0.000 A 
ATOM     19  C   UNL     1      44.928   3.228   9.837  0.00  0.00    +0.000 A 
ATOM     20  C   UNL     1      45.029   4.554  10.300  0.00  0.00    +0.000 A 
BRANCH  19  21
ATOM     21  C   UNL     1      45.627   2.804   8.606  0.00  0.00    +0.000 A 
ATOM     22  C   UNL     1      45.949   3.715   7.597  0.00  0.00    +0.000 A 
ATOM     23  C   UNL     1      46.700   3.294   6.504  0.00  0.00    +0.000 A 
ATOM     24  C   UNL     1      47.113   1.972   6.434  0.00  0.00    +0.000 A 
ATOM     25  C   UNL     1      46.749   1.124   7.467  0.00  0.00    +0.000 A 
ATOM     26  N   UNL     1      46.027   1.510   8.545  0.00  0.00    +0.000 NA
ENDBRANCH  19  21
ENDBRANCH  14  15
ENDBRANCH   5  14
TORSDOF 4
ENDMDL
MODEL 4
REMARK VINA RESULT:    -7.546      4.392      7.900
REMARK INTER + INTRA:         -10.013
REMARK INTER:                  -9.503
REMARK INTRA:                  -0.510
REMARK UNBOUND:                -0.702
REMARK  Name = 
REMARK  4 active torsions:
REMARK  status: ('A' for Active; 'I' for Inactive)
REMARK    1  A    between atoms: C_2  and  C_4
REMARK    2  A    between atoms: N_8  and  C_9
REMARK    3  A    between atoms: C_9  and  C_10
REMARK    4  A    between atoms: C_14  and  C_15
REMARK                            x       y       z     vdW  Elec       q    Type
REMARK                         _______ _______ _______ _____ _____    ______ ____
ROOT
ATOM      1  C   UNL     1      48.526   4.348  17.276  0.00  0.00    +0.000 A 
ATOM      2  C   UNL     1      47.790   3.281  16.825  0.00  0.00    +0.000 A 
ATOM      3  N   UNL     1      47.154   3.268  15.637  0.00  0.00    +0.000 NA
ATOM      4  C   UNL     1      47.247   4.369  14.873  0.00  0.00    +0.000 A 
ATOM      5  N   UNL     1      46.684   4.380  13.614  0.00  0.00    +0.000 N 
ATOM      6  N   UNL     1      47.914   5.471  15.240  0.00  0.00    +0.000 NA
ATOM      7  C   UNL     1      48.536   5.442  16.444  0.00  0.00    +0.000 A 
ATOM      8  H   UNL     1      46.676   5.337  13.278  0.00  0.00    +0.000 HD
ENDROOT
BRANCH   1  10
ATOM      9  N   UNL     1      48.651   3.714  19.613  0.00  0.00    +0.000 N 
ATOM     10  C   UNL     1      49.236   4.362  18.559  0.00  0.00    +0.000 C 
ATOM     11  O   UNL     1      50.327   4.906  18.673  0.00  0.00    +0.000 OA
ATOM     12  H   UNL     1      49.206   3.650  20.461  0.00  0.00    +0.000 HD
ATOM     13  H   UNL     1      47.900   3.048  19.510  0.00  0.00    +0.000 HD
ENDBRANCH   1  10
BRANCH   5  14
ATOM     14  C   UNL     1      45.422   3.682  13.491  0.00  0.00    +0.000 C 
BRANCH  14  15
ATOM     15  C   UNL     1      44.860   3.885  12.103  0.00  0.00    +0.000 A 
ATOM     16  C   UNL     1      43.903   4.884  11.876  0.00  0.00    +0.000 A 
ATOM     17  C   UNL     1      43.434   5.133  10.592  0.00  0.00    +0.000 A 
ATOM     18  C   UNL     1      43.953   4.416   9.513  0.00  0.00    +0.000 A 
ATOM     19  C   UNL     1      44.960   3.448   9.692  0.00  0.00    +0.000 A 
ATOM     20  C   UNL     1      45.367   3.166  11.010  0.00  0.00    +0.000 A 
BRANCH  19  21
ATOM     21  C   UNL     1      45.642   2.821   8.541  0.00  0.00    +0.000 A 
ATOM     22  C   UNL     1      46.003   3.561   7.413  0.00  0.00    +0.000 A 
ATOM     23  C   UNL     1      46.738   2.955   6.399  0.00  0.00    +0.000 A 
ATOM     24  C   UNL     1      47.096   1.621   6.525  0.00  0.00    +0.000 A 
ATOM     25  C   UNL     1      46.695   0.948   7.667  0.00  0.00    +0.000 A 
ATOM     26  N   UNL     1      45.988   1.516   8.673  0.00  0.00    +0.000 NA
ENDBRANCH  19  21
ENDBRANCH  14  15
ENDBRANCH   5  14
TORSDOF 4
ENDMDL
MODEL 5
REMARK VINA RESULT:    -7.459      2.945      6.929
REMARK INTER + INTRA:          -9.905
REMARK INTER:                  -9.732
REMARK INTRA:                  -0.173
REMARK UNBOUND:                -0.702
REMARK  Name = 
REMARK  4 active torsions:
REMARK  status: ('A' for Active; 'I' for Inactive)
REMARK    1  A    between atoms: C_2  and  C_4
REMARK    2  A    between atoms: N_8  and  C_9
REMARK    3  A    between atoms: C_9  and  C_10
REMARK    4  A    between atoms: C_14  and  C_15
REMARK                            x       y       z     vdW  Elec       q    Type
REMARK                         _______ _______ _______ _____ _____    ______ ____
ROOT
ATOM      1  C   UNL     1      47.928   6.872  14.082  0.00  0.00    +0.000 A 
ATOM      2  C   UNL     1      47.057   5.841  13.832  0.00  0.00    +0.000 A 
ATOM      3  N   UNL     1      46.130   5.875  12.854  0.00  0.00    +0.000 NA
ATOM      4  C   UNL     1      46.062   6.986  12.103  0.00  0.00    +0.000 A 
ATOM      5  N   UNL     1      45.188   7.044  11.038  0.00  0.00    +0.000 N 
ATOM      6  N   UNL     1      46.847   8.056  12.290  0.00  0.00    +0.000 NA
ATOM      7  C   UNL     1      47.762   7.981  13.287  0.00  0.00    +0.000 A 
ATOM      8  H   UNL     1      45.131   8.007  10.725  0.00  0.00    +0.000 HD
ENDROOT
BRANCH   1  10
ATOM      9  N   UNL     1      48.535   6.604  16.414  0.00  0.00    +0.000 N 
ATOM     10  C   UNL     1      48.952   6.833  15.131  0.00  0.00    +0.000 C 
ATOM     11  O   UNL     1      50.139   6.970  14.862  0.00  0.00    +0.000 OA
ATOM     12  H   UNL     1      49.268   6.481  17.107  0.00  0.00    +0.000 HD
ATOM     13  H   UNL     1      47.624   6.237  16.646  0.00  0.00    +0.000 HD
ENDBRANCH   1  10
BRANCH   5  14
ATOM     14  C   UNL     1      43.911   6.395  11.247  0.00  0.00    +0.000 C 
BRANCH  14  15
ATOM     15  C   UNL     1      44.040   4.915  10.973  0.00  0.00    +0.000 A 
ATOM     16  C   UNL     1      43.222   4.004  11.656  0.00  0.00    +0.000 A 
ATOM     17  C   UNL     1      43.275   2.647  11.360  0.00  0.00    +0.000 A 
ATOM     18  C   UNL     1      44.115   2.193  10.343  0.00  0.00    +0.000 A 
ATOM     19  C   UNL     1      44.906   3.083   9.592  0.00  0.00    +0.000 A 
ATOM     20  C   UNL     1      44.886   4.442   9.958  0.00  0.00    +0.000 A 
BRANCH  19  21
ATOM     21  C   UNL     1      45.653   2.635   8.398  0.00  0.00    +0.000 A 
ATOM     22  C   UNL     1      45.931   3.504   7.341  0.00  0.00    +0.000 A 
ATOM     23  C   UNL     1      46.727   3.072   6.285  0.00  0.00    +0.000 A 
ATOM     24  C   UNL     1      47.229   1.779   6.301  0.00  0.00    +0.000 A 
ATOM     25  C   UNL     1      46.905   0.971   7.377  0.00  0.00    +0.000 A 
ATOM     26  N   UNL     1      46.140   1.370   8.421  0.00  0.00    +0.000 NA
ENDBRANCH  19  21
ENDBRANCH  14  15
ENDBRANCH   5  14
TORSDOF 4
ENDMDL
MODEL 6
REMARK VINA RESULT:    -7.334      1.833      2.445
REMARK INTER + INTRA:          -9.751
REMARK INTER:                  -9.347
REMARK INTRA:                  -0.404
REMARK UNBOUND:                -0.702
REMARK  Name = 
REMARK  4 active torsions:
REMARK  status: ('A' for Active; 'I' for Inactive)
REMARK    1  A    between atoms: C_2  and  C_4
REMARK    2  A    between atoms: N_8  and  C_9
REMARK    3  A    between atoms: C_9  and  C_10
REMARK    4  A    between atoms: C_14  and  C_15
REMARK                            x       y       z     vdW  Elec       q    Type
REMARK                         _______ _______ _______ _____ _____    ______ ____
ROOT
ATOM      1  C   UNL     1      46.514   2.832   7.333  0.00  0.00    +0.000 A 
ATOM      2  C   UNL     1      46.227   4.018   7.963  0.00  0.00    +0.000 A 
ATOM      3  N   UNL     1      45.511   4.098   9.102  0.00  0.00    +0.000 NA
ATOM      4  C   UNL     1      45.053   2.949   9.627  0.00  0.00    +0.000 A 
ATOM      5  N   UNL     1      44.384   2.965  10.833  0.00  0.00    +0.000 N 
ATOM      6  N   UNL     1      45.254   1.747   9.070  0.00  0.00    +0.000 NA
ATOM      7  C   UNL     1      45.976   1.714   7.924  0.00  0.00    +0.000 A 
ATOM      8  H   UNL     1      43.947   2.059  10.965  0.00  0.00    +0.000 HD
ENDROOT
BRANCH   1  10
ATOM      9  N   UNL     1      48.639   2.438   6.233  0.00  0.00    +0.000 N 
ATOM     10  C   UNL     1      47.310   2.736   6.105  0.00  0.00    +0.000 C 
ATOM     11  O   UNL     1      46.794   2.887   5.004  0.00  0.00    +0.000 OA
ATOM     12  H   UNL     1      49.146   2.277   5.368  0.00  0.00    +0.000 HD
ATOM     13  H   UNL     1      49.046   2.059   7.075  0.00  0.00    +0.000 HD
ENDBRANCH   1  10
BRANCH   5  14
ATOM     14  C   UNL     1      43.510   4.099  11.045  0.00  0.00    +0.000 C 
BRANCH  14  15
ATOM     15  C   UNL     1      44.262   5.195  11.763  0.00  0.00    +0.000 A 
ATOM     16  C   UNL     1      45.299   4.866  12.649  0.00  0.00    +0.000 A 
ATOM     17  C   UNL     1      46.050   5.863  13.259  0.00  0.00    +0.000 A 
ATOM     18  C   UNL     1      45.803   7.201  12.953  0.00  0.00    +0.000 A 
ATOM     19  C   UNL     1      44.814   7.571  12.021  0.00  0.00    +0.000 A 
ATOM     20  C   UNL     1      44.021   6.546  11.471  0.00  0.00    +0.000 A 
BRANCH  19  21
ATOM     21  C   UNL     1      44.673   8.966  11.555  0.00  0.00    +0.000 A 
ATOM     22  C   UNL     1      45.613   9.945  11.884  0.00  0.00    +0.000 A 
ATOM     23  C   UNL     1      45.499  11.219  11.337  0.00  0.00    +0.000 A 
ATOM     24  C   UNL     1      44.449  11.496  10.475  0.00  0.00    +0.000 A 
ATOM     25  C   UNL     1      43.550  10.478  10.202  0.00  0.00    +0.000 A 
ATOM     26  N   UNL     1      43.642   9.228  10.713  0.00  0.00    +0.000 NA
ENDBRANCH  19  21
ENDBRANCH  14  15
ENDBRANCH   5  14
TORSDOF 4
ENDMDL
MODEL 7
REMARK VINA RESULT:    -6.962      5.308      7.950
REMARK INTER + INTRA:          -9.292
REMARK INTER:                  -8.629
REMARK INTRA:                  -0.663
REMARK UNBOUND:                -0.702
REMARK  Name = 
REMARK  4 active torsions:
REMARK  status: ('A' for Active; 'I' for Inactive)
REMARK    1  A    between atoms: C_2  and  C_4
REMARK    2  A    between atoms: N_8  and  C_9
REMARK    3  A    between atoms: C_9  and  C_10
REMARK    4  A    between atoms: C_14  and  C_15
REMARK                            x       y       z     vdW  Elec       q    Type
REMARK                         _______ _______ _______ _____ _____    ______ ____
ROOT
ATOM      1  C   UNL     1      50.940   2.487  17.363  0.00  0.00    +0.000 A 
ATOM      2  C   UNL     1      51.139   3.843  17.433  0.00  0.00    +0.000 A 
ATOM      3  N   UNL     1      50.215   4.748  17.054  0.00  0.00    +0.000 NA
ATOM      4  C   UNL     1      49.051   4.281  16.575  0.00  0.00    +0.000 A 
ATOM      5  N   UNL     1      48.040   5.161  16.248  0.00  0.00    +0.000 N 
ATOM      6  N   UNL     1      48.776   2.977  16.437  0.00  0.00    +0.000 NA
ATOM      7  C   UNL     1      49.734   2.102  16.828  0.00  0.00    +0.000 A 
ATOM      8  H   UNL     1      47.335   4.655  15.724  0.00  0.00    +0.000 HD
ENDROOT
BRANCH   1  10
ATOM      9  N   UNL     1      51.477   0.256  18.145  0.00  0.00    +0.000 N 
ATOM     10  C   UNL     1      51.933   1.496  17.792  0.00  0.00    +0.000 C 
ATOM     11  O   UNL     1      53.128   1.762  17.802  0.00  0.00    +0.000 OA
ATOM     12  H   UNL     1      52.189  -0.443  18.341  0.00  0.00    +0.000 HD
ATOM     13  H   UNL     1      50.557  -0.086  17.914  0.00  0.00    +0.000 HD
ENDBRANCH   1  10
BRANCH   5  14
ATOM     14  C   UNL     1      48.471   6.405  15.643  0.00  0.00    +0.000 C 
BRANCH  14  15
ATOM     15  C   UNL     1      47.917   6.508  14.242  0.00  0.00    +0.000 A 
ATOM     16  C   UNL     1      48.612   7.241  13.268  0.00  0.00    +0.000 A 
ATOM     17  C   UNL     1      48.155   7.283  11.957  0.00  0.00    +0.000 A 
ATOM     18  C   UNL     1      47.023   6.552  11.594  0.00  0.00    +0.000 A 
ATOM     19  C   UNL     1      46.334   5.754  12.527  0.00  0.00    +0.000 A 
ATOM     20  C   UNL     1      46.776   5.785  13.863  0.00  0.00    +0.000 A 
BRANCH  19  21
ATOM     21  C   UNL     1      45.253   4.837  12.111  0.00  0.00    +0.000 A 
ATOM     22  C   UNL     1      44.973   4.601  10.763  0.00  0.00    +0.000 A 
ATOM     23  C   UNL     1      44.018   3.651  10.415  0.00  0.00    +0.000 A 
ATOM     24  C   UNL     1      43.356   2.956  11.416  0.00  0.00    +0.000 A 
ATOM     25  C   UNL     1      43.679   3.250  12.730  0.00  0.00    +0.000 A 
ATOM     26  N   UNL     1      44.610   4.163  13.096  0.00  0.00    +0.000 NA
ENDBRANCH  19  21
ENDBRANCH  14  15
ENDBRANCH   5  14
TORSDOF 4
ENDMDL
MODEL 8
REMARK VINA RESULT:    -6.747      3.153      7.078
REMARK INTER + INTRA:          -9.027
REMARK INTER:                  -8.403
REMARK INTRA:                  -0.624
REMARK UNBOUND:                -0.702
REMARK  Name = 
REMARK  4 active torsions:
REMARK  status: ('A' for Active; 'I' for Inactive)
REMARK    1  A    between atoms: C_2  and  C_4
REMARK    2  A    between atoms: N_8  and  C_9
REMARK    3  A    between atoms: C_9  and  C_10
REMARK    4  A    between atoms: C_14  and  C_15
REMARK                            x       y       z     vdW  Elec       q    Type
REMARK                         _______ _______ _______ _____ _____    ______ ____
ROOT
ATOM      1  C   UNL     1      49.784   8.538  12.948  0.00  0.00    +0.000 A 
ATOM      2  C   UNL     1      48.898   9.161  12.106  0.00  0.00    +0.000 A 
ATOM      3  N   UNL     1      47.578   8.886  12.083  0.00  0.00    +0.000 NA
ATOM      4  C   UNL     1      47.128   7.943  12.927  0.00  0.00    +0.000 A 
ATOM      5  N   UNL     1      45.776   7.679  13.003  0.00  0.00    +0.000 N 
ATOM      6  N   UNL     1      47.919   7.258  13.763  0.00  0.00    +0.000 NA
ATOM      7  C   UNL     1      49.239   7.564  13.751  0.00  0.00    +0.000 A 
ATOM      8  H   UNL     1      45.650   6.820  13.527  0.00  0.00    +0.000 HD
ENDROOT
BRANCH   1  10
ATOM      9  N   UNL     1      52.084   7.893  12.534  0.00  0.00    +0.000 N 
ATOM     10  C   UNL     1      51.217   8.847  12.992  0.00  0.00    +0.000 C 
ATOM     11  O   UNL     1      51.619   9.931  13.395  0.00  0.00    +0.000 OA
ATOM     12  H   UNL     1      53.061   8.166  12.479  0.00  0.00    +0.000 HD
ATOM     13  H   UNL     1      51.800   7.108  11.967  0.00  0.00    +0.000 HD
ENDBRANCH   1  10
BRANCH   5  14
ATOM     14  C   UNL     1      45.061   7.736  11.746  0.00  0.00    +0.000 C 
BRANCH  14  15
ATOM     15  C   UNL     1      44.596   6.351  11.361  0.00  0.00    +0.000 A 
ATOM     16  C   UNL     1      43.327   5.904  11.756  0.00  0.00    +0.000 A 
ATOM     17  C   UNL     1      42.855   4.664  11.346  0.00  0.00    +0.000 A 
ATOM     18  C   UNL     1      43.630   3.875  10.495  0.00  0.00    +0.000 A 
ATOM     19  C   UNL     1      44.882   4.314  10.025  0.00  0.00    +0.000 A 
ATOM     20  C   UNL     1      45.367   5.543  10.511  0.00  0.00    +0.000 A 
BRANCH  19  21
ATOM     21  C   UNL     1      45.621   3.571   8.983  0.00  0.00    +0.000 A 
ATOM     22  C   UNL     1      45.706   2.177   9.000  0.00  0.00    +0.000 A 
ATOM     23  C   UNL     1      46.320   1.512   7.944  0.00  0.00    +0.000 A 
ATOM     24  C   UNL     1      46.842   2.248   6.891  0.00  0.00    +0.000 A 
ATOM     25  C   UNL     1      46.729   3.627   6.946  0.00  0.00    +0.000 A 
ATOM     26  N   UNL     1      46.129   4.299   7.957  0.00  0.00    +0.000 NA
ENDBRANCH  19  21
ENDBRANCH  14  15
ENDBRANCH   5  14
TORSDOF 4
ENDMDL
MODEL 9
REMARK VINA RESULT:    -6.669      2.996      6.958
REMARK INTER + INTRA:          -8.931
REMARK INTER:                  -8.265
REMARK INTRA:                  -0.666
REMARK UNBOUND:                -0.702
REMARK  Name = 
REMARK  4 active torsions:
REMARK  status: ('A' for Active; 'I' for Inactive)
REMARK    1  A    between atoms: C_2  and  C_4
REMARK    2  A    between atoms: N_8  and  C_9
REMARK    3  A    between atoms: C_9  and  C_10
REMARK    4  A    between atoms: C_14  and  C_15
REMARK                            x       y       z     vdW  Elec       q    Type
REMARK                         _______ _______ _______ _____ _____    ______ ____
ROOT
ATOM      1  C   UNL     1      47.677   9.027  12.273  0.00  0.00    +0.000 A 
ATOM      2  C   UNL     1      46.698   8.682  13.171  0.00  0.00    +0.000 A 
ATOM      3  N   UNL     1      46.464   7.413  13.562  0.00  0.00    +0.000 NA
ATOM      4  C   UNL     1      47.231   6.450  13.026  0.00  0.00    +0.000 A 
ATOM      5  N   UNL     1      47.089   5.144  13.450  0.00  0.00    +0.000 N 
ATOM      6  N   UNL     1      48.189   6.682  12.120  0.00  0.00    +0.000 NA
ATOM      7  C   UNL     1      48.389   7.972  11.753  0.00  0.00    +0.000 A 
ATOM      8  H   UNL     1      47.592   4.545  12.806  0.00  0.00    +0.000 HD
ENDROOT
BRANCH   1  10
ATOM      9  N   UNL     1      49.131  10.652  11.214  0.00  0.00    +0.000 N 
ATOM     10  C   UNL     1      47.950  10.407  11.859  0.00  0.00    +0.000 C 
ATOM     11  O   UNL     1      47.135  11.300  12.056  0.00  0.00    +0.000 OA
ATOM     12  H   UNL     1      49.254  11.591  10.847  0.00  0.00    +0.000 HD
ATOM     13  H   UNL     1      49.705   9.928  10.807  0.00  0.00    +0.000 HD
ENDBRANCH   1  10
BRANCH   5  14
ATOM     14  C   UNL     1      45.732   4.728  13.736  0.00  0.00    +0.000 C 
BRANCH  14  15
ATOM     15  C   UNL     1      44.956   4.601  12.446  0.00  0.00    +0.000 A 
ATOM     16  C   UNL     1      43.776   5.337  12.264  0.00  0.00    +0.000 A 
ATOM     17  C   UNL     1      43.093   5.289  11.055  0.00  0.00    +0.000 A 
ATOM     18  C   UNL     1      43.609   4.540   9.997  0.00  0.00    +0.000 A 
ATOM     19  C   UNL     1      44.823   3.837  10.119  0.00  0.00    +0.000 A 
ATOM     20  C   UNL     1      45.458   3.845  11.375  0.00  0.00    +0.000 A 
BRANCH  19  21
ATOM     21  C   UNL     1      45.466   3.198   8.952  0.00  0.00    +0.000 A 
ATOM     22  C   UNL     1      45.927   3.948   7.869  0.00  0.00    +0.000 A 
ATOM     23  C   UNL     1      46.622   3.318   6.841  0.00  0.00    +0.000 A 
ATOM     24  C   UNL     1      46.839   1.950   6.909  0.00  0.00    +0.000 A 
ATOM     25  C   UNL     1      46.345   1.270   8.009  0.00  0.00    +0.000 A 
ATOM     26  N   UNL     1      45.675   1.860   9.027  0.00  0.00    +0.000 NA
ENDBRANCH  19  21
ENDBRANCH  14  15
ENDBRANCH   5  14
TORSDOF 4
ENDMDL
