MODEL 1
REMARK VINA RESULT:    -9.206      0.000      0.000
REMARK INTER + INTRA:         -13.314
REMARK INTER:                 -12.435
REMARK INTRA:                  -0.879
REMARK UNBOUND:                -0.879
REMARK  Name = 
REMARK  6 active torsions:
REMARK  status: ('A' for Active; 'I' for Inactive)
REMARK    1  A    between atoms: C_2  and  C_19
REMARK    2  A    between atoms: N_3  and  C_4
REMARK    3  A    between atoms: C_4  and  C_5
REMARK    4  A    between atoms: C_8  and  C_9
REMARK    5  A    between atoms: C_9  and  O_10
REMARK    6  A    between atoms: O_10  and  C_11
REMARK                            x       y       z     vdW  Elec       q    Type
REMARK                         _______ _______ _______ _____ _____    ______ ____
ROOT
ATOM      1  O   UNL     1      46.451   3.574  16.946  0.00  0.00    +0.000 OA
ATOM      2  C   UNL     1      47.364   4.218  16.436  0.00  0.00    +0.000 C 
ATOM      3  N   UNL     1      47.228   4.872  15.242  0.00  0.00    +0.000 N 
ATOM      4  H   UNL     1      48.038   5.310  14.813  0.00  0.00    +0.000 HD
ENDROOT
BRANCH   2   5
ATOM      5  C   UNL     1      48.663   4.369  17.096  0.00  0.00    +0.000 A 
ATOM      6  C   UNL     1      48.963   5.545  17.774  0.00  0.00    +0.000 A 
ATOM      7  S   UNL     1      50.523   5.553  18.458  0.00  0.00    +0.000 S 
ATOM      8  C   UNL     1      50.836   3.975  17.911  0.00  0.00    +0.000 A 
ATOM      9  N   UNL     1      52.018   3.360  18.184  0.00  0.00    +0.000 NA
ATOM     10  C   UNL     1      52.103   2.147  17.746  0.00  0.00    +0.000 A 
ATOM     11  N   UNL     1      51.115   1.495  17.057  0.00  0.00    +0.000 N 
ATOM     12  C   UNL     1      49.929   2.092  16.709  0.00  0.00    +0.000 A 
ATOM     13  O   UNL     1      49.112   1.507  16.006  0.00  0.00    +0.000 OA
ATOM     14  C   UNL     1      49.770   3.449  17.202  0.00  0.00    +0.000 A 
ATOM     15  H   UNL     1      51.253   0.552  16.726  0.00  0.00    +0.000 HD
ENDBRANCH   2   5
BRANCH   3  16
ATOM     16  C   UNL     1      46.046   4.784  14.428  0.00  0.00    +0.000 C 
BRANCH  16  17
ATOM     17  C   UNL     1      46.367   4.595  12.935  0.00  0.00    +0.000 C 
ATOM     18  C   UNL     1      45.773   3.296  12.358  0.00  0.00    +0.000 C 
ATOM     19  C   UNL     1      44.250   3.345  12.242  0.00  0.00    +0.000 C 
ATOM     20  C   UNL     1      43.763   4.566  11.442  0.00  0.00    +0.000 C 
ATOM     21  C   UNL     1      44.348   5.863  12.020  0.00  0.00    +0.000 C 
ATOM     22  C   UNL     1      45.874   5.816  12.142  0.00  0.00    +0.000 C 
BRANCH  20  23
ATOM     23  C   UNL     1      44.084   4.449   9.943  0.00  0.00    +0.000 C 
BRANCH  23  24
ATOM     24  O   UNL     1      44.220   3.070   9.601  0.00  0.00    +0.000 OA
BRANCH  24  25
ATOM     25  C   UNL     1      45.221   2.754   8.724  0.00  0.00    +0.000 A 
ATOM     26  C   UNL     1      45.756   1.482   8.513  0.00  0.00    +0.000 A 
ATOM     27  C   UNL     1      46.790   1.300   7.591  0.00  0.00    +0.000 A 
ATOM     28  C   UNL     1      47.291   2.387   6.875  0.00  0.00    +0.000 A 
ATOM     29  C   UNL     1      46.756   3.657   7.079  0.00  0.00    +0.000 A 
ATOM     30  C   UNL     1      45.725   3.837   8.001  0.00  0.00    +0.000 A 
ENDBRANCH  24  25
ENDBRANCH  23  24
ENDBRANCH  20  23
ENDBRANCH  16  17
ENDBRANCH   3  16
TORSDOF 6
ENDMDL
MODEL 2
REMARK VINA RESULT:    -8.225      1.790      2.235
REMARK INTER + INTRA:         -11.988
REMARK INTER:                 -11.315
REMARK INTRA:                  -0.673
REMARK UNBOUND:                -0.879
REMARK  Name = 
REMARK  6 active torsions:
REMARK  status: ('A' for Active; 'I' for Inactive)
REMARK    1  A    between atoms: C_2  and  C_19
REMARK    2  A    between atoms: N_3  and  C_4
REMARK    3  A    between atoms: C_4  and  C_5
REMARK    4  A    between atoms: C_8  and  C_9
REMARK    5  A    between atoms: C_9  and  O_10
REMARK    6  A    between atoms: O_10  and  C_11
REMARK                            x       y       z     vdW  Elec       q    Type
REMARK                         _______ _______ _______ _____ _____    ______ ____
ROOT
ATOM      1  O   UNL     1      49.078   6.634  13.451  0.00  0.00    +0.000 OA
ATOM      2  C   UNL     1      48.278   6.478  14.369  0.00  0.00    +0.000 C 
ATOM      3  N   UNL     1      46.924   6.469  14.173  0.00  0.00    +0.000 N 
ATOM      4  H   UNL     1      46.300   6.433  14.972  0.00  0.00    +0.000 HD
ENDROOT
BRANCH   2   5
ATOM      5  C   UNL     1      48.719   6.244  15.746  0.00  0.00    +0.000 A 
ATOM      6  C   UNL     1      49.469   7.209  16.407  0.00  0.00    +0.000 A 
ATOM      7  S   UNL     1      49.911   6.757  17.989  0.00  0.00    +0.000 S 
ATOM      8  C   UNL     1      49.083   5.278  17.862  0.00  0.00    +0.000 A 
ATOM      9  N   UNL     1      49.048   4.402  18.902  0.00  0.00    +0.000 NA
ATOM     10  C   UNL     1      48.346   3.340  18.683  0.00  0.00    +0.000 A 
ATOM     11  N   UNL     1      47.680   3.072  17.517  0.00  0.00    +0.000 N 
ATOM     12  C   UNL     1      47.732   3.896  16.420  0.00  0.00    +0.000 A 
ATOM     13  O   UNL     1      47.204   3.572  15.362  0.00  0.00    +0.000 OA
ATOM     14  C   UNL     1      48.486   5.121  16.623  0.00  0.00    +0.000 A 
ATOM     15  H   UNL     1      47.164   2.212  17.402  0.00  0.00    +0.000 HD
ENDBRANCH   2   5
BRANCH   3  16
ATOM     16  C   UNL     1      46.313   6.742  12.899  0.00  0.00    +0.000 C 
BRANCH  16  17
ATOM     17  C   UNL     1      46.424   5.557  11.923  0.00  0.00    +0.000 C 
ATOM     18  C   UNL     1      46.014   4.217  12.563  0.00  0.00    +0.000 C 
ATOM     19  C   UNL     1      44.512   4.128  12.833  0.00  0.00    +0.000 C 
ATOM     20  C   UNL     1      43.674   4.407  11.573  0.00  0.00    +0.000 C 
ATOM     21  C   UNL     1      44.076   5.745  10.937  0.00  0.00    +0.000 C 
ATOM     22  C   UNL     1      45.581   5.840  10.669  0.00  0.00    +0.000 C 
BRANCH  20  23
ATOM     23  C   UNL     1      43.770   3.268  10.543  0.00  0.00    +0.000 C 
BRANCH  23  24
ATOM     24  O   UNL     1      44.164   3.810   9.284  0.00  0.00    +0.000 OA
BRANCH  24  25
ATOM     25  C   UNL     1      45.097   3.102   8.579  0.00  0.00    +0.000 A 
ATOM     26  C   UNL     1      45.431   1.761   8.776  0.00  0.00    +0.000 A 
ATOM     27  C   UNL     1      46.417   1.160   7.989  0.00  0.00    +0.000 A 
ATOM     28  C   UNL     1      47.070   1.895   7.001  0.00  0.00    +0.000 A 
ATOM     29  C   UNL     1      46.736   3.232   6.797  0.00  0.00    +0.000 A 
ATOM     30  C   UNL     1      45.753   3.831   7.585  0.00  0.00    +0.000 A 
ENDBRANCH  24  25
ENDBRANCH  23  24
ENDBRANCH  20  23
ENDBRANCH  16  17
ENDBRANCH   3  16
TORSDOF 6
ENDMDL
MODEL 3
REMARK VINA RESULT:    -8.224      1.349      2.045
REMARK INTER + INTRA:         -11.987
REMARK INTER:                 -10.909
REMARK INTRA:                  -1.078
REMARK UNBOUND:                -0.879
REMARK  Name = 
REMARK  6 active torsions:
REMARK  status: ('A' for Active; 'I' for Inactive)
REMARK    1  A    between atoms: C_2  and  C_19
REMARK    2  A    between atoms: N_3  and  C_4
REMARK    3  A    between atoms: C_4  and  C_5
REMARK    4  A    between atoms: C_8  and  C_9
REMARK    5  A    between atoms: C_9  and  O_10
REMARK    6  A    between atoms: O_10  and  C_11
REMARK                            x       y       z     vdW  Elec       q    Type
REMARK                         _______ _______ _______ _____ _____    ______ ____
ROOT
ATOM      1  O   UNL     1      46.556   3.280  16.998  0.00  0.00    +0.000 OA
ATOM      2  C   UNL     1      47.534   3.728  16.406  0.00  0.00    +0.000 C 
ATOM      3  N   UNL     1      47.429   4.431  15.236  0.00  0.00    +0.000 N 
ATOM      4  H   UNL     1      48.268   4.698  14.733  0.00  0.00    +0.000 HD
ENDROOT
BRANCH   2   5
ATOM      5  C   UNL     1      48.891   3.581  16.935  0.00  0.00    +0.000 A 
ATOM      6  C   UNL     1      49.504   2.333  16.932  0.00  0.00    +0.000 A 
ATOM      7  S   UNL     1      51.070   2.347  17.605  0.00  0.00    +0.000 S 
ATOM      8  C   UNL     1      51.000   4.022  17.884  0.00  0.00    +0.000 A 
ATOM      9  N   UNL     1      52.052   4.686  18.435  0.00  0.00    +0.000 NA
ATOM     10  C   UNL     1      51.879   5.961  18.549  0.00  0.00    +0.000 A 
ATOM     11  N   UNL     1      50.749   6.632  18.166  0.00  0.00    +0.000 N 
ATOM     12  C   UNL     1      49.641   6.001  17.659  0.00  0.00    +0.000 A 
ATOM     13  O   UNL     1      48.612   6.625  17.421  0.00  0.00    +0.000 OA
ATOM     14  C   UNL     1      49.792   4.567  17.483  0.00  0.00    +0.000 A 
ATOM     15  H   UNL     1      50.670   7.630  18.300  0.00  0.00    +0.000 HD
ENDBRANCH   2   5
BRANCH   3  16
ATOM     16  C   UNL     1      46.183   4.620  14.543  0.00  0.00    +0.000 C 
BRANCH  16  17
ATOM     17  C   UNL     1      46.355   4.654  13.014  0.00  0.00    +0.000 C 
ATOM     18  C   UNL     1      45.864   3.363  12.331  0.00  0.00    +0.000 C 
ATOM     19  C   UNL     1      44.343   3.217  12.369  0.00  0.00    +0.000 C 
ATOM     20  C   UNL     1      43.623   4.446  11.788  0.00  0.00    +0.000 C 
ATOM     21  C   UNL     1      44.105   5.733  12.471  0.00  0.00    +0.000 C 
ATOM     22  C   UNL     1      45.629   5.881  12.439  0.00  0.00    +0.000 C 
BRANCH  20  23
ATOM     23  C   UNL     1      43.785   4.551  10.262  0.00  0.00    +0.000 C 
BRANCH  23  24
ATOM     24  O   UNL     1      43.809   3.238   9.703  0.00  0.00    +0.000 OA
BRANCH  24  25
ATOM     25  C   UNL     1      44.869   2.937   8.894  0.00  0.00    +0.000 A 
ATOM     26  C   UNL     1      45.477   1.687   8.767  0.00  0.00    +0.000 A 
ATOM     27  C   UNL     1      46.566   1.520   7.908  0.00  0.00    +0.000 A 
ATOM     28  C   UNL     1      47.050   2.600   7.172  0.00  0.00    +0.000 A 
ATOM     29  C   UNL     1      46.443   3.848   7.290  0.00  0.00    +0.000 A 
ATOM     30  C   UNL     1      45.357   4.014   8.150  0.00  0.00    +0.000 A 
ENDBRANCH  24  25
ENDBRANCH  23  24
ENDBRANCH  20  23
ENDBRANCH  16  17
ENDBRANCH   3  16
TORSDOF 6
ENDMDL
MODEL 4
REMARK VINA RESULT:    -8.061      3.113      4.118
REMARK INTER + INTRA:         -11.767
REMARK INTER:                 -10.440
REMARK INTRA:                  -1.328
REMARK UNBOUND:                -0.879
REMARK  Name = 
REMARK  6 active torsions:
REMARK  status: ('A' for Active; 'I' for Inactive)
REMARK    1  A    between atoms: C_2  and  C_19
REMARK    2  A    between atoms: N_3  and  C_4
REMARK    3  A    between atoms: C_4  and  C_5
REMARK    4  A    between atoms: C_8  and  C_9
REMARK    5  A    between atoms: C_9  and  O_10
REMARK    6  A    between atoms: O_10  and  C_11
REMARK                            x       y       z     vdW  Elec       q    Type
REMARK                         _______ _______ _______ _____ _____    ______ ____
ROOT
ATOM      1  O   UNL     1      46.615   4.803  14.420  0.00  0.00    +0.000 OA
ATOM      2  C   UNL     1      46.914   5.937  14.054  0.00  0.00    +0.000 C 
ATOM      3  N   UNL     1      46.050   6.738  13.357  0.00  0.00    +0.000 N 
ATOM      4  H   UNL     1      46.373   7.628  12.992  0.00  0.00    +0.000 HD
ENDROOT
BRANCH   2   5
ATOM      5  C   UNL     1      48.210   6.536  14.377  0.00  0.00    +0.000 A 
ATOM      6  C   UNL     1      48.713   6.445  15.670  0.00  0.00    +0.000 A 
ATOM      7  S   UNL     1      50.219   7.218  15.866  0.00  0.00    +0.000 S 
ATOM      8  C   UNL     1      50.272   7.664  14.227  0.00  0.00    +0.000 A 
ATOM      9  N   UNL     1      51.332   8.349  13.720  0.00  0.00    +0.000 NA
ATOM     10  C   UNL     1      51.260   8.582  12.452  0.00  0.00    +0.000 A 
ATOM     11  N   UNL     1      50.223   8.197  11.644  0.00  0.00    +0.000 N 
ATOM     12  C   UNL     1      49.107   7.554  12.119  0.00  0.00    +0.000 A 
ATOM     13  O   UNL     1      48.156   7.315  11.382  0.00  0.00    +0.000 OA
ATOM     14  C   UNL     1      49.148   7.242  13.537  0.00  0.00    +0.000 A 
ATOM     15  H   UNL     1      50.220   8.428  10.662  0.00  0.00    +0.000 HD
ENDBRANCH   2   5
BRANCH   3  16
ATOM     16  C   UNL     1      44.760   6.293  12.903  0.00  0.00    +0.000 C 
BRANCH  16  17
ATOM     17  C   UNL     1      44.745   5.954  11.402  0.00  0.00    +0.000 C 
ATOM     18  C   UNL     1      45.828   4.931  11.012  0.00  0.00    +0.000 C 
ATOM     19  C   UNL     1      45.537   3.530  11.548  0.00  0.00    +0.000 C 
ATOM     20  C   UNL     1      44.142   3.025  11.138  0.00  0.00    +0.000 C 
ATOM     21  C   UNL     1      43.060   4.040  11.532  0.00  0.00    +0.000 C 
ATOM     22  C   UNL     1      43.351   5.447  11.000  0.00  0.00    +0.000 C 
BRANCH  20  23
ATOM     23  C   UNL     1      44.056   2.698   9.638  0.00  0.00    +0.000 C 
BRANCH  23  24
ATOM     24  O   UNL     1      45.110   1.799   9.295  0.00  0.00    +0.000 OA
BRANCH  24  25
ATOM     25  C   UNL     1      45.868   2.132   8.207  0.00  0.00    +0.000 A 
ATOM     26  C   UNL     1      45.845   3.355   7.534  0.00  0.00    +0.000 A 
ATOM     27  C   UNL     1      46.666   3.560   6.422  0.00  0.00    +0.000 A 
ATOM     28  C   UNL     1      47.515   2.546   5.982  0.00  0.00    +0.000 A 
ATOM     29  C   UNL     1      47.546   1.326   6.654  0.00  0.00    +0.000 A 
ATOM     30  C   UNL     1      46.723   1.122   7.762  0.00  0.00    +0.000 A 
ENDBRANCH  24  25
ENDBRANCH  23  24
ENDBRANCH  20  23
ENDBRANCH  16  17
ENDBRANCH   3  16
TORSDOF 6
ENDMDL
MODEL 5
REMARK VINA RESULT:    -7.960      1.993      2.696
REMARK INTER + INTRA:         -11.631
REMARK INTER:                 -10.642
REMARK INTRA:                  -0.989
REMARK UNBOUND:                -0.879
REMARK  Name = 
REMARK  6 active torsions:
REMARK  status: ('A' for Active; 'I' for Inactive)
REMARK    1  A    between atoms: C_2  and  C_19
REMARK    2  A    between atoms: N_3  and  C_4
REMARK    3  A    between atoms: C_4  and  C_5
REMARK    4  A    between atoms: C_8  and  C_9
REMARK    5  A    between atoms: C_9  and  O_10
REMARK    6  A    between atoms: O_10  and  C_11
REMARK                            x       y       z     vdW  Elec       q    Type
REMARK                         _______ _______ _______ _____ _____    ______ ____
ROOT
ATOM      1  O   UNL     1      47.131   3.313  16.091  0.00  0.00    +0.000 OA
ATOM      2  C   UNL     1      47.393   4.490  15.860  0.00  0.00    +0.000 C 
ATOM      3  N   UNL     1      46.690   5.238  14.955  0.00  0.00    +0.000 N 
ATOM      4  H   UNL     1      47.003   6.177  14.727  0.00  0.00    +0.000 HD
ENDROOT
BRANCH   2   5
ATOM      5  C   UNL     1      48.457   5.199  16.575  0.00  0.00    +0.000 A 
ATOM      6  C   UNL     1      48.676   4.943  17.923  0.00  0.00    +0.000 A 
ATOM      7  S   UNL     1      49.937   5.873  18.594  0.00  0.00    +0.000 S 
ATOM      8  C   UNL     1      50.261   6.618  17.100  0.00  0.00    +0.000 A 
ATOM      9  N   UNL     1      51.263   7.529  16.974  0.00  0.00    +0.000 NA
ATOM     10  C   UNL     1      51.427   7.981  15.775  0.00  0.00    +0.000 A 
ATOM     11  N   UNL     1      50.678   7.607  14.691  0.00  0.00    +0.000 N 
ATOM     12  C   UNL     1      49.621   6.735  14.779  0.00  0.00    +0.000 A 
ATOM     13  O   UNL     1      48.913   6.502  13.805  0.00  0.00    +0.000 OA
ATOM     14  C   UNL     1      49.411   6.174  16.102  0.00  0.00    +0.000 A 
ATOM     15  H   UNL     1      50.846   8.013  13.782  0.00  0.00    +0.000 HD
ENDBRANCH   2   5
BRANCH   3  16
ATOM     16  C   UNL     1      45.654   4.692  14.121  0.00  0.00    +0.000 C 
BRANCH  16  17
ATOM     17  C   UNL     1      46.110   4.489  12.665  0.00  0.00    +0.000 C 
ATOM     18  C   UNL     1      45.572   3.184  12.049  0.00  0.00    +0.000 C 
ATOM     19  C   UNL     1      44.066   3.229  11.794  0.00  0.00    +0.000 C 
ATOM     20  C   UNL     1      43.654   4.442  10.941  0.00  0.00    +0.000 C 
ATOM     21  C   UNL     1      44.184   5.745  11.557  0.00  0.00    +0.000 C 
ATOM     22  C   UNL     1      45.692   5.701  11.818  0.00  0.00    +0.000 C 
BRANCH  20  23
ATOM     23  C   UNL     1      44.111   4.310   9.478  0.00  0.00    +0.000 C 
BRANCH  23  24
ATOM     24  O   UNL     1      44.318   2.931   9.176  0.00  0.00    +0.000 OA
BRANCH  24  25
ATOM     25  C   UNL     1      45.387   2.635   8.377  0.00  0.00    +0.000 A 
ATOM     26  C   UNL     1      46.090   3.538   7.577  0.00  0.00    +0.000 A 
ATOM     27  C   UNL     1      47.161   3.098   6.796  0.00  0.00    +0.000 A 
ATOM     28  C   UNL     1      47.536   1.755   6.814  0.00  0.00    +0.000 A 
ATOM     29  C   UNL     1      46.842   0.851   7.615  0.00  0.00    +0.000 A 
ATOM     30  C   UNL     1      45.771   1.292   8.393  0.00  0.00    +0.000 A 
ENDBRANCH  24  25
ENDBRANCH  23  24
ENDBRANCH  20  23
ENDBRANCH  16  17
ENDBRANCH   3  16
TORSDOF 6
ENDMDL
MODEL 6
REMARK VINA RESULT:    -7.830      2.734      3.511
REMARK INTER + INTRA:         -11.454
REMARK INTER:                 -10.455
REMARK INTRA:                  -0.999
REMARK UNBOUND:                -0.879
REMARK  Name = 
REMARK  6 active torsions:
REMARK  status: ('A' for Active; 'I' for Inactive)
REMARK    1  A    between atoms: C_2  and  C_19
REMARK    2  A    between atoms: N_3  and  C_4
REMARK    3  A    between atoms: C_4  and  C_5
REMARK    4  A    between atoms: C_8  and  C_9
REMARK    5  A    between atoms: C_9  and  O_10
REMARK    6  A    between atoms: O_10  and  C_11
REMARK                            x       y       z     vdW  Elec       q    Type
REMARK                         _______ _______ _______ _____ _____    ______ ____
ROOT
ATOM      1  O   UNL     1      47.908   8.234  12.280  0.00  0.00    +0.000 OA
ATOM      2  C   UNL     1      47.530   7.955  13.415  0.00  0.00    +0.000 C 
ATOM      3  N   UNL     1      46.397   7.225  13.655  0.00  0.00    +0.000 N 
ATOM      4  H   UNL     1      46.071   7.102  14.609  0.00  0.00    +0.000 HD
ENDROOT
BRANCH   2   5
ATOM      5  C   UNL     1      48.292   8.349  14.601  0.00  0.00    +0.000 A 
ATOM      6  C   UNL     1      48.623   9.685  14.800  0.00  0.00    +0.000 A 
ATOM      7  S   UNL     1      49.528   9.954  16.219  0.00  0.00    +0.000 S 
ATOM      8  C   UNL     1      49.474   8.307  16.637  0.00  0.00    +0.000 A 
ATOM      9  N   UNL     1      50.055   7.855  17.780  0.00  0.00    +0.000 NA
ATOM     10  C   UNL     1      49.898   6.591  17.996  0.00  0.00    +0.000 A 
ATOM     11  N   UNL     1      49.216   5.737  17.170  0.00  0.00    +0.000 N 
ATOM     12  C   UNL     1      48.662   6.135  15.979  0.00  0.00    +0.000 A 
ATOM     13  O   UNL     1      48.146   5.320  15.221  0.00  0.00    +0.000 OA
ATOM     14  C   UNL     1      48.785   7.555  15.701  0.00  0.00    +0.000 A 
ATOM     15  H   UNL     1      49.146   4.754  17.387  0.00  0.00    +0.000 HD
ENDBRANCH   2   5
BRANCH   3  16
ATOM     16  C   UNL     1      45.497   6.807  12.615  0.00  0.00    +0.000 C 
BRANCH  16  17
ATOM     17  C   UNL     1      46.028   5.600  11.822  0.00  0.00    +0.000 C 
ATOM     18  C   UNL     1      45.801   4.261  12.550  0.00  0.00    +0.000 C 
ATOM     19  C   UNL     1      44.328   3.855  12.591  0.00  0.00    +0.000 C 
ATOM     20  C   UNL     1      43.690   3.826  11.191  0.00  0.00    +0.000 C 
ATOM     21  C   UNL     1      43.910   5.161  10.466  0.00  0.00    +0.000 C 
ATOM     22  C   UNL     1      45.384   5.574  10.426  0.00  0.00    +0.000 C 
BRANCH  20  23
ATOM     23  C   UNL     1      44.207   2.656  10.337  0.00  0.00    +0.000 C 
BRANCH  23  24
ATOM     24  O   UNL     1      44.211   3.046   8.965  0.00  0.00    +0.000 OA
BRANCH  24  25
ATOM     25  C   UNL     1      45.322   2.716   8.240  0.00  0.00    +0.000 A 
ATOM     26  C   UNL     1      46.029   3.567   7.388  0.00  0.00    +0.000 A 
ATOM     27  C   UNL     1      47.146   3.095   6.694  0.00  0.00    +0.000 A 
ATOM     28  C   UNL     1      47.562   1.774   6.849  0.00  0.00    +0.000 A 
ATOM     29  C   UNL     1      46.863   0.922   7.702  0.00  0.00    +0.000 A 
ATOM     30  C   UNL     1      45.747   1.394   8.393  0.00  0.00    +0.000 A 
ENDBRANCH  24  25
ENDBRANCH  23  24
ENDBRANCH  20  23
ENDBRANCH  16  17
ENDBRANCH   3  16
TORSDOF 6
ENDMDL
MODEL 7
REMARK VINA RESULT:    -7.817      2.069      2.813
REMARK INTER + INTRA:         -11.438
REMARK INTER:                 -10.382
REMARK INTRA:                  -1.056
REMARK UNBOUND:                -0.879
REMARK  Name = 
REMARK  6 active torsions:
REMARK  status: ('A' for Active; 'I' for Inactive)
REMARK    1  A    between atoms: C_2  and  C_19
REMARK    2  A    between atoms: N_3  and  C_4
REMARK    3  A    between atoms: C_4  and  C_5
REMARK    4  A    between atoms: C_8  and  C_9
REMARK    5  A    between atoms: C_9  and  O_10
REMARK    6  A    between atoms: O_10  and  C_11
REMARK                            x       y       z     vdW  Elec       q    Type
REMARK                         _______ _______ _______ _____ _____    ______ ____
ROOT
ATOM      1  O   UNL     1      47.966   5.565  14.129  0.00  0.00    +0.000 OA
ATOM      2  C   UNL     1      47.366   4.946  15.004  0.00  0.00    +0.000 C 
ATOM      3  N   UNL     1      46.067   4.539  14.861  0.00  0.00    +0.000 N 
ATOM      4  H   UNL     1      45.583   4.117  15.647  0.00  0.00    +0.000 HD
ENDROOT
BRANCH   2   5
ATOM      5  C   UNL     1      48.016   4.558  16.258  0.00  0.00    +0.000 A 
ATOM      6  C   UNL     1      48.027   3.224  16.648  0.00  0.00    +0.000 A 
ATOM      7  S   UNL     1      48.806   2.962  18.141  0.00  0.00    +0.000 S 
ATOM      8  C   UNL     1      49.190   4.610  18.298  0.00  0.00    +0.000 A 
ATOM      9  N   UNL     1      49.889   5.068  19.371  0.00  0.00    +0.000 NA
ATOM     10  C   UNL     1      50.149   6.333  19.340  0.00  0.00    +0.000 A 
ATOM     11  N   UNL     1      49.770   7.182  18.334  0.00  0.00    +0.000 N 
ATOM     12  C   UNL     1      49.016   6.779  17.260  0.00  0.00    +0.000 A 
ATOM     13  O   UNL     1      48.614   7.590  16.432  0.00  0.00    +0.000 OA
ATOM     14  C   UNL     1      48.719   5.358  17.232  0.00  0.00    +0.000 A 
ATOM     15  H   UNL     1      49.990   8.167  18.379  0.00  0.00    +0.000 HD
ENDBRANCH   2   5
BRANCH   3  16
ATOM     16  C   UNL     1      45.257   4.883  13.724  0.00  0.00    +0.000 C 
BRANCH  16  17
ATOM     17  C   UNL     1      45.318   3.823  12.610  0.00  0.00    +0.000 C 
ATOM     18  C   UNL     1      43.926   3.304  12.203  0.00  0.00    +0.000 C 
ATOM     19  C   UNL     1      43.103   4.352  11.453  0.00  0.00    +0.000 C 
ATOM     20  C   UNL     1      43.849   4.917  10.232  0.00  0.00    +0.000 C 
ATOM     21  C   UNL     1      45.235   5.440  10.636  0.00  0.00    +0.000 C 
ATOM     22  C   UNL     1      46.061   4.395  11.392  0.00  0.00    +0.000 C 
BRANCH  20  23
ATOM     23  C   UNL     1      43.970   3.889   9.094  0.00  0.00    +0.000 C 
BRANCH  23  24
ATOM     24  O   UNL     1      44.960   4.333   8.167  0.00  0.00    +0.000 OA
BRANCH  24  25
ATOM     25  C   UNL     1      45.810   3.381   7.677  0.00  0.00    +0.000 A 
ATOM     26  C   UNL     1      46.685   3.536   6.601  0.00  0.00    +0.000 A 
ATOM     27  C   UNL     1      47.493   2.471   6.194  0.00  0.00    +0.000 A 
ATOM     28  C   UNL     1      47.431   1.249   6.862  0.00  0.00    +0.000 A 
ATOM     29  C   UNL     1      46.563   1.091   7.940  0.00  0.00    +0.000 A 
ATOM     30  C   UNL     1      45.756   2.155   8.344  0.00  0.00    +0.000 A 
ENDBRANCH  24  25
ENDBRANCH  23  24
ENDBRANCH  20  23
ENDBRANCH  16  17
ENDBRANCH   3  16
TORSDOF 6
ENDMDL
MODEL 8
REMARK VINA RESULT:    -7.568      2.420      2.845
REMARK INTER + INTRA:         -11.101
REMARK INTER:                 -10.344
REMARK INTRA:                  -0.758
REMARK UNBOUND:                -0.879
REMARK  Name = 
REMARK  6 active torsions:
REMARK  status: ('A' for Active; 'I' for Inactive)
REMARK    1  A    between atoms: C_2  and  C_19
REMARK    2  A    between atoms: N_3  and  C_4
REMARK    3  A    between atoms: C_4  and  C_5
REMARK    4  A    between atoms: C_8  and  C_9
REMARK    5  A    between atoms: C_9  and  O_10
REMARK    6  A    between atoms: O_10  and  C_11
REMARK                            x       y       z     vdW  Elec       q    Type
REMARK                         _______ _______ _______ _____ _____    ______ ____
ROOT
ATOM      1  O   UNL     1      47.858   3.870  15.405  0.00  0.00    +0.000 OA
ATOM      2  C   UNL     1      47.673   5.074  15.244  0.00  0.00    +0.000 C 
ATOM      3  N   UNL     1      46.595   5.569  14.562  0.00  0.00    +0.000 N 
ATOM      4  H   UNL     1      46.534   6.564  14.372  0.00  0.00    +0.000 HD
ENDROOT
BRANCH   2   5
ATOM      5  C   UNL     1      48.576   6.077  15.812  0.00  0.00    +0.000 A 
ATOM      6  C   UNL     1      49.318   6.898  14.971  0.00  0.00    +0.000 A 
ATOM      7  S   UNL     1      50.329   7.986  15.806  0.00  0.00    +0.000 S 
ATOM      8  C   UNL     1      49.783   7.429  17.316  0.00  0.00    +0.000 A 
ATOM      9  N   UNL     1      50.247   7.971  18.473  0.00  0.00    +0.000 NA
ATOM     10  C   UNL     1      49.714   7.484  19.544  0.00  0.00    +0.000 A 
ATOM     11  N   UNL     1      48.760   6.501  19.562  0.00  0.00    +0.000 N 
ATOM     12  C   UNL     1      48.301   5.884  18.425  0.00  0.00    +0.000 A 
ATOM     13  O   UNL     1      47.520   4.941  18.491  0.00  0.00    +0.000 OA
ATOM     14  C   UNL     1      48.849   6.415  17.189  0.00  0.00    +0.000 A 
ATOM     15  H   UNL     1      48.396   6.150  20.437  0.00  0.00    +0.000 HD
ENDBRANCH   2   5
BRANCH   3  16
ATOM     16  C   UNL     1      45.640   4.732  13.888  0.00  0.00    +0.000 C 
BRANCH  16  17
ATOM     17  C   UNL     1      46.057   4.401  12.444  0.00  0.00    +0.000 C 
ATOM     18  C   UNL     1      45.341   3.156  11.886  0.00  0.00    +0.000 C 
ATOM     19  C   UNL     1      43.855   3.399  11.626  0.00  0.00    +0.000 C 
ATOM     20  C   UNL     1      43.611   4.616  10.718  0.00  0.00    +0.000 C 
ATOM     21  C   UNL     1      44.319   5.860  11.275  0.00  0.00    +0.000 C 
ATOM     22  C   UNL     1      45.808   5.620  11.541  0.00  0.00    +0.000 C 
BRANCH  20  23
ATOM     23  C   UNL     1      44.039   4.357   9.264  0.00  0.00    +0.000 C 
BRANCH  23  24
ATOM     24  O   UNL     1      44.315   2.966   9.100  0.00  0.00    +0.000 OA
BRANCH  24  25
ATOM     25  C   UNL     1      45.411   2.646   8.347  0.00  0.00    +0.000 A 
ATOM     26  C   UNL     1      46.151   3.527   7.557  0.00  0.00    +0.000 A 
ATOM     27  C   UNL     1      47.246   3.063   6.824  0.00  0.00    +0.000 A 
ATOM     28  C   UNL     1      47.607   1.718   6.880  0.00  0.00    +0.000 A 
ATOM     29  C   UNL     1      46.875   0.835   7.671  0.00  0.00    +0.000 A 
ATOM     30  C   UNL     1      45.781   1.300   8.401  0.00  0.00    +0.000 A 
ENDBRANCH  24  25
ENDBRANCH  23  24
ENDBRANCH  20  23
ENDBRANCH  16  17
ENDBRANCH   3  16
TORSDOF 6
ENDMDL
MODEL 9
REMARK VINA RESULT:    -7.489      4.557      5.379
REMARK INTER + INTRA:         -10.994
REMARK INTER:                 -10.352
REMARK INTRA:                  -0.642
REMARK UNBOUND:                -0.879
REMARK  Name = 
REMARK  6 active torsions:
REMARK  status: ('A' for Active; 'I' for Inactive)
REMARK    1  A    between atoms: C_2  and  C_19
REMARK    2  A    between atoms: N_3  and  C_4
REMARK    3  A    between atoms: C_4  and  C_5
REMARK    4  A    between atoms: C_8  and  C_9
REMARK    5  A    between atoms: C_9  and  O_10
REMARK    6  A    between atoms: O_10  and  C_11
REMARK                            x       y       z     vdW  Elec       q    Type
REMARK                         _______ _______ _______ _____ _____    ______ ____
ROOT
ATOM      1  O   UNL     1      44.891   9.687  12.734  0.00  0.00    +0.000 OA
ATOM      2  C   UNL     1      45.854   8.982  12.445  0.00  0.00    +0.000 C 
ATOM      3  N   UNL     1      45.798   7.615  12.457  0.00  0.00    +0.000 N 
ATOM      4  H   UNL     1      46.644   7.075  12.306  0.00  0.00    +0.000 HD
ENDROOT
BRANCH   2   5
ATOM      5  C   UNL     1      47.132   9.558  12.020  0.00  0.00    +0.000 A 
ATOM      6  C   UNL     1      47.156  10.783  11.363  0.00  0.00    +0.000 A 
ATOM      7  S   UNL     1      48.724  11.285  10.924  0.00  0.00    +0.000 S 
ATOM      8  C   UNL     1      49.427   9.909  11.631  0.00  0.00    +0.000 A 
ATOM      9  N   UNL     1      50.775   9.728  11.624  0.00  0.00    +0.000 NA
ATOM     10  C   UNL     1      51.175   8.663  12.235  0.00  0.00    +0.000 A 
ATOM     11  N   UNL     1      50.350   7.760  12.851  0.00  0.00    +0.000 N 
ATOM     12  C   UNL     1      48.982   7.869  12.837  0.00  0.00    +0.000 A 
ATOM     13  O   UNL     1      48.274   6.988  13.313  0.00  0.00    +0.000 OA
ATOM     14  C   UNL     1      48.479   9.066  12.185  0.00  0.00    +0.000 A 
ATOM     15  H   UNL     1      50.726   6.936  13.296  0.00  0.00    +0.000 HD
ENDBRANCH   2   5
BRANCH   3  16
ATOM     16  C   UNL     1      44.645   6.880  12.905  0.00  0.00    +0.000 C 
BRANCH  16  17
ATOM     17  C   UNL     1      44.872   5.358  12.894  0.00  0.00    +0.000 C 
ATOM     18  C   UNL     1      43.570   4.564  12.679  0.00  0.00    +0.000 C 
ATOM     19  C   UNL     1      43.020   4.706  11.260  0.00  0.00    +0.000 C 
ATOM     20  C   UNL     1      44.062   4.338  10.190  0.00  0.00    +0.000 C 
ATOM     21  C   UNL     1      45.359   5.133  10.398  0.00  0.00    +0.000 C 
ATOM     22  C   UNL     1      45.910   4.997  11.821  0.00  0.00    +0.000 C 
BRANCH  20  23
ATOM     23  C   UNL     1      44.355   2.828  10.152  0.00  0.00    +0.000 C 
BRANCH  23  24
ATOM     24  O   UNL     1      44.242   2.365   8.807  0.00  0.00    +0.000 OA
BRANCH  24  25
ATOM     25  C   UNL     1      45.405   2.265   8.096  0.00  0.00    +0.000 A 
ATOM     26  C   UNL     1      46.271   1.170   8.087  0.00  0.00    +0.000 A 
ATOM     27  C   UNL     1      47.439   1.204   7.321  0.00  0.00    +0.000 A 
ATOM     28  C   UNL     1      47.745   2.331   6.560  0.00  0.00    +0.000 A 
ATOM     29  C   UNL     1      46.881   3.424   6.561  0.00  0.00    +0.000 A 
ATOM     30  C   UNL     1      45.716   3.389   7.328  0.00  0.00    +0.000 A 
ENDBRANCH  24  25
ENDBRANCH  23  24
ENDBRANCH  20  23
ENDBRANCH  16  17
ENDBRANCH   3  16
TORSDOF 6
ENDMDL
