MODEL 1
REMARK VINA RESULT:    -9.615      0.000      0.000
REMARK INTER + INTRA:         -13.849
REMARK INTER:                 -12.988
REMARK INTRA:                  -0.861
REMARK UNBOUND:                -0.861
REMARK  Name = 
REMARK  6 active torsions:
REMARK  status: ('A' for Active; 'I' for Inactive)
REMARK    1  A    between atoms: C_2  and  C_4
REMARK    2  A    between atoms: N_8  and  C_9
REMARK    3  A    between atoms: C_9  and  C_10
REMARK    4  A    between atoms: C_10  and  C_13
REMARK    5  A    between atoms: C_18  and  O_19
REMARK    6  A    between atoms: O_19  and  C_20
REMARK                            x       y       z     vdW  Elec       q    Type
REMARK                         _______ _______ _______ _____ _____    ______ ____
ROOT
ATOM      1  C   UNL     1      43.494   5.549  12.168  0.00  0.00    +0.000 C 
ATOM      2  F   UNL     1      43.037   6.713  11.614  0.00  0.00    +0.000 F 
ATOM      3  F   UNL     1      42.725   5.357  13.282  0.00  0.00    +0.000 F 
ENDROOT
BRANCH   1   4
ATOM      4  C   UNL     1      44.967   5.639  12.533  0.00  0.00    +0.000 A 
ATOM      5  C   UNL     1      45.787   6.626  11.969  0.00  0.00    +0.000 A 
ATOM      6  C   UNL     1      47.127   6.708  12.338  0.00  0.00    +0.000 A 
ATOM      7  F   UNL     1      47.900   7.656  11.792  0.00  0.00    +0.000 F 
ATOM      8  C   UNL     1      47.673   5.831  13.266  0.00  0.00    +0.000 A 
ATOM      9  C   UNL     1      46.866   4.852  13.846  0.00  0.00    +0.000 A 
ATOM     10  C   UNL     1      45.526   4.743  13.466  0.00  0.00    +0.000 A 
BRANCH   9  11
ATOM     11  O   UNL     1      47.484   4.035  14.760  0.00  0.00    +0.000 OA
BRANCH  11  12
ATOM     12  C   UNL     1      47.318   4.322  16.170  0.00  0.00    +0.000 C 
ATOM     13  C   UNL     1      48.477   5.027  16.906  0.00  0.00    +0.000 C 
ATOM     14  N   UNL     1      48.466   3.991  17.948  0.00  0.00    +0.000 NA
ATOM     15  C   UNL     1      47.594   3.141  17.124  0.00  0.00    +0.000 C 
ATOM     16  H   UNL     1      48.048   4.289  18.829  0.00  0.00    +0.000 HD
ENDBRANCH  11  12
ENDBRANCH   9  11
ENDBRANCH   1   4
BRANCH   1  17
ATOM     17  C   UNL     1      43.217   4.395  11.164  0.00  0.00    +0.000 C 
BRANCH  17  22
ATOM     18  C   UNL     1      46.468   2.488   7.701  0.00  0.00    +0.000 A 
ATOM     19  C   UNL     1      45.660   1.823   8.616  0.00  0.00    +0.000 A 
ATOM     20  C   UNL     1      44.726   2.554   9.353  0.00  0.00    +0.000 A 
ATOM     21  C   UNL     1      44.624   3.931   9.177  0.00  0.00    +0.000 A 
ATOM     22  N   UNL     1      43.665   4.705   9.800  0.00  0.00    +0.000 N 
ATOM     23  N   UNL     1      45.424   4.586   8.313  0.00  0.00    +0.000 NA
ATOM     24  C   UNL     1      46.329   3.860   7.599  0.00  0.00    +0.000 A 
ATOM     25  H   UNL     1      43.872   5.685   9.613  0.00  0.00    +0.000 HD
BRANCH  18  27
ATOM     26  N   UNL     1      48.518   2.528   6.395  0.00  0.00    +0.000 N 
ATOM     27  C   UNL     1      47.455   1.793   6.845  0.00  0.00    +0.000 C 
ATOM     28  O   UNL     1      47.349   0.604   6.580  0.00  0.00    +0.000 OA
ATOM     29  H   UNL     1      49.242   2.013   5.906  0.00  0.00    +0.000 HD
ATOM     30  H   UNL     1      48.776   3.416   6.799  0.00  0.00    +0.000 HD
ENDBRANCH  18  27
ENDBRANCH  17  22
ENDBRANCH   1  17
TORSDOF 6
ENDMDL
MODEL 2
REMARK VINA RESULT:    -9.165      1.170      1.409
REMARK INTER + INTRA:         -13.241
REMARK INTER:                 -12.315
REMARK INTRA:                  -0.926
REMARK UNBOUND:                -0.861
REMARK  Name = 
REMARK  6 active torsions:
REMARK  status: ('A' for Active; 'I' for Inactive)
REMARK    1  A    between atoms: C_2  and  C_4
REMARK    2  A    between atoms: N_8  and  C_9
REMARK    3  A    between atoms: C_9  and  C_10
REMARK    4  A    between atoms: C_10  and  C_13
REMARK    5  A    between atoms: C_18  and  O_19
REMARK    6  A    between atoms: O_19  and  C_20
REMARK                            x       y       z     vdW  Elec       q    Type
REMARK                         _______ _______ _______ _____ _____    ______ ____
ROOT
ATOM      1  C   UNL     1      43.519   4.547  12.649  0.00  0.00    +0.000 C 
ATOM      2  F   UNL     1      42.600   5.550  12.792  0.00  0.00    +0.000 F 
ATOM      3  F   UNL     1      43.181   3.615  13.590  0.00  0.00    +0.000 F 
ENDROOT
BRANCH   1   4
ATOM      4  C   UNL     1      44.937   5.048  12.863  0.00  0.00    +0.000 A 
ATOM      5  C   UNL     1      45.482   6.038  12.035  0.00  0.00    +0.000 A 
ATOM      6  C   UNL     1      46.774   6.503  12.266  0.00  0.00    +0.000 A 
ATOM      7  F   UNL     1      47.283   7.449  11.467  0.00  0.00    +0.000 F 
ATOM      8  C   UNL     1      47.540   6.008  13.315  0.00  0.00    +0.000 A 
ATOM      9  C   UNL     1      47.006   5.033  14.156  0.00  0.00    +0.000 A 
ATOM     10  C   UNL     1      45.721   4.540  13.920  0.00  0.00    +0.000 A 
BRANCH   9  11
ATOM     11  O   UNL     1      47.828   4.608  15.171  0.00  0.00    +0.000 OA
BRANCH  11  12
ATOM     12  C   UNL     1      47.231   3.943  16.312  0.00  0.00    +0.000 C 
ATOM     13  C   UNL     1      47.308   4.649  17.682  0.00  0.00    +0.000 C 
ATOM     14  N   UNL     1      47.864   3.433  18.294  0.00  0.00    +0.000 NA
ATOM     15  C   UNL     1      48.096   2.845  16.966  0.00  0.00    +0.000 C 
ATOM     16  H   UNL     1      47.203   2.916  18.871  0.00  0.00    +0.000 HD
ENDBRANCH  11  12
ENDBRANCH   9  11
ENDBRANCH   1   4
BRANCH   1  17
ATOM     17  C   UNL     1      43.335   3.922  11.237  0.00  0.00    +0.000 C 
BRANCH  17  22
ATOM     18  C   UNL     1      46.494   2.842   7.357  0.00  0.00    +0.000 A 
ATOM     19  C   UNL     1      46.073   4.076   7.838  0.00  0.00    +0.000 A 
ATOM     20  C   UNL     1      45.334   4.127   9.022  0.00  0.00    +0.000 A 
ATOM     21  C   UNL     1      45.014   2.951   9.694  0.00  0.00    +0.000 A 
ATOM     22  N   UNL     1      44.367   2.927  10.914  0.00  0.00    +0.000 N 
ATOM     23  N   UNL     1      45.393   1.748   9.218  0.00  0.00    +0.000 NA
ATOM     24  C   UNL     1      46.116   1.715   8.064  0.00  0.00    +0.000 A 
ATOM     25  H   UNL     1      44.138   1.960  11.138  0.00  0.00    +0.000 HD
BRANCH  18  27
ATOM     26  N   UNL     1      48.651   2.434   6.312  0.00  0.00    +0.000 N 
ATOM     27  C   UNL     1      47.318   2.691   6.137  0.00  0.00    +0.000 C 
ATOM     28  O   UNL     1      46.826   2.756   5.020  0.00  0.00    +0.000 OA
ATOM     29  H   UNL     1      49.179   2.221   5.473  0.00  0.00    +0.000 HD
ATOM     30  H   UNL     1      49.034   2.117   7.191  0.00  0.00    +0.000 HD
ENDBRANCH  18  27
ENDBRANCH  17  22
ENDBRANCH   1  17
TORSDOF 6
ENDMDL
MODEL 3
REMARK VINA RESULT:    -9.079      2.390      3.290
REMARK INTER + INTRA:         -13.125
REMARK INTER:                 -12.185
REMARK INTRA:                  -0.939
REMARK UNBOUND:                -0.861
REMARK  Name = 
REMARK  6 active torsions:
REMARK  status: ('A' for Active; 'I' for Inactive)
REMARK    1  A    between atoms: C_2  and  C_4
REMARK    2  A    between atoms: N_8  and  C_9
REMARK    3  A    between atoms: C_9  and  C_10
REMARK    4  A    between atoms: C_10  and  C_13
REMARK    5  A    between atoms: C_18  and  O_19
REMARK    6  A    between atoms: O_19  and  C_20
REMARK                            x       y       z     vdW  Elec       q    Type
REMARK                         _______ _______ _______ _____ _____    ______ ____
ROOT
ATOM      1  C   UNL     1      43.435   5.534  12.188  0.00  0.00    +0.000 C 
ATOM      2  F   UNL     1      43.094   6.723  11.605  0.00  0.00    +0.000 F 
ATOM      3  F   UNL     1      42.535   5.361  13.202  0.00  0.00    +0.000 F 
ENDROOT
BRANCH   1   4
ATOM      4  C   UNL     1      44.858   5.557  12.721  0.00  0.00    +0.000 A 
ATOM      5  C   UNL     1      45.445   4.400  13.250  0.00  0.00    +0.000 A 
ATOM      6  C   UNL     1      46.759   4.436  13.708  0.00  0.00    +0.000 A 
ATOM      7  F   UNL     1      47.308   3.323  14.211  0.00  0.00    +0.000 F 
ATOM      8  C   UNL     1      47.512   5.601  13.645  0.00  0.00    +0.000 A 
ATOM      9  C   UNL     1      46.946   6.757  13.108  0.00  0.00    +0.000 A 
ATOM     10  C   UNL     1      45.620   6.741  12.668  0.00  0.00    +0.000 A 
BRANCH   9  11
ATOM     11  O   UNL     1      47.763   7.861  13.076  0.00  0.00    +0.000 OA
BRANCH  11  12
ATOM     12  C   UNL     1      48.494   8.145  11.858  0.00  0.00    +0.000 C 
ATOM     13  C   UNL     1      49.977   7.722  11.789  0.00  0.00    +0.000 C 
ATOM     14  N   UNL     1      50.360   9.078  11.372  0.00  0.00    +0.000 NA
ATOM     15  C   UNL     1      49.027   9.587  11.726  0.00  0.00    +0.000 C 
ATOM     16  H   UNL     1      50.591   9.161  10.382  0.00  0.00    +0.000 HD
ENDBRANCH  11  12
ENDBRANCH   9  11
ENDBRANCH   1   4
BRANCH   1  17
ATOM     17  C   UNL     1      43.230   4.405  11.138  0.00  0.00    +0.000 C 
BRANCH  17  22
ATOM     18  C   UNL     1      46.524   2.520   7.704  0.00  0.00    +0.000 A 
ATOM     19  C   UNL     1      45.651   1.849   8.554  0.00  0.00    +0.000 A 
ATOM     20  C   UNL     1      44.723   2.587   9.292  0.00  0.00    +0.000 A 
ATOM     21  C   UNL     1      44.691   3.974   9.183  0.00  0.00    +0.000 A 
ATOM     22  N   UNL     1      43.745   4.761   9.809  0.00  0.00    +0.000 N 
ATOM     23  N   UNL     1      45.553   4.633   8.384  0.00  0.00    +0.000 NA
ATOM     24  C   UNL     1      46.451   3.900   7.668  0.00  0.00    +0.000 A 
ATOM     25  H   UNL     1      44.002   5.738   9.680  0.00  0.00    +0.000 HD
BRANCH  18  27
ATOM     26  N   UNL     1      48.604   2.539   6.446  0.00  0.00    +0.000 N 
ATOM     27  C   UNL     1      47.511   1.822   6.850  0.00  0.00    +0.000 C 
ATOM     28  O   UNL     1      47.379   0.645   6.549  0.00  0.00    +0.000 OA
ATOM     29  H   UNL     1      49.325   2.019   5.958  0.00  0.00    +0.000 HD
ATOM     30  H   UNL     1      48.877   3.409   6.881  0.00  0.00    +0.000 HD
ENDBRANCH  18  27
ENDBRANCH  17  22
ENDBRANCH   1  17
TORSDOF 6
ENDMDL
MODEL 4
REMARK VINA RESULT:    -8.463      2.502      2.904
REMARK INTER + INTRA:         -12.292
REMARK INTER:                 -11.514
REMARK INTRA:                  -0.778
REMARK UNBOUND:                -0.861
REMARK  Name = 
REMARK  6 active torsions:
REMARK  status: ('A' for Active; 'I' for Inactive)
REMARK    1  A    between atoms: C_2  and  C_4
REMARK    2  A    between atoms: N_8  and  C_9
REMARK    3  A    between atoms: C_9  and  C_10
REMARK    4  A    between atoms: C_10  and  C_13
REMARK    5  A    between atoms: C_18  and  O_19
REMARK    6  A    between atoms: O_19  and  C_20
REMARK                            x       y       z     vdW  Elec       q    Type
REMARK                         _______ _______ _______ _____ _____    ______ ____
ROOT
ATOM      1  C   UNL     1      44.427   4.598  12.314  0.00  0.00    +0.000 C 
ATOM      2  F   UNL     1      43.781   4.429  13.507  0.00  0.00    +0.000 F 
ATOM      3  F   UNL     1      45.239   3.505  12.189  0.00  0.00    +0.000 F 
ENDROOT
BRANCH   1   4
ATOM      4  C   UNL     1      45.237   5.883  12.289  0.00  0.00    +0.000 A 
ATOM      5  C   UNL     1      44.610   7.130  12.409  0.00  0.00    +0.000 A 
ATOM      6  C   UNL     1      45.374   8.294  12.412  0.00  0.00    +0.000 A 
ATOM      7  F   UNL     1      44.762   9.479  12.528  0.00  0.00    +0.000 F 
ATOM      8  C   UNL     1      46.758   8.246  12.305  0.00  0.00    +0.000 A 
ATOM      9  C   UNL     1      47.398   7.012  12.199  0.00  0.00    +0.000 A 
ATOM     10  C   UNL     1      46.642   5.838  12.170  0.00  0.00    +0.000 A 
BRANCH   9  11
ATOM     11  O   UNL     1      48.768   7.057  12.107  0.00  0.00    +0.000 OA
BRANCH  11  12
ATOM     12  C   UNL     1      49.485   8.019  12.919  0.00  0.00    +0.000 C 
ATOM     13  C   UNL     1      50.964   8.295  12.575  0.00  0.00    +0.000 C 
ATOM     14  N   UNL     1      51.350   8.050  13.972  0.00  0.00    +0.000 NA
ATOM     15  C   UNL     1      50.025   7.483  14.261  0.00  0.00    +0.000 C 
ATOM     16  H   UNL     1      51.568   8.894  14.499  0.00  0.00    +0.000 HD
ENDBRANCH  11  12
ENDBRANCH   9  11
ENDBRANCH   1   4
BRANCH   1  17
ATOM     17  C   UNL     1      43.364   4.564  11.180  0.00  0.00    +0.000 C 
BRANCH  17  22
ATOM     18  C   UNL     1      46.507   2.543   7.682  0.00  0.00    +0.000 A 
ATOM     19  C   UNL     1      45.574   1.916   8.500  0.00  0.00    +0.000 A 
ATOM     20  C   UNL     1      44.708   2.700   9.265  0.00  0.00    +0.000 A 
ATOM     21  C   UNL     1      44.795   4.088   9.214  0.00  0.00    +0.000 A 
ATOM     22  N   UNL     1      43.916   4.928   9.868  0.00  0.00    +0.000 N 
ATOM     23  N   UNL     1      45.716   4.702   8.445  0.00  0.00    +0.000 NA
ATOM     24  C   UNL     1      46.552   3.925   7.702  0.00  0.00    +0.000 A 
ATOM     25  H   UNL     1      44.257   5.884   9.780  0.00  0.00    +0.000 HD
BRANCH  18  27
ATOM     26  N   UNL     1      48.541   2.469   6.352  0.00  0.00    +0.000 N 
ATOM     27  C   UNL     1      47.436   1.799   6.803  0.00  0.00    +0.000 C 
ATOM     28  O   UNL     1      47.248   0.624   6.521  0.00  0.00    +0.000 OA
ATOM     29  H   UNL     1      49.223   1.916   5.846  0.00  0.00    +0.000 HD
ATOM     30  H   UNL     1      48.861   3.332   6.766  0.00  0.00    +0.000 HD
ENDBRANCH  18  27
ENDBRANCH  17  22
ENDBRANCH   1  17
TORSDOF 6
ENDMDL
MODEL 5
REMARK VINA RESULT:    -8.362      3.047      4.735
REMARK INTER + INTRA:         -12.155
REMARK INTER:                 -11.494
REMARK INTRA:                  -0.662
REMARK UNBOUND:                -0.861
REMARK  Name = 
REMARK  6 active torsions:
REMARK  status: ('A' for Active; 'I' for Inactive)
REMARK    1  A    between atoms: C_2  and  C_4
REMARK    2  A    between atoms: N_8  and  C_9
REMARK    3  A    between atoms: C_9  and  C_10
REMARK    4  A    between atoms: C_10  and  C_13
REMARK    5  A    between atoms: C_18  and  O_19
REMARK    6  A    between atoms: O_19  and  C_20
REMARK                            x       y       z     vdW  Elec       q    Type
REMARK                         _______ _______ _______ _____ _____    ______ ____
ROOT
ATOM      1  C   UNL     1      44.483   4.745  12.265  0.00  0.00    +0.000 C 
ATOM      2  F   UNL     1      43.863   4.575  13.472  0.00  0.00    +0.000 F 
ATOM      3  F   UNL     1      45.376   3.714  12.173  0.00  0.00    +0.000 F 
ENDROOT
BRANCH   1   4
ATOM      4  C   UNL     1      45.191   6.087  12.180  0.00  0.00    +0.000 A 
ATOM      5  C   UNL     1      46.585   6.173  12.303  0.00  0.00    +0.000 A 
ATOM      6  C   UNL     1      47.216   7.409  12.194  0.00  0.00    +0.000 A 
ATOM      7  F   UNL     1      48.548   7.477  12.313  0.00  0.00    +0.000 F 
ATOM      8  C   UNL     1      46.490   8.569  11.956  0.00  0.00    +0.000 A 
ATOM      9  C   UNL     1      45.105   8.498  11.818  0.00  0.00    +0.000 A 
ATOM     10  C   UNL     1      44.456   7.268  11.950  0.00  0.00    +0.000 A 
BRANCH   9  11
ATOM     11  O   UNL     1      44.468   9.691  11.576  0.00  0.00    +0.000 OA
BRANCH  11  12
ATOM     12  C   UNL     1      43.571   9.778  10.442  0.00  0.00    +0.000 C 
ATOM     13  C   UNL     1      43.463  11.132   9.708  0.00  0.00    +0.000 C 
ATOM     14  N   UNL     1      41.998  11.098   9.828  0.00  0.00    +0.000 NA
ATOM     15  C   UNL     1      42.082   9.988  10.789  0.00  0.00    +0.000 C 
ATOM     16  H   UNL     1      41.513  10.867   8.963  0.00  0.00    +0.000 HD
ENDBRANCH  11  12
ENDBRANCH   9  11
ENDBRANCH   1   4
BRANCH   1  17
ATOM     17  C   UNL     1      43.415   4.584  11.147  0.00  0.00    +0.000 C 
BRANCH  17  22
ATOM     18  C   UNL     1      46.550   2.545   7.651  0.00  0.00    +0.000 A 
ATOM     19  C   UNL     1      45.653   1.918   8.509  0.00  0.00    +0.000 A 
ATOM     20  C   UNL     1      44.778   2.700   9.266  0.00  0.00    +0.000 A 
ATOM     21  C   UNL     1      44.822   4.088   9.168  0.00  0.00    +0.000 A 
ATOM     22  N   UNL     1      43.930   4.921   9.813  0.00  0.00    +0.000 N 
ATOM     23  N   UNL     1      45.708   4.703   8.360  0.00  0.00    +0.000 NA
ATOM     24  C   UNL     1      46.553   3.928   7.626  0.00  0.00    +0.000 A 
ATOM     25  H   UNL     1      44.240   5.883   9.687  0.00  0.00    +0.000 HD
BRANCH  18  27
ATOM     26  N   UNL     1      48.553   2.491   6.274  0.00  0.00    +0.000 N 
ATOM     27  C   UNL     1      47.484   1.800   6.778  0.00  0.00    +0.000 C 
ATOM     28  O   UNL     1      47.333   0.610   6.546  0.00  0.00    +0.000 OA
ATOM     29  H   UNL     1      49.243   1.943   5.772  0.00  0.00    +0.000 HD
ATOM     30  H   UNL     1      48.851   3.381   6.647  0.00  0.00    +0.000 HD
ENDBRANCH  18  27
ENDBRANCH  17  22
ENDBRANCH   1  17
TORSDOF 6
ENDMDL
MODEL 6
REMARK VINA RESULT:    -8.180      2.218      7.958
REMARK INTER + INTRA:         -11.910
REMARK INTER:                 -11.251
REMARK INTRA:                  -0.659
REMARK UNBOUND:                -0.861
REMARK  Name = 
REMARK  6 active torsions:
REMARK  status: ('A' for Active; 'I' for Inactive)
REMARK    1  A    between atoms: C_2  and  C_4
REMARK    2  A    between atoms: N_8  and  C_9
REMARK    3  A    between atoms: C_9  and  C_10
REMARK    4  A    between atoms: C_10  and  C_13
REMARK    5  A    between atoms: C_18  and  O_19
REMARK    6  A    between atoms: O_19  and  C_20
REMARK                            x       y       z     vdW  Elec       q    Type
REMARK                         _______ _______ _______ _____ _____    ______ ____
ROOT
ATOM      1  C   UNL     1      45.735   6.190  11.341  0.00  0.00    +0.000 C 
ATOM      2  F   UNL     1      44.873   7.230  11.126  0.00  0.00    +0.000 F 
ATOM      3  F   UNL     1      46.949   6.635  10.899  0.00  0.00    +0.000 F 
ENDROOT
BRANCH   1   4
ATOM      4  C   UNL     1      45.307   4.940  10.592  0.00  0.00    +0.000 A 
ATOM      5  C   UNL     1      44.507   3.970  11.211  0.00  0.00    +0.000 A 
ATOM      6  C   UNL     1      44.103   2.845  10.497  0.00  0.00    +0.000 A 
ATOM      7  F   UNL     1      43.339   1.926  11.100  0.00  0.00    +0.000 F 
ATOM      8  C   UNL     1      44.472   2.664   9.170  0.00  0.00    +0.000 A 
ATOM      9  C   UNL     1      45.256   3.627   8.536  0.00  0.00    +0.000 A 
ATOM     10  C   UNL     1      45.689   4.748   9.248  0.00  0.00    +0.000 A 
BRANCH   9  11
ATOM     11  O   UNL     1      45.566   3.373   7.222  0.00  0.00    +0.000 OA
BRANCH  11  12
ATOM     12  C   UNL     1      46.959   3.216   6.858  0.00  0.00    +0.000 C 
ATOM     13  C   UNL     1      47.288   2.869   5.390  0.00  0.00    +0.000 C 
ATOM     14  N   UNL     1      48.118   1.738   5.828  0.00  0.00    +0.000 NA
ATOM     15  C   UNL     1      47.582   1.845   7.193  0.00  0.00    +0.000 C 
ATOM     16  H   UNL     1      49.121   1.904   5.758  0.00  0.00    +0.000 HD
ENDBRANCH  11  12
ENDBRANCH   9  11
ENDBRANCH   1   4
BRANCH   1  17
ATOM     17  C   UNL     1      45.820   5.944  12.874  0.00  0.00    +0.000 C 
BRANCH  17  22
ATOM     18  C   UNL     1      48.473   4.416  16.976  0.00  0.00    +0.000 A 
ATOM     19  C   UNL     1      47.469   3.757  16.275  0.00  0.00    +0.000 A 
ATOM     20  C   UNL     1      47.003   4.306  15.080  0.00  0.00    +0.000 A 
ATOM     21  C   UNL     1      47.532   5.506  14.612  0.00  0.00    +0.000 A 
ATOM     22  N   UNL     1      47.189   6.062  13.396  0.00  0.00    +0.000 N 
ATOM     23  N   UNL     1      48.485   6.165  15.300  0.00  0.00    +0.000 NA
ATOM     24  C   UNL     1      48.932   5.616  16.463  0.00  0.00    +0.000 A 
ATOM     25  H   UNL     1      47.608   6.989  13.336  0.00  0.00    +0.000 HD
BRANCH  18  27
ATOM     26  N   UNL     1      48.230   3.190  19.062  0.00  0.00    +0.000 N 
ATOM     27  C   UNL     1      49.061   3.888  18.228  0.00  0.00    +0.000 C 
ATOM     28  O   UNL     1      50.245   4.035  18.491  0.00  0.00    +0.000 OA
ATOM     29  H   UNL     1      48.670   2.740  19.856  0.00  0.00    +0.000 HD
ATOM     30  H   UNL     1      47.336   2.828  18.762  0.00  0.00    +0.000 HD
ENDBRANCH  18  27
ENDBRANCH  17  22
ENDBRANCH   1  17
TORSDOF 6
ENDMDL
MODEL 7
REMARK VINA RESULT:    -7.403      3.325      7.483
REMARK INTER + INTRA:         -10.860
REMARK INTER:                 -10.127
REMARK INTRA:                  -0.733
REMARK UNBOUND:                -0.861
REMARK  Name = 
REMARK  6 active torsions:
REMARK  status: ('A' for Active; 'I' for Inactive)
REMARK    1  A    between atoms: C_2  and  C_4
REMARK    2  A    between atoms: N_8  and  C_9
REMARK    3  A    between atoms: C_9  and  C_10
REMARK    4  A    between atoms: C_10  and  C_13
REMARK    5  A    between atoms: C_18  and  O_19
REMARK    6  A    between atoms: O_19  and  C_20
REMARK                            x       y       z     vdW  Elec       q    Type
REMARK                         _______ _______ _______ _____ _____    ______ ____
ROOT
ATOM      1  C   UNL     1      44.557   5.936  11.464  0.00  0.00    +0.000 C 
ATOM      2  F   UNL     1      43.258   6.069  11.868  0.00  0.00    +0.000 F 
ATOM      3  F   UNL     1      44.869   7.124  10.863  0.00  0.00    +0.000 F 
ENDROOT
BRANCH   1   4
ATOM      4  C   UNL     1      44.730   4.776  10.498  0.00  0.00    +0.000 A 
ATOM      5  C   UNL     1      44.122   3.538  10.746  0.00  0.00    +0.000 A 
ATOM      6  C   UNL     1      44.271   2.497   9.833  0.00  0.00    +0.000 A 
ATOM      7  F   UNL     1      43.683   1.320  10.082  0.00  0.00    +0.000 F 
ATOM      8  C   UNL     1      45.009   2.661   8.668  0.00  0.00    +0.000 A 
ATOM      9  C   UNL     1      45.609   3.891   8.401  0.00  0.00    +0.000 A 
ATOM     10  C   UNL     1      45.489   4.936   9.320  0.00  0.00    +0.000 A 
BRANCH   9  11
ATOM     11  O   UNL     1      46.312   3.968   7.224  0.00  0.00    +0.000 OA
BRANCH  11  12
ATOM     12  C   UNL     1      46.676   2.737   6.553  0.00  0.00    +0.000 C 
ATOM     13  C   UNL     1      48.030   2.090   6.911  0.00  0.00    +0.000 C 
ATOM     14  N   UNL     1      48.390   2.019   5.487  0.00  0.00    +0.000 NA
ATOM     15  C   UNL     1      47.268   2.904   5.138  0.00  0.00    +0.000 C 
ATOM     16  H   UNL     1      48.326   1.084   5.087  0.00  0.00    +0.000 HD
ENDBRANCH  11  12
ENDBRANCH   9  11
ENDBRANCH   1   4
BRANCH   1  17
ATOM     17  C   UNL     1      45.442   5.769  12.731  0.00  0.00    +0.000 C 
BRANCH  17  22
ATOM     18  C   UNL     1      49.832   8.403  12.687  0.00  0.00    +0.000 A 
ATOM     19  C   UNL     1      49.270   7.601  11.699  0.00  0.00    +0.000 A 
ATOM     20  C   UNL     1      47.975   7.112  11.877  0.00  0.00    +0.000 A 
ATOM     21  C   UNL     1      47.268   7.417  13.037  0.00  0.00    +0.000 A 
ATOM     22  N   UNL     1      45.954   7.049  13.243  0.00  0.00    +0.000 N 
ATOM     23  N   UNL     1      47.817   8.170  14.012  0.00  0.00    +0.000 NA
ATOM     24  C   UNL     1      49.080   8.641  13.823  0.00  0.00    +0.000 A 
ATOM     25  H   UNL     1      45.702   7.275  14.204  0.00  0.00    +0.000 HD
BRANCH  18  27
ATOM     26  N   UNL     1      52.233   8.141  12.412  0.00  0.00    +0.000 N 
ATOM     27  C   UNL     1      51.180   9.001  12.568  0.00  0.00    +0.000 C 
ATOM     28  O   UNL     1      51.345  10.212  12.571  0.00  0.00    +0.000 OA
ATOM     29  H   UNL     1      53.133   8.567  12.219  0.00  0.00    +0.000 HD
ATOM     30  H   UNL     1      52.113   7.175  12.145  0.00  0.00    +0.000 HD
ENDBRANCH  18  27
ENDBRANCH  17  22
ENDBRANCH   1  17
TORSDOF 6
ENDMDL
MODEL 8
REMARK VINA RESULT:    -7.195      2.770      8.155
REMARK INTER + INTRA:         -10.580
REMARK INTER:                 -10.043
REMARK INTRA:                  -0.536
REMARK UNBOUND:                -0.861
REMARK  Name = 
REMARK  6 active torsions:
REMARK  status: ('A' for Active; 'I' for Inactive)
REMARK    1  A    between atoms: C_2  and  C_4
REMARK    2  A    between atoms: N_8  and  C_9
REMARK    3  A    between atoms: C_9  and  C_10
REMARK    4  A    between atoms: C_10  and  C_13
REMARK    5  A    between atoms: C_18  and  O_19
REMARK    6  A    between atoms: O_19  and  C_20
REMARK                            x       y       z     vdW  Elec       q    Type
REMARK                         _______ _______ _______ _____ _____    ______ ____
ROOT
ATOM      1  C   UNL     1      45.386   6.276  11.548  0.00  0.00    +0.000 C 
ATOM      2  F   UNL     1      44.531   6.178  12.611  0.00  0.00    +0.000 F 
ATOM      3  F   UNL     1      45.058   7.452  10.933  0.00  0.00    +0.000 F 
ENDROOT
BRANCH   1   4
ATOM      4  C   UNL     1      45.236   5.103  10.595  0.00  0.00    +0.000 A 
ATOM      5  C   UNL     1      44.492   3.973  10.958  0.00  0.00    +0.000 A 
ATOM      6  C   UNL     1      44.345   2.921  10.058  0.00  0.00    +0.000 A 
ATOM      7  F   UNL     1      43.631   1.846  10.418  0.00  0.00    +0.000 F 
ATOM      8  C   UNL     1      44.917   2.970   8.793  0.00  0.00    +0.000 A 
ATOM      9  C   UNL     1      45.649   4.094   8.412  0.00  0.00    +0.000 A 
ATOM     10  C   UNL     1      45.825   5.145   9.314  0.00  0.00    +0.000 A 
BRANCH   9  11
ATOM     11  O   UNL     1      46.171   4.063   7.142  0.00  0.00    +0.000 OA
BRANCH  11  12
ATOM     12  C   UNL     1      46.556   2.783   6.583  0.00  0.00    +0.000 C 
ATOM     13  C   UNL     1      47.926   2.199   6.988  0.00  0.00    +0.000 C 
ATOM     14  N   UNL     1      48.278   2.005   5.573  0.00  0.00    +0.000 NA
ATOM     15  C   UNL     1      47.135   2.831   5.154  0.00  0.00    +0.000 C 
ATOM     16  H   UNL     1      48.231   1.036   5.260  0.00  0.00    +0.000 HD
ENDBRANCH  11  12
ENDBRANCH   9  11
ENDBRANCH   1   4
BRANCH   1  17
ATOM     17  C   UNL     1      46.834   6.389  12.103  0.00  0.00    +0.000 C 
BRANCH  17  22
ATOM     18  C   UNL     1      50.320   6.974  15.805  0.00  0.00    +0.000 A 
ATOM     19  C   UNL     1      50.186   7.656  14.600  0.00  0.00    +0.000 A 
ATOM     20  C   UNL     1      49.050   7.434  13.819  0.00  0.00    +0.000 A 
ATOM     21  C   UNL     1      48.080   6.529  14.241  0.00  0.00    +0.000 A 
ATOM     22  N   UNL     1      46.890   6.326  13.570  0.00  0.00    +0.000 N 
ATOM     23  N   UNL     1      48.217   5.844  15.393  0.00  0.00    +0.000 NA
ATOM     24  C   UNL     1      49.329   6.073  16.147  0.00  0.00    +0.000 A 
ATOM     25  H   UNL     1      46.409   5.538  13.999  0.00  0.00    +0.000 HD
BRANCH  18  27
ATOM     26  N   UNL     1      51.705   6.196  17.645  0.00  0.00    +0.000 N 
ATOM     27  C   UNL     1      51.465   7.176  16.720  0.00  0.00    +0.000 C 
ATOM     28  O   UNL     1      52.190   8.156  16.633  0.00  0.00    +0.000 OA
ATOM     29  H   UNL     1      52.556   6.293  18.188  0.00  0.00    +0.000 HD
ATOM     30  H   UNL     1      51.304   5.272  17.577  0.00  0.00    +0.000 HD
ENDBRANCH  18  27
ENDBRANCH  17  22
ENDBRANCH   1  17
TORSDOF 6
ENDMDL
MODEL 9
REMARK VINA RESULT:    -7.172      2.147      8.042
REMARK INTER + INTRA:         -10.548
REMARK INTER:                 -10.161
REMARK INTRA:                  -0.387
REMARK UNBOUND:                -0.861
REMARK  Name = 
REMARK  6 active torsions:
REMARK  status: ('A' for Active; 'I' for Inactive)
REMARK    1  A    between atoms: C_2  and  C_4
REMARK    2  A    between atoms: N_8  and  C_9
REMARK    3  A    between atoms: C_9  and  C_10
REMARK    4  A    between atoms: C_10  and  C_13
REMARK    5  A    between atoms: C_18  and  O_19
REMARK    6  A    between atoms: O_19  and  C_20
REMARK                            x       y       z     vdW  Elec       q    Type
REMARK                         _______ _______ _______ _____ _____    ______ ____
ROOT
ATOM      1  C   UNL     1      46.518   6.519  12.353  0.00  0.00    +0.000 C 
ATOM      2  F   UNL     1      46.155   7.638  13.051  0.00  0.00    +0.000 F 
ATOM      3  F   UNL     1      47.213   6.983  11.271  0.00  0.00    +0.000 F 
ENDROOT
BRANCH   1   4
ATOM      4  C   UNL     1      45.308   5.710  11.918  0.00  0.00    +0.000 A 
ATOM      5  C   UNL     1      44.011   6.212  12.084  0.00  0.00    +0.000 A 
ATOM      6  C   UNL     1      42.917   5.465  11.653  0.00  0.00    +0.000 A 
ATOM      7  F   UNL     1      41.683   5.956  11.817  0.00  0.00    +0.000 F 
ATOM      8  C   UNL     1      43.085   4.226  11.048  0.00  0.00    +0.000 A 
ATOM      9  C   UNL     1      44.371   3.719  10.864  0.00  0.00    +0.000 A 
ATOM     10  C   UNL     1      45.475   4.446  11.315  0.00  0.00    +0.000 A 
BRANCH   9  11
ATOM     11  O   UNL     1      44.446   2.492  10.250  0.00  0.00    +0.000 OA
BRANCH  11  12
ATOM     12  C   UNL     1      44.691   2.446   8.823  0.00  0.00    +0.000 C 
ATOM     13  C   UNL     1      46.027   1.843   8.339  0.00  0.00    +0.000 C 
ATOM     14  N   UNL     1      46.286   3.037   7.521  0.00  0.00    +0.000 NA
ATOM     15  C   UNL     1      45.198   3.760   8.195  0.00  0.00    +0.000 C 
ATOM     16  H   UNL     1      46.142   2.899   6.522  0.00  0.00    +0.000 HD
ENDBRANCH  11  12
ENDBRANCH   9  11
ENDBRANCH   1   4
BRANCH   1  17
ATOM     17  C   UNL     1      47.480   5.686  13.246  0.00  0.00    +0.000 C 
BRANCH  17  22
ATOM     18  C   UNL     1      48.602   4.599  18.121  0.00  0.00    +0.000 A 
ATOM     19  C   UNL     1      49.010   5.672  17.337  0.00  0.00    +0.000 A 
ATOM     20  C   UNL     1      48.439   5.847  16.075  0.00  0.00    +0.000 A 
ATOM     21  C   UNL     1      47.486   4.944  15.611  0.00  0.00    +0.000 A 
ATOM     22  N   UNL     1      46.811   5.102  14.417  0.00  0.00    +0.000 N 
ATOM     23  N   UNL     1      47.107   3.885  16.354  0.00  0.00    +0.000 NA
ATOM     24  C   UNL     1      47.671   3.730  17.583  0.00  0.00    +0.000 A 
ATOM     25  H   UNL     1      46.265   4.260  14.242  0.00  0.00    +0.000 HD
BRANCH  18  27
ATOM     26  N   UNL     1      48.324   3.633  20.334  0.00  0.00    +0.000 N 
ATOM     27  C   UNL     1      49.118   4.358  19.486  0.00  0.00    +0.000 C 
ATOM     28  O   UNL     1      50.221   4.753  19.834  0.00  0.00    +0.000 OA
ATOM     29  H   UNL     1      48.737   3.380  21.225  0.00  0.00    +0.000 HD
ATOM     30  H   UNL     1      47.547   3.076  20.011  0.00  0.00    +0.000 HD
ENDBRANCH  18  27
ENDBRANCH  17  22
ENDBRANCH   1  17
TORSDOF 6
ENDMDL
