MODEL 1
REMARK VINA RESULT:    -9.248      0.000      0.000
REMARK INTER + INTRA:         -12.647
REMARK INTER:                 -11.951
REMARK INTRA:                  -0.696
REMARK UNBOUND:                -0.696
REMARK  Name = 
REMARK  5 active torsions:
REMARK  status: ('A' for Active; 'I' for Inactive)
REMARK    1  A    between atoms: C_2  and  C_4
REMARK    2  A    between atoms: C_8  and  N_9
REMARK    3  A    between atoms: N_9  and  C_10
REMARK    4  A    between atoms: C_10  and  C_11
REMARK    5  A    between atoms: C_15  and  C_16
REMARK                            x       y       z     vdW  Elec       q    Type
REMARK                         _______ _______ _______ _____ _____    ______ ____
ROOT
ATOM      1  C   UNL     1      43.196   6.388  11.116  0.00  0.00    +0.000 C 
ENDROOT
BRANCH   1   2
ATOM      2  C   UNL     1      43.476   4.905  10.938  0.00  0.00    +0.000 A 
ATOM      3  N   UNL     1      42.945   4.061  11.841  0.00  0.00    +0.000 NA
ATOM      4  C   UNL     1      43.231   2.760  11.680  0.00  0.00    +0.000 A 
ATOM      5  C   UNL     1      44.020   2.275  10.663  0.00  0.00    +0.000 A 
ATOM      6  C   UNL     1      44.534   3.205   9.778  0.00  0.00    +0.000 A 
ATOM      7  N   UNL     1      44.264   4.525   9.907  0.00  0.00    +0.000 NA
BRANCH   6   8
ATOM      8  C   UNL     1      45.415   2.834   8.651  0.00  0.00    +0.000 A 
ATOM      9  C   UNL     1      45.838   3.779   7.694  0.00  0.00    +0.000 A 
ATOM     10  C   UNL     1      46.667   3.422   6.624  0.00  0.00    +0.000 A 
ATOM     11  C   UNL     1      47.087   2.104   6.485  0.00  0.00    +0.000 A 
ATOM     12  C   UNL     1      46.676   1.159   7.415  0.00  0.00    +0.000 A 
ATOM     13  F   UNL     1      47.077  -0.113   7.279  0.00  0.00    +0.000 F 
ATOM     14  C   UNL     1      45.855   1.508   8.484  0.00  0.00    +0.000 A 
ENDBRANCH   6   8
ENDBRANCH   1   2
BRANCH   1  15
ATOM     15  N   UNL     1      43.953   7.004  12.196  0.00  0.00    +0.000 N 
ATOM     16  H   UNL     1      43.555   7.812  12.657  0.00  0.00    +0.000 HD
BRANCH  15  21
ATOM     17  C   UNL     1      46.836   5.489  13.600  0.00  0.00    +0.000 A 
ATOM     18  C   UNL     1      47.912   6.125  12.999  0.00  0.00    +0.000 A 
ATOM     19  C   UNL     1      47.638   7.139  12.099  0.00  0.00    +0.000 A 
ATOM     20  C   UNL     1      46.310   7.461  11.829  0.00  0.00    +0.000 A 
ATOM     21  C   UNL     1      45.273   6.778  12.468  0.00  0.00    +0.000 A 
ATOM     22  N   UNL     1      45.527   5.796  13.359  0.00  0.00    +0.000 NA
BRANCH  17  24
ATOM     23  N   UNL     1      47.153   4.721  15.888  0.00  0.00    +0.000 N 
ATOM     24  C   UNL     1      47.113   4.376  14.564  0.00  0.00    +0.000 C 
ATOM     25  O   UNL     1      47.280   3.216  14.205  0.00  0.00    +0.000 OA
ATOM     26  H   UNL     1      47.291   3.996  16.577  0.00  0.00    +0.000 HD
ATOM     27  H   UNL     1      46.938   5.669  16.166  0.00  0.00    +0.000 HD
ENDBRANCH  17  24
ENDBRANCH  15  21
ENDBRANCH   1  15
TORSDOF 5
ENDMDL
MODEL 2
REMARK VINA RESULT:    -8.768      3.514      6.706
REMARK INTER + INTRA:         -12.027
REMARK INTER:                 -11.459
REMARK INTRA:                  -0.568
REMARK UNBOUND:                -0.696
REMARK  Name = 
REMARK  5 active torsions:
REMARK  status: ('A' for Active; 'I' for Inactive)
REMARK    1  A    between atoms: C_2  and  C_4
REMARK    2  A    between atoms: C_8  and  N_9
REMARK    3  A    between atoms: N_9  and  C_10
REMARK    4  A    between atoms: C_10  and  C_11
REMARK    5  A    between atoms: C_15  and  C_16
REMARK                            x       y       z     vdW  Elec       q    Type
REMARK                         _______ _______ _______ _____ _____    ______ ____
ROOT
ATOM      1  C   UNL     1      43.801   3.326  11.786  0.00  0.00    +0.000 C 
ENDROOT
BRANCH   1   2
ATOM      2  C   UNL     1      45.014   3.989  12.415  0.00  0.00    +0.000 A 
ATOM      3  N   UNL     1      45.808   3.226  13.189  0.00  0.00    +0.000 NA
ATOM      4  C   UNL     1      46.856   3.842  13.757  0.00  0.00    +0.000 A 
ATOM      5  C   UNL     1      47.138   5.176  13.585  0.00  0.00    +0.000 A 
ATOM      6  C   UNL     1      46.273   5.896  12.782  0.00  0.00    +0.000 A 
ATOM      7  N   UNL     1      45.207   5.309  12.189  0.00  0.00    +0.000 NA
BRANCH   6   8
ATOM      8  C   UNL     1      46.438   7.343  12.525  0.00  0.00    +0.000 A 
ATOM      9  C   UNL     1      47.708   7.927  12.341  0.00  0.00    +0.000 A 
ATOM     10  C   UNL     1      47.860   9.298  12.106  0.00  0.00    +0.000 A 
ATOM     11  C   UNL     1      46.739  10.118  12.055  0.00  0.00    +0.000 A 
ATOM     12  C   UNL     1      45.480   9.561  12.239  0.00  0.00    +0.000 A 
ATOM     13  F   UNL     1      44.400  10.353  12.194  0.00  0.00    +0.000 F 
ATOM     14  C   UNL     1      45.323   8.198  12.469  0.00  0.00    +0.000 A 
ENDBRANCH   6   8
ENDBRANCH   1   2
BRANCH   1  15
ATOM     15  N   UNL     1      44.123   2.442  10.676  0.00  0.00    +0.000 N 
ATOM     16  H   UNL     1      43.968   1.449  10.795  0.00  0.00    +0.000 HD
BRANCH  15  21
ATOM     17  C   UNL     1      46.302   2.052   7.904  0.00  0.00    +0.000 A 
ATOM     18  C   UNL     1      46.340   3.296   7.293  0.00  0.00    +0.000 A 
ATOM     19  C   UNL     1      45.615   4.320   7.873  0.00  0.00    +0.000 A 
ATOM     20  C   UNL     1      44.876   4.056   9.023  0.00  0.00    +0.000 A 
ATOM     21  C   UNL     1      44.879   2.778   9.588  0.00  0.00    +0.000 A 
ATOM     22  N   UNL     1      45.593   1.773   9.039  0.00  0.00    +0.000 NA
BRANCH  17  24
ATOM     23  N   UNL     1      46.713  -0.336   7.674  0.00  0.00    +0.000 N 
ATOM     24  C   UNL     1      47.067   0.925   7.279  0.00  0.00    +0.000 C 
ATOM     25  O   UNL     1      47.951   1.107   6.450  0.00  0.00    +0.000 OA
ATOM     26  H   UNL     1      47.170  -1.128   7.246  0.00  0.00    +0.000 HD
ATOM     27  H   UNL     1      45.931  -0.464   8.302  0.00  0.00    +0.000 HD
ENDBRANCH  17  24
ENDBRANCH  15  21
ENDBRANCH   1  15
TORSDOF 5
ENDMDL
MODEL 3
REMARK VINA RESULT:    -8.249      1.195      1.348
REMARK INTER + INTRA:         -11.356
REMARK INTER:                 -10.737
REMARK INTRA:                  -0.619
REMARK UNBOUND:                -0.696
REMARK  Name = 
REMARK  5 active torsions:
REMARK  status: ('A' for Active; 'I' for Inactive)
REMARK    1  A    between atoms: C_2  and  C_4
REMARK    2  A    between atoms: C_8  and  N_9
REMARK    3  A    between atoms: N_9  and  C_10
REMARK    4  A    between atoms: C_10  and  C_11
REMARK    5  A    between atoms: C_15  and  C_16
REMARK                            x       y       z     vdW  Elec       q    Type
REMARK                         _______ _______ _______ _____ _____    ______ ____
ROOT
ATOM      1  C   UNL     1      42.987   6.364  11.241  0.00  0.00    +0.000 C 
ENDROOT
BRANCH   1   2
ATOM      2  C   UNL     1      43.367   4.900  11.098  0.00  0.00    +0.000 A 
ATOM      3  N   UNL     1      42.949   4.054  12.058  0.00  0.00    +0.000 NA
ATOM      4  C   UNL     1      43.322   2.772  11.926  0.00  0.00    +0.000 A 
ATOM      5  C   UNL     1      44.088   2.307  10.884  0.00  0.00    +0.000 A 
ATOM      6  C   UNL     1      44.484   3.237   9.940  0.00  0.00    +0.000 A 
ATOM      7  N   UNL     1      44.125   4.538  10.038  0.00  0.00    +0.000 NA
BRANCH   6   8
ATOM      8  C   UNL     1      45.329   2.887   8.779  0.00  0.00    +0.000 A 
ATOM      9  C   UNL     1      45.667   3.835   7.791  0.00  0.00    +0.000 A 
ATOM     10  C   UNL     1      46.462   3.498   6.690  0.00  0.00    +0.000 A 
ATOM     11  C   UNL     1      46.932   2.198   6.549  0.00  0.00    +0.000 A 
ATOM     12  C   UNL     1      46.606   1.250   7.510  0.00  0.00    +0.000 A 
ATOM     13  F   UNL     1      47.057  -0.005   7.373  0.00  0.00    +0.000 F 
ATOM     14  C   UNL     1      45.820   1.580   8.610  0.00  0.00    +0.000 A 
ENDBRANCH   6   8
ENDBRANCH   1   2
BRANCH   1  15
ATOM     15  N   UNL     1      44.051   7.286  10.869  0.00  0.00    +0.000 N 
ATOM     16  H   UNL     1      44.220   7.446   9.884  0.00  0.00    +0.000 HD
BRANCH  15  21
ATOM     17  C   UNL     1      46.751   7.208  13.167  0.00  0.00    +0.000 A 
ATOM     18  C   UNL     1      47.140   8.529  13.317  0.00  0.00    +0.000 A 
ATOM     19  C   UNL     1      46.427   9.492  12.627  0.00  0.00    +0.000 A 
ATOM     20  C   UNL     1      45.371   9.094  11.810  0.00  0.00    +0.000 A 
ATOM     21  C   UNL     1      45.032   7.743  11.702  0.00  0.00    +0.000 A 
ATOM     22  N   UNL     1      45.712   6.795  12.381  0.00  0.00    +0.000 NA
BRANCH  17  24
ATOM     23  N   UNL     1      46.790   5.117  14.413  0.00  0.00    +0.000 N 
ATOM     24  C   UNL     1      47.523   6.148  13.893  0.00  0.00    +0.000 C 
ATOM     25  O   UNL     1      48.743   6.183  14.009  0.00  0.00    +0.000 OA
ATOM     26  H   UNL     1      47.273   4.357  14.871  0.00  0.00    +0.000 HD
ATOM     27  H   UNL     1      45.795   5.072  14.240  0.00  0.00    +0.000 HD
ENDBRANCH  17  24
ENDBRANCH  15  21
ENDBRANCH   1  15
TORSDOF 5
ENDMDL
MODEL 4
REMARK VINA RESULT:    -8.088      1.247      1.493
REMARK INTER + INTRA:         -11.148
REMARK INTER:                 -10.514
REMARK INTRA:                  -0.633
REMARK UNBOUND:                -0.696
REMARK  Name = 
REMARK  5 active torsions:
REMARK  status: ('A' for Active; 'I' for Inactive)
REMARK    1  A    between atoms: C_2  and  C_4
REMARK    2  A    between atoms: C_8  and  N_9
REMARK    3  A    between atoms: N_9  and  C_10
REMARK    4  A    between atoms: C_10  and  C_11
REMARK    5  A    between atoms: C_15  and  C_16
REMARK                            x       y       z     vdW  Elec       q    Type
REMARK                         _______ _______ _______ _____ _____    ______ ____
ROOT
ATOM      1  C   UNL     1      45.187   6.975  11.642  0.00  0.00    +0.000 C 
ENDROOT
BRANCH   1   2
ATOM      2  C   UNL     1      44.679   5.620  11.180  0.00  0.00    +0.000 A 
ATOM      3  N   UNL     1      43.632   5.091  11.840  0.00  0.00    +0.000 NA
ATOM      4  C   UNL     1      43.222   3.880  11.432  0.00  0.00    +0.000 A 
ATOM      5  C   UNL     1      43.811   3.184  10.404  0.00  0.00    +0.000 A 
ATOM      6  C   UNL     1      44.885   3.790   9.778  0.00  0.00    +0.000 A 
ATOM      7  N   UNL     1      45.326   5.011  10.159  0.00  0.00    +0.000 NA
BRANCH   6   8
ATOM      8  C   UNL     1      45.631   3.151   8.673  0.00  0.00    +0.000 A 
ATOM      9  C   UNL     1      46.117   3.893   7.577  0.00  0.00    +0.000 A 
ATOM     10  C   UNL     1      46.817   3.283   6.529  0.00  0.00    +0.000 A 
ATOM     11  C   UNL     1      47.040   1.911   6.553  0.00  0.00    +0.000 A 
ATOM     12  C   UNL     1      46.564   1.164   7.622  0.00  0.00    +0.000 A 
ATOM     13  F   UNL     1      46.776  -0.159   7.644  0.00  0.00    +0.000 F 
ATOM     14  C   UNL     1      45.872   1.765   8.670  0.00  0.00    +0.000 A 
ENDBRANCH   6   8
ENDBRANCH   1   2
BRANCH   1  15
ATOM     15  N   UNL     1      46.635   7.048  11.769  0.00  0.00    +0.000 N 
ATOM     16  H   UNL     1      47.192   6.972  10.928  0.00  0.00    +0.000 HD
BRANCH  15  21
ATOM     17  C   UNL     1      47.767   5.652  14.827  0.00  0.00    +0.000 A 
ATOM     18  C   UNL     1      48.785   6.490  15.255  0.00  0.00    +0.000 A 
ATOM     19  C   UNL     1      49.075   7.598  14.481  0.00  0.00    +0.000 A 
ATOM     20  C   UNL     1      48.349   7.813  13.311  0.00  0.00    +0.000 A 
ATOM     21  C   UNL     1      47.336   6.928  12.936  0.00  0.00    +0.000 A 
ATOM     22  N   UNL     1      47.035   5.849  13.690  0.00  0.00    +0.000 NA
BRANCH  17  24
ATOM     23  N   UNL     1      47.104   4.660  16.948  0.00  0.00    +0.000 N 
ATOM     24  C   UNL     1      47.451   4.436  15.644  0.00  0.00    +0.000 C 
ATOM     25  O   UNL     1      47.482   3.302  15.180  0.00  0.00    +0.000 OA
ATOM     26  H   UNL     1      46.838   3.874  17.524  0.00  0.00    +0.000 HD
ATOM     27  H   UNL     1      47.012   5.608  17.287  0.00  0.00    +0.000 HD
ENDBRANCH  17  24
ENDBRANCH  15  21
ENDBRANCH   1  15
TORSDOF 5
ENDMDL
MODEL 5
REMARK VINA RESULT:    -7.978      1.953      2.565
REMARK INTER + INTRA:         -11.005
REMARK INTER:                 -10.284
REMARK INTRA:                  -0.722
REMARK UNBOUND:                -0.696
REMARK  Name = 
REMARK  5 active torsions:
REMARK  status: ('A' for Active; 'I' for Inactive)
REMARK    1  A    between atoms: C_2  and  C_4
REMARK    2  A    between atoms: C_8  and  N_9
REMARK    3  A    between atoms: N_9  and  C_10
REMARK    4  A    between atoms: C_10  and  C_11
REMARK    5  A    between atoms: C_15  and  C_16
REMARK                            x       y       z     vdW  Elec       q    Type
REMARK                         _______ _______ _______ _____ _____    ______ ____
ROOT
ATOM      1  C   UNL     1      43.673   6.543  11.366  0.00  0.00    +0.000 C 
ENDROOT
BRANCH   1   2
ATOM      2  C   UNL     1      43.776   5.048  11.116  0.00  0.00    +0.000 A 
ATOM      3  N   UNL     1      43.140   4.229  11.975  0.00  0.00    +0.000 NA
ATOM      4  C   UNL     1      43.271   2.913  11.750  0.00  0.00    +0.000 A 
ATOM      5  C   UNL     1      44.005   2.388  10.713  0.00  0.00    +0.000 A 
ATOM      6  C   UNL     1      44.634   3.291   9.877  0.00  0.00    +0.000 A 
ATOM      7  N   UNL     1      44.523   4.626  10.069  0.00  0.00    +0.000 NA
BRANCH   6   8
ATOM      8  C   UNL     1      45.474   2.872   8.735  0.00  0.00    +0.000 A 
ATOM      9  C   UNL     1      45.915   3.789   7.759  0.00  0.00    +0.000 A 
ATOM     10  C   UNL     1      46.705   3.387   6.676  0.00  0.00    +0.000 A 
ATOM     11  C   UNL     1      47.068   2.052   6.543  0.00  0.00    +0.000 A 
ATOM     12  C   UNL     1      46.639   1.134   7.493  0.00  0.00    +0.000 A 
ATOM     13  F   UNL     1      46.986  -0.154   7.363  0.00  0.00    +0.000 F 
ATOM     14  C   UNL     1      45.857   1.528   8.574  0.00  0.00    +0.000 A 
ENDBRANCH   6   8
ENDBRANCH   1   2
BRANCH   1  15
ATOM     15  N   UNL     1      44.464   7.005  12.497  0.00  0.00    +0.000 N 
ATOM     16  H   UNL     1      44.024   7.625  13.165  0.00  0.00    +0.000 HD
BRANCH  15  21
ATOM     17  C   UNL     1      47.874   7.953  12.272  0.00  0.00    +0.000 A 
ATOM     18  C   UNL     1      48.579   6.928  12.885  0.00  0.00    +0.000 A 
ATOM     19  C   UNL     1      47.858   5.852  13.368  0.00  0.00    +0.000 A 
ATOM     20  C   UNL     1      46.472   5.851  13.231  0.00  0.00    +0.000 A 
ATOM     21  C   UNL     1      45.823   6.917  12.603  0.00  0.00    +0.000 A 
ATOM     22  N   UNL     1      46.517   7.968  12.115  0.00  0.00    +0.000 NA
BRANCH  17  24
ATOM     23  N   UNL     1      47.921  10.291  11.597  0.00  0.00    +0.000 N 
ATOM     24  C   UNL     1      48.637   9.136  11.758  0.00  0.00    +0.000 C 
ATOM     25  O   UNL     1      49.836   9.092  11.508  0.00  0.00    +0.000 OA
ATOM     26  H   UNL     1      48.403  11.126  11.297  0.00  0.00    +0.000 HD
ATOM     27  H   UNL     1      46.951  10.324  11.881  0.00  0.00    +0.000 HD
ENDBRANCH  17  24
ENDBRANCH  15  21
ENDBRANCH   1  15
TORSDOF 5
ENDMDL
MODEL 6
REMARK VINA RESULT:    -7.960      1.559      1.679
REMARK INTER + INTRA:         -10.983
REMARK INTER:                 -10.330
REMARK INTRA:                  -0.653
REMARK UNBOUND:                -0.696
REMARK  Name = 
REMARK  5 active torsions:
REMARK  status: ('A' for Active; 'I' for Inactive)
REMARK    1  A    between atoms: C_2  and  C_4
REMARK    2  A    between atoms: C_8  and  N_9
REMARK    3  A    between atoms: N_9  and  C_10
REMARK    4  A    between atoms: C_10  and  C_11
REMARK    5  A    between atoms: C_15  and  C_16
REMARK                            x       y       z     vdW  Elec       q    Type
REMARK                         _______ _______ _______ _____ _____    ______ ____
ROOT
ATOM      1  C   UNL     1      44.692   6.646  11.447  0.00  0.00    +0.000 C 
ENDROOT
BRANCH   1   2
ATOM      2  C   UNL     1      44.421   5.204  11.052  0.00  0.00    +0.000 A 
ATOM      3  N   UNL     1      43.526   4.517  11.787  0.00  0.00    +0.000 NA
ATOM      4  C   UNL     1      43.327   3.238  11.437  0.00  0.00    +0.000 A 
ATOM      5  C   UNL     1      43.979   2.623  10.395  0.00  0.00    +0.000 A 
ATOM      6  C   UNL     1      44.887   3.392   9.691  0.00  0.00    +0.000 A 
ATOM      7  N   UNL     1      45.113   4.688  10.011  0.00  0.00    +0.000 NA
BRANCH   6   8
ATOM      8  C   UNL     1      45.678   2.860   8.561  0.00  0.00    +0.000 A 
ATOM      9  C   UNL     1      46.152   3.693   7.526  0.00  0.00    +0.000 A 
ATOM     10  C   UNL     1      46.896   3.185   6.455  0.00  0.00    +0.000 A 
ATOM     11  C   UNL     1      47.176   1.825   6.393  0.00  0.00    +0.000 A 
ATOM     12  C   UNL     1      46.714   0.989   7.400  0.00  0.00    +0.000 A 
ATOM     13  F   UNL     1      46.981  -0.323   7.338  0.00  0.00    +0.000 F 
ATOM     14  C   UNL     1      45.978   1.489   8.470  0.00  0.00    +0.000 A 
ENDBRANCH   6   8
ENDBRANCH   1   2
BRANCH   1  15
ATOM     15  N   UNL     1      45.395   6.787  12.713  0.00  0.00    +0.000 N 
ATOM     16  H   UNL     1      44.847   6.955  13.547  0.00  0.00    +0.000 HD
BRANCH  15  21
ATOM     17  C   UNL     1      48.573   6.974  14.276  0.00  0.00    +0.000 A 
ATOM     18  C   UNL     1      49.467   7.253  13.254  0.00  0.00    +0.000 A 
ATOM     19  C   UNL     1      48.955   7.415  11.980  0.00  0.00    +0.000 A 
ATOM     20  C   UNL     1      47.583   7.280  11.781  0.00  0.00    +0.000 A 
ATOM     21  C   UNL     1      46.738   6.996  12.856  0.00  0.00    +0.000 A 
ATOM     22  N   UNL     1      47.223   6.848  14.107  0.00  0.00    +0.000 NA
BRANCH  17  24
ATOM     23  N   UNL     1      48.333   7.245  16.684  0.00  0.00    +0.000 N 
ATOM     24  C   UNL     1      49.111   6.776  15.661  0.00  0.00    +0.000 C 
ATOM     25  O   UNL     1      50.178   6.214  15.881  0.00  0.00    +0.000 OA
ATOM     26  H   UNL     1      48.633   7.094  17.636  0.00  0.00    +0.000 HD
ATOM     27  H   UNL     1      47.423   7.638  16.481  0.00  0.00    +0.000 HD
ENDBRANCH  17  24
ENDBRANCH  15  21
ENDBRANCH   1  15
TORSDOF 5
ENDMDL
MODEL 7
REMARK VINA RESULT:    -7.923      3.173      6.281
REMARK INTER + INTRA:         -10.935
REMARK INTER:                 -10.995
REMARK INTRA:                   0.061
REMARK UNBOUND:                -0.696
REMARK  Name = 
REMARK  5 active torsions:
REMARK  status: ('A' for Active; 'I' for Inactive)
REMARK    1  A    between atoms: C_2  and  C_4
REMARK    2  A    between atoms: C_8  and  N_9
REMARK    3  A    between atoms: N_9  and  C_10
REMARK    4  A    between atoms: C_10  and  C_11
REMARK    5  A    between atoms: C_15  and  C_16
REMARK                            x       y       z     vdW  Elec       q    Type
REMARK                         _______ _______ _______ _____ _____    ______ ____
ROOT
ATOM      1  C   UNL     1      43.680   2.807  11.876  0.00  0.00    +0.000 C 
ENDROOT
BRANCH   1   2
ATOM      2  C   UNL     1      43.926   4.305  11.833  0.00  0.00    +0.000 A 
ATOM      3  N   UNL     1      42.907   5.090  11.436  0.00  0.00    +0.000 NA
ATOM      4  C   UNL     1      43.159   6.407  11.377  0.00  0.00    +0.000 A 
ATOM      5  C   UNL     1      44.375   6.964  11.695  0.00  0.00    +0.000 A 
ATOM      6  C   UNL     1      45.374   6.093  12.088  0.00  0.00    +0.000 A 
ATOM      7  N   UNL     1      45.158   4.759  12.162  0.00  0.00    +0.000 NA
BRANCH   6   8
ATOM      8  C   UNL     1      46.737   6.545  12.437  0.00  0.00    +0.000 A 
ATOM      9  C   UNL     1      47.546   7.248  11.520  0.00  0.00    +0.000 A 
ATOM     10  C   UNL     1      48.839   7.669  11.852  0.00  0.00    +0.000 A 
ATOM     11  C   UNL     1      49.354   7.389  13.112  0.00  0.00    +0.000 A 
ATOM     12  C   UNL     1      48.574   6.694  14.026  0.00  0.00    +0.000 A 
ATOM     13  F   UNL     1      49.072   6.420  15.240  0.00  0.00    +0.000 F 
ATOM     14  C   UNL     1      47.286   6.277  13.704  0.00  0.00    +0.000 A 
ENDBRANCH   6   8
ENDBRANCH   1   2
BRANCH   1  15
ATOM     15  N   UNL     1      43.795   2.155  10.580  0.00  0.00    +0.000 N 
ATOM     16  H   UNL     1      43.419   1.220  10.481  0.00  0.00    +0.000 HD
BRANCH  15  21
ATOM     17  C   UNL     1      46.229   1.965   8.007  0.00  0.00    +0.000 A 
ATOM     18  C   UNL     1      46.207   3.207   7.391  0.00  0.00    +0.000 A 
ATOM     19  C   UNL     1      45.344   4.161   7.900  0.00  0.00    +0.000 A 
ATOM     20  C   UNL     1      44.536   3.831   8.985  0.00  0.00    +0.000 A 
ATOM     21  C   UNL     1      44.607   2.558   9.558  0.00  0.00    +0.000 A 
ATOM     22  N   UNL     1      45.454   1.623   9.079  0.00  0.00    +0.000 NA
BRANCH  17  24
ATOM     23  N   UNL     1      46.764  -0.386   7.667  0.00  0.00    +0.000 N 
ATOM     24  C   UNL     1      47.144   0.912   7.458  0.00  0.00    +0.000 C 
ATOM     25  O   UNL     1      48.168   1.183   6.843  0.00  0.00    +0.000 OA
ATOM     26  H   UNL     1      47.326  -1.128   7.276  0.00  0.00    +0.000 HD
ATOM     27  H   UNL     1      45.877  -0.583   8.112  0.00  0.00    +0.000 HD
ENDBRANCH  17  24
ENDBRANCH  15  21
ENDBRANCH   1  15
TORSDOF 5
ENDMDL
MODEL 8
REMARK VINA RESULT:    -7.857      2.491      3.723
REMARK INTER + INTRA:         -10.849
REMARK INTER:                 -10.395
REMARK INTRA:                  -0.454
REMARK UNBOUND:                -0.696
REMARK  Name = 
REMARK  5 active torsions:
REMARK  status: ('A' for Active; 'I' for Inactive)
REMARK    1  A    between atoms: C_2  and  C_4
REMARK    2  A    between atoms: C_8  and  N_9
REMARK    3  A    between atoms: N_9  and  C_10
REMARK    4  A    between atoms: C_10  and  C_11
REMARK    5  A    between atoms: C_15  and  C_16
REMARK                            x       y       z     vdW  Elec       q    Type
REMARK                         _______ _______ _______ _____ _____    ______ ____
ROOT
ATOM      1  C   UNL     1      46.207   5.144  14.081  0.00  0.00    +0.000 C 
ENDROOT
BRANCH   1   2
ATOM      2  C   UNL     1      45.205   4.865  12.974  0.00  0.00    +0.000 A 
ATOM      3  N   UNL     1      43.904   5.077  13.247  0.00  0.00    +0.000 NA
ATOM      4  C   UNL     1      43.036   4.796  12.263  0.00  0.00    +0.000 A 
ATOM      5  C   UNL     1      43.413   4.315  11.032  0.00  0.00    +0.000 A 
ATOM      6  C   UNL     1      44.766   4.117  10.828  0.00  0.00    +0.000 A 
ATOM      7  N   UNL     1      45.672   4.393  11.796  0.00  0.00    +0.000 NA
BRANCH   6   8
ATOM      8  C   UNL     1      45.315   3.584   9.564  0.00  0.00    +0.000 A 
ATOM      9  C   UNL     1      45.680   4.429   8.495  0.00  0.00    +0.000 A 
ATOM     10  C   UNL     1      46.193   3.919   7.297  0.00  0.00    +0.000 A 
ATOM     11  C   UNL     1      46.348   2.547   7.140  0.00  0.00    +0.000 A 
ATOM     12  C   UNL     1      45.990   1.700   8.180  0.00  0.00    +0.000 A 
ATOM     13  F   UNL     1      46.135   0.376   8.027  0.00  0.00    +0.000 F 
ATOM     14  C   UNL     1      45.483   2.200   9.375  0.00  0.00    +0.000 A 
ENDBRANCH   6   8
ENDBRANCH   1   2
BRANCH   1  15
ATOM     15  N   UNL     1      46.696   3.945  14.747  0.00  0.00    +0.000 N 
ATOM     16  H   UNL     1      46.372   3.047  14.411  0.00  0.00    +0.000 HD
BRANCH  15  21
ATOM     17  C   UNL     1      49.141   3.154  17.191  0.00  0.00    +0.000 A 
ATOM     18  C   UNL     1      48.775   3.873  18.319  0.00  0.00    +0.000 A 
ATOM     19  C   UNL     1      47.624   4.636  18.250  0.00  0.00    +0.000 A 
ATOM     20  C   UNL     1      46.900   4.659  17.060  0.00  0.00    +0.000 A 
ATOM     21  C   UNL     1      47.326   3.912  15.959  0.00  0.00    +0.000 A 
ATOM     22  N   UNL     1      48.440   3.153  16.018  0.00  0.00    +0.000 NA
BRANCH  17  24
ATOM     23  N   UNL     1      51.363   2.767  18.107  0.00  0.00    +0.000 N 
ATOM     24  C   UNL     1      50.395   2.336  17.242  0.00  0.00    +0.000 C 
ATOM     25  O   UNL     1      50.553   1.327  16.564  0.00  0.00    +0.000 OA
ATOM     26  H   UNL     1      52.206   2.221  18.208  0.00  0.00    +0.000 HD
ATOM     27  H   UNL     1      51.180   3.558  18.710  0.00  0.00    +0.000 HD
ENDBRANCH  17  24
ENDBRANCH  15  21
ENDBRANCH   1  15
TORSDOF 5
ENDMDL
MODEL 9
REMARK VINA RESULT:    -7.803      3.424      6.754
REMARK INTER + INTRA:         -10.780
REMARK INTER:                 -10.100
REMARK INTRA:                  -0.679
REMARK UNBOUND:                -0.696
REMARK  Name = 
REMARK  5 active torsions:
REMARK  status: ('A' for Active; 'I' for Inactive)
REMARK    1  A    between atoms: C_2  and  C_4
REMARK    2  A    between atoms: C_8  and  N_9
REMARK    3  A    between atoms: N_9  and  C_10
REMARK    4  A    between atoms: C_10  and  C_11
REMARK    5  A    between atoms: C_15  and  C_16
REMARK                            x       y       z     vdW  Elec       q    Type
REMARK                         _______ _______ _______ _____ _____    ______ ____
ROOT
ATOM      1  C   UNL     1      43.957   5.185  10.607  0.00  0.00    +0.000 C 
ENDROOT
BRANCH   1   2
ATOM      2  C   UNL     1      45.048   5.411  11.639  0.00  0.00    +0.000 A 
ATOM      3  N   UNL     1      45.041   4.626  12.732  0.00  0.00    +0.000 NA
ATOM      4  C   UNL     1      45.997   4.865  13.643  0.00  0.00    +0.000 A 
ATOM      5  C   UNL     1      46.948   5.847  13.506  0.00  0.00    +0.000 A 
ATOM      6  C   UNL     1      46.888   6.617  12.359  0.00  0.00    +0.000 A 
ATOM      7  N   UNL     1      45.940   6.404  11.417  0.00  0.00    +0.000 NA
BRANCH   6   8
ATOM      8  C   UNL     1      47.830   7.723  12.088  0.00  0.00    +0.000 A 
ATOM      9  C   UNL     1      47.443   9.075  12.201  0.00  0.00    +0.000 A 
ATOM     10  C   UNL     1      48.337  10.119  11.937  0.00  0.00    +0.000 A 
ATOM     11  C   UNL     1      49.639   9.832  11.546  0.00  0.00    +0.000 A 
ATOM     12  C   UNL     1      50.036   8.507  11.424  0.00  0.00    +0.000 A 
ATOM     13  F   UNL     1      51.290   8.231  11.044  0.00  0.00    +0.000 F 
ATOM     14  C   UNL     1      49.154   7.464  11.690  0.00  0.00    +0.000 A 
ENDBRANCH   6   8
ENDBRANCH   1   2
BRANCH   1  15
ATOM     15  N   UNL     1      44.459   4.955   9.260  0.00  0.00    +0.000 N 
ATOM     16  H   UNL     1      44.237   5.636   8.545  0.00  0.00    +0.000 HD
BRANCH  15  21
ATOM     17  C   UNL     1      46.383   2.721   7.288  0.00  0.00    +0.000 A 
ATOM     18  C   UNL     1      46.163   1.468   7.838  0.00  0.00    +0.000 A 
ATOM     19  C   UNL     1      45.293   1.379   8.909  0.00  0.00    +0.000 A 
ATOM     20  C   UNL     1      44.696   2.541   9.392  0.00  0.00    +0.000 A 
ATOM     21  C   UNL     1      44.962   3.774   8.792  0.00  0.00    +0.000 A 
ATOM     22  N   UNL     1      45.799   3.872   7.737  0.00  0.00    +0.000 NA
BRANCH  17  24
ATOM     23  N   UNL     1      48.656   2.623   6.424  0.00  0.00    +0.000 N 
ATOM     24  C   UNL     1      47.336   2.840   6.138  0.00  0.00    +0.000 C 
ATOM     25  O   UNL     1      46.967   3.099   4.998  0.00  0.00    +0.000 OA
ATOM     26  H   UNL     1      49.329   2.648   5.671  0.00  0.00    +0.000 HD
ATOM     27  H   UNL     1      48.927   2.337   7.355  0.00  0.00    +0.000 HD
ENDBRANCH  17  24
ENDBRANCH  15  21
ENDBRANCH   1  15
TORSDOF 5
ENDMDL
