MODEL 1
REMARK VINA RESULT:    -9.217      0.000      0.000
REMARK INTER + INTRA:         -13.519
REMARK INTER:                 -12.719
REMARK INTRA:                  -0.800
REMARK UNBOUND:                -0.800
REMARK  Name = 
REMARK  9 active torsions:
REMARK  status: ('A' for Active; 'I' for Inactive)
REMARK    1  A    between atoms: C_1  and  C_2
REMARK    2  A    between atoms: C_2  and  C_3
REMARK    3  A    between atoms: C_2  and  C_14
REMARK    4  A    between atoms: C_3  and  N_4
REMARK    5  A    between atoms: C_8  and  C_9
REMARK    6  A    between atoms: C_20  and  O_21
REMARK    7  A    between atoms: O_21  and  C_22
REMARK    8  A    between atoms: C_24  and  C_25
REMARK    9  A    between atoms: C_24  and  O_26
REMARK                            x       y       z     vdW  Elec       q    Type
REMARK                         _______ _______ _______ _____ _____    ______ ____
ROOT
ATOM      1  C   UNL     1      42.349   6.151  12.139  0.00  0.00    +0.000 C 
ATOM      2  C   UNL     1      43.218   4.897  12.306  0.00  0.00    +0.000 C 
ENDROOT
BRANCH   2   3
ATOM      3  C   UNL     1      44.638   5.275  12.721  0.00  0.00    +0.000 A 
ATOM      4  C   UNL     1      45.280   6.407  12.194  0.00  0.00    +0.000 A 
ATOM      5  C   UNL     1      46.588   6.710  12.566  0.00  0.00    +0.000 A 
ATOM      6  F   UNL     1      47.178   7.792  12.037  0.00  0.00    +0.000 F 
ATOM      7  C   UNL     1      47.278   5.913  13.467  0.00  0.00    +0.000 A 
ATOM      8  F   UNL     1      48.540   6.238  13.787  0.00  0.00    +0.000 F 
ATOM      9  C   UNL     1      46.658   4.795  14.018  0.00  0.00    +0.000 A 
ATOM     10  C   UNL     1      45.348   4.471  13.633  0.00  0.00    +0.000 A 
BRANCH   9  11
ATOM     11  O   UNL     1      47.230   3.934  14.923  0.00  0.00    +0.000 OA
BRANCH  11  12
ATOM     12  C   UNL     1      47.233   4.302  16.325  0.00  0.00    +0.000 C 
ATOM     13  C   UNL     1      47.123   3.159  17.368  0.00  0.00    +0.000 C 
ATOM     14  C   UNL     1      48.668   3.157  17.482  0.00  0.00    +0.000 C 
ATOM     15  C   UNL     1      49.370   2.128  16.604  0.00  0.00    +0.000 C 
ATOM     16  C   UNL     1      48.641   4.596  16.903  0.00  0.00    +0.000 C 
BRANCH  14  17
ATOM     17  O   UNL     1      49.185   3.040  18.826  0.00  0.00    +0.000 OA
ATOM     18  H   UNL     1      49.667   3.864  19.004  0.00  0.00    +0.000 HD
ENDBRANCH  14  17
ENDBRANCH  11  12
ENDBRANCH   9  11
ENDBRANCH   2   3
BRANCH   2  19
ATOM     19  C   UNL     1      43.254   4.040  11.021  0.00  0.00    +0.000 C 
BRANCH  19  20
ATOM     20  N   UNL     1      43.922   4.729   9.910  0.00  0.00    +0.000 N 
ATOM     21  C   UNL     1      44.771   3.877   9.176  0.00  0.00    +0.000 A 
ATOM     22  C   UNL     1      45.482   4.407   8.102  0.00  0.00    +0.000 A 
ATOM     23  C   UNL     1      46.323   3.574   7.357  0.00  0.00    +0.000 A 
ATOM     24  C   UNL     1      46.438   2.226   7.696  0.00  0.00    +0.000 A 
ATOM     25  C   UNL     1      45.690   1.783   8.773  0.00  0.00    +0.000 A 
ATOM     26  N   UNL     1      44.868   2.574   9.505  0.00  0.00    +0.000 NA
ATOM     27  H   UNL     1      44.479   5.520  10.221  0.00  0.00    +0.000 HD
BRANCH  24  28
ATOM     28  C   UNL     1      47.335   1.345   6.910  0.00  0.00    +0.000 C 
ATOM     29  N   UNL     1      48.332   1.906   6.163  0.00  0.00    +0.000 N 
ATOM     30  O   UNL     1      47.194   0.128   6.923  0.00  0.00    +0.000 OA
ATOM     31  H   UNL     1      48.545   2.889   6.090  0.00  0.00    +0.000 HD
ATOM     32  H   UNL     1      48.924   1.265   5.647  0.00  0.00    +0.000 HD
ENDBRANCH  24  28
ENDBRANCH  19  20
ENDBRANCH   2  19
TORSDOF 7
ENDMDL
MODEL 2
REMARK VINA RESULT:    -8.559      2.470      3.916
REMARK INTER + INTRA:         -12.611
REMARK INTER:                 -11.375
REMARK INTRA:                  -1.236
REMARK UNBOUND:                -0.800
REMARK  Name = 
REMARK  9 active torsions:
REMARK  status: ('A' for Active; 'I' for Inactive)
REMARK    1  A    between atoms: C_1  and  C_2
REMARK    2  A    between atoms: C_2  and  C_3
REMARK    3  A    between atoms: C_2  and  C_14
REMARK    4  A    between atoms: C_3  and  N_4
REMARK    5  A    between atoms: C_8  and  C_9
REMARK    6  A    between atoms: C_20  and  O_21
REMARK    7  A    between atoms: O_21  and  C_22
REMARK    8  A    between atoms: C_24  and  C_25
REMARK    9  A    between atoms: C_24  and  O_26
REMARK                            x       y       z     vdW  Elec       q    Type
REMARK                         _______ _______ _______ _____ _____    ______ ____
ROOT
ATOM      1  C   UNL     1      42.265   6.081  12.097  0.00  0.00    +0.000 C 
ATOM      2  C   UNL     1      43.054   4.774  12.257  0.00  0.00    +0.000 C 
ENDROOT
BRANCH   2   3
ATOM      3  C   UNL     1      44.466   5.055  12.766  0.00  0.00    +0.000 A 
ATOM      4  C   UNL     1      45.302   4.021  13.219  0.00  0.00    +0.000 A 
ATOM      5  C   UNL     1      46.573   4.308  13.708  0.00  0.00    +0.000 A 
ATOM      6  F   UNL     1      47.344   3.301  14.143  0.00  0.00    +0.000 F 
ATOM      7  C   UNL     1      47.046   5.613  13.750  0.00  0.00    +0.000 A 
ATOM      8  F   UNL     1      48.273   5.843  14.240  0.00  0.00    +0.000 F 
ATOM      9  C   UNL     1      46.243   6.654  13.291  0.00  0.00    +0.000 A 
ATOM     10  C   UNL     1      44.953   6.374  12.815  0.00  0.00    +0.000 A 
BRANCH   9  11
ATOM     11  O   UNL     1      46.598   7.981  13.272  0.00  0.00    +0.000 OA
BRANCH  11  12
ATOM     12  C   UNL     1      47.148   8.537  12.052  0.00  0.00    +0.000 C 
ATOM     13  C   UNL     1      47.933   9.869  12.160  0.00  0.00    +0.000 C 
ATOM     14  C   UNL     1      49.247   9.052  12.245  0.00  0.00    +0.000 C 
ATOM     15  C   UNL     1      49.739   8.784  13.662  0.00  0.00    +0.000 C 
ATOM     16  C   UNL     1      48.473   7.876  11.593  0.00  0.00    +0.000 C 
BRANCH  14  17
ATOM     17  O   UNL     1      50.348   9.575  11.470  0.00  0.00    +0.000 OA
ATOM     18  H   UNL     1      49.962  10.218  10.851  0.00  0.00    +0.000 HD
ENDBRANCH  14  17
ENDBRANCH  11  12
ENDBRANCH   9  11
ENDBRANCH   2   3
BRANCH   2  19
ATOM     19  C   UNL     1      43.117   3.968  10.940  0.00  0.00    +0.000 C 
BRANCH  19  20
ATOM     20  N   UNL     1      43.849   4.682   9.885  0.00  0.00    +0.000 N 
ATOM     21  C   UNL     1      44.718   3.840   9.164  0.00  0.00    +0.000 A 
ATOM     22  C   UNL     1      45.488   4.392   8.144  0.00  0.00    +0.000 A 
ATOM     23  C   UNL     1      46.351   3.569   7.413  0.00  0.00    +0.000 A 
ATOM     24  C   UNL     1      46.430   2.209   7.712  0.00  0.00    +0.000 A 
ATOM     25  C   UNL     1      45.624   1.744   8.737  0.00  0.00    +0.000 A 
ATOM     26  N   UNL     1      44.780   2.526   9.455  0.00  0.00    +0.000 NA
ATOM     27  H   UNL     1      44.402   5.453  10.248  0.00  0.00    +0.000 HD
BRANCH  24  28
ATOM     28  C   UNL     1      47.350   1.339   6.941  0.00  0.00    +0.000 C 
ATOM     29  N   UNL     1      48.479   1.882   6.396  0.00  0.00    +0.000 N 
ATOM     30  O   UNL     1      47.111   0.147   6.789  0.00  0.00    +0.000 OA
ATOM     31  H   UNL     1      48.778   2.843   6.470  0.00  0.00    +0.000 HD
ATOM     32  H   UNL     1      49.081   1.248   5.883  0.00  0.00    +0.000 HD
ENDBRANCH  24  28
ENDBRANCH  19  20
ENDBRANCH   2  19
TORSDOF 7
ENDMDL
MODEL 3
REMARK VINA RESULT:    -8.130      3.370      7.928
REMARK INTER + INTRA:         -12.020
REMARK INTER:                 -11.139
REMARK INTRA:                  -0.881
REMARK UNBOUND:                -0.800
REMARK  Name = 
REMARK  9 active torsions:
REMARK  status: ('A' for Active; 'I' for Inactive)
REMARK    1  A    between atoms: C_1  and  C_2
REMARK    2  A    between atoms: C_2  and  C_3
REMARK    3  A    between atoms: C_2  and  C_14
REMARK    4  A    between atoms: C_3  and  N_4
REMARK    5  A    between atoms: C_8  and  C_9
REMARK    6  A    between atoms: C_20  and  O_21
REMARK    7  A    between atoms: O_21  and  C_22
REMARK    8  A    between atoms: C_24  and  C_25
REMARK    9  A    between atoms: C_24  and  O_26
REMARK                            x       y       z     vdW  Elec       q    Type
REMARK                         _______ _______ _______ _____ _____    ______ ____
ROOT
ATOM      1  C   UNL     1      46.198   8.510  13.231  0.00  0.00    +0.000 C 
ATOM      2  C   UNL     1      46.672   7.535  12.144  0.00  0.00    +0.000 C 
ENDROOT
BRANCH   2   3
ATOM      3  C   UNL     1      45.660   6.408  11.950  0.00  0.00    +0.000 A 
ATOM      4  C   UNL     1      44.549   6.266  12.796  0.00  0.00    +0.000 A 
ATOM      5  C   UNL     1      43.659   5.210  12.617  0.00  0.00    +0.000 A 
ATOM      6  F   UNL     1      42.613   5.094  13.447  0.00  0.00    +0.000 F 
ATOM      7  C   UNL     1      43.842   4.285  11.598  0.00  0.00    +0.000 A 
ATOM      8  F   UNL     1      42.966   3.278  11.470  0.00  0.00    +0.000 F 
ATOM      9  C   UNL     1      44.927   4.414  10.735  0.00  0.00    +0.000 A 
ATOM     10  C   UNL     1      45.840   5.464  10.922  0.00  0.00    +0.000 A 
BRANCH   9  11
ATOM     11  O   UNL     1      45.213   3.572   9.687  0.00  0.00    +0.000 OA
BRANCH  11  12
ATOM     12  C   UNL     1      45.281   4.125   8.350  0.00  0.00    +0.000 C 
ATOM     13  C   UNL     1      46.666   4.148   7.652  0.00  0.00    +0.000 C 
ATOM     14  C   UNL     1      46.302   2.811   6.957  0.00  0.00    +0.000 C 
ATOM     15  C   UNL     1      46.813   1.565   7.669  0.00  0.00    +0.000 C 
ATOM     16  C   UNL     1      44.815   3.155   7.234  0.00  0.00    +0.000 C 
BRANCH  14  17
ATOM     17  O   UNL     1      46.668   2.724   5.562  0.00  0.00    +0.000 OA
ATOM     18  H   UNL     1      46.932   1.802   5.409  0.00  0.00    +0.000 HD
ENDBRANCH  14  17
ENDBRANCH  11  12
ENDBRANCH   9  11
ENDBRANCH   2   3
BRANCH   2  19
ATOM     19  C   UNL     1      48.065   6.946  12.460  0.00  0.00    +0.000 C 
BRANCH  19  20
ATOM     20  N   UNL     1      48.548   7.339  13.790  0.00  0.00    +0.000 N 
ATOM     21  C   UNL     1      48.281   6.365  14.773  0.00  0.00    +0.000 A 
ATOM     22  C   UNL     1      48.670   6.617  16.085  0.00  0.00    +0.000 A 
ATOM     23  C   UNL     1      48.419   5.658  17.073  0.00  0.00    +0.000 A 
ATOM     24  C   UNL     1      47.786   4.463  16.731  0.00  0.00    +0.000 A 
ATOM     25  C   UNL     1      47.441   4.293  15.402  0.00  0.00    +0.000 A 
ATOM     26  N   UNL     1      47.677   5.210  14.431  0.00  0.00    +0.000 NA
ATOM     27  H   UNL     1      48.141   8.214  14.109  0.00  0.00    +0.000 HD
BRANCH  24  28
ATOM     28  C   UNL     1      47.516   3.450  17.779  0.00  0.00    +0.000 C 
ATOM     29  N   UNL     1      48.242   3.479  18.936  0.00  0.00    +0.000 N 
ATOM     30  O   UNL     1      46.653   2.595  17.621  0.00  0.00    +0.000 OA
ATOM     31  H   UNL     1      48.962   4.143  19.175  0.00  0.00    +0.000 HD
ATOM     32  H   UNL     1      48.018   2.771  19.626  0.00  0.00    +0.000 HD
ENDBRANCH  24  28
ENDBRANCH  19  20
ENDBRANCH   2  19
TORSDOF 7
ENDMDL
MODEL 4
REMARK VINA RESULT:    -7.597      3.712      7.571
REMARK INTER + INTRA:         -11.283
REMARK INTER:                 -10.053
REMARK INTRA:                  -1.230
REMARK UNBOUND:                -0.800
REMARK  Name = 
REMARK  9 active torsions:
REMARK  status: ('A' for Active; 'I' for Inactive)
REMARK    1  A    between atoms: C_1  and  C_2
REMARK    2  A    between atoms: C_2  and  C_3
REMARK    3  A    between atoms: C_2  and  C_14
REMARK    4  A    between atoms: C_3  and  N_4
REMARK    5  A    between atoms: C_8  and  C_9
REMARK    6  A    between atoms: C_20  and  O_21
REMARK    7  A    between atoms: O_21  and  C_22
REMARK    8  A    between atoms: C_24  and  C_25
REMARK    9  A    between atoms: C_24  and  O_26
REMARK                            x       y       z     vdW  Elec       q    Type
REMARK                         _______ _______ _______ _____ _____    ______ ____
ROOT
ATOM      1  C   UNL     1      48.632  10.068  13.716  0.00  0.00    +0.000 C 
ATOM      2  C   UNL     1      48.587   8.945  12.670  0.00  0.00    +0.000 C 
ENDROOT
BRANCH   2   3
ATOM      3  C   UNL     1      47.154   8.695  12.207  0.00  0.00    +0.000 A 
ATOM      4  C   UNL     1      46.222   9.739  12.109  0.00  0.00    +0.000 A 
ATOM      5  C   UNL     1      44.912   9.478  11.714  0.00  0.00    +0.000 A 
ATOM      6  F   UNL     1      44.041  10.494  11.640  0.00  0.00    +0.000 F 
ATOM      7  C   UNL     1      44.503   8.189  11.401  0.00  0.00    +0.000 A 
ATOM      8  F   UNL     1      43.229   7.983  11.036  0.00  0.00    +0.000 F 
ATOM      9  C   UNL     1      45.414   7.138  11.473  0.00  0.00    +0.000 A 
ATOM     10  C   UNL     1      46.730   7.391  11.890  0.00  0.00    +0.000 A 
BRANCH   9  11
ATOM     11  O   UNL     1      45.135   5.825  11.182  0.00  0.00    +0.000 OA
BRANCH  11  12
ATOM     12  C   UNL     1      44.285   5.078  12.087  0.00  0.00    +0.000 C 
ATOM     13  C   UNL     1      42.961   4.503  11.521  0.00  0.00    +0.000 C 
ATOM     14  C   UNL     1      43.688   3.157  11.274  0.00  0.00    +0.000 C 
ATOM     15  C   UNL     1      44.233   2.977   9.862  0.00  0.00    +0.000 C 
ATOM     16  C   UNL     1      44.736   3.613  12.322  0.00  0.00    +0.000 C 
BRANCH  14  17
ATOM     17  O   UNL     1      42.932   1.977  11.626  0.00  0.00    +0.000 OA
ATOM     18  H   UNL     1      43.236   1.716  12.511  0.00  0.00    +0.000 HD
ENDBRANCH  14  17
ENDBRANCH  11  12
ENDBRANCH   9  11
ENDBRANCH   2   3
BRANCH   2  19
ATOM     19  C   UNL     1      49.209   7.633  13.200  0.00  0.00    +0.000 C 
BRANCH  19  20
ATOM     20  N   UNL     1      49.566   7.721  14.622  0.00  0.00    +0.000 N 
ATOM     21  C   UNL     1      49.018   6.671  15.385  0.00  0.00    +0.000 A 
ATOM     22  C   UNL     1      49.264   6.641  16.755  0.00  0.00    +0.000 A 
ATOM     23  C   UNL     1      48.734   5.602  17.526  0.00  0.00    +0.000 A 
ATOM     24  C   UNL     1      47.969   4.609  16.915  0.00  0.00    +0.000 A 
ATOM     25  C   UNL     1      47.781   4.712  15.548  0.00  0.00    +0.000 A 
ATOM     26  N   UNL     1      48.288   5.711  14.784  0.00  0.00    +0.000 NA
ATOM     27  H   UNL     1      49.266   8.595  15.046  0.00  0.00    +0.000 HD
BRANCH  24  28
ATOM     28  C   UNL     1      47.402   3.510  17.734  0.00  0.00    +0.000 C 
ATOM     29  N   UNL     1      48.048   3.130  18.877  0.00  0.00    +0.000 N 
ATOM     30  O   UNL     1      46.367   2.946  17.402  0.00  0.00    +0.000 OA
ATOM     31  H   UNL     1      48.895   3.533  19.249  0.00  0.00    +0.000 HD
ATOM     32  H   UNL     1      47.621   2.380  19.407  0.00  0.00    +0.000 HD
ENDBRANCH  24  28
ENDBRANCH  19  20
ENDBRANCH   2  19
TORSDOF 7
ENDMDL
MODEL 5
REMARK VINA RESULT:    -7.351      2.708      4.230
REMARK INTER + INTRA:         -10.944
REMARK INTER:                 -10.040
REMARK INTRA:                  -0.904
REMARK UNBOUND:                -0.800
REMARK  Name = 
REMARK  9 active torsions:
REMARK  status: ('A' for Active; 'I' for Inactive)
REMARK    1  A    between atoms: C_1  and  C_2
REMARK    2  A    between atoms: C_2  and  C_3
REMARK    3  A    between atoms: C_2  and  C_14
REMARK    4  A    between atoms: C_3  and  N_4
REMARK    5  A    between atoms: C_8  and  C_9
REMARK    6  A    between atoms: C_20  and  O_21
REMARK    7  A    between atoms: O_21  and  C_22
REMARK    8  A    between atoms: C_24  and  C_25
REMARK    9  A    between atoms: C_24  and  O_26
REMARK                            x       y       z     vdW  Elec       q    Type
REMARK                         _______ _______ _______ _____ _____    ______ ____
ROOT
ATOM      1  C   UNL     1      48.690   7.329  12.073  0.00  0.00    +0.000 C 
ATOM      2  C   UNL     1      47.823   8.215  12.978  0.00  0.00    +0.000 C 
ENDROOT
BRANCH   2   3
ATOM      3  C   UNL     1      48.262   8.093  14.436  0.00  0.00    +0.000 A 
ATOM      4  C   UNL     1      48.148   9.170  15.329  0.00  0.00    +0.000 A 
ATOM      5  C   UNL     1      48.587   9.042  16.645  0.00  0.00    +0.000 A 
ATOM      6  F   UNL     1      48.474  10.091  17.472  0.00  0.00    +0.000 F 
ATOM      7  C   UNL     1      49.134   7.852  17.103  0.00  0.00    +0.000 A 
ATOM      8  F   UNL     1      49.553   7.777  18.376  0.00  0.00    +0.000 F 
ATOM      9  C   UNL     1      49.242   6.763  16.242  0.00  0.00    +0.000 A 
ATOM     10  C   UNL     1      48.821   6.891  14.909  0.00  0.00    +0.000 A 
BRANCH   9  11
ATOM     11  O   UNL     1      49.756   5.534  16.576  0.00  0.00    +0.000 OA
BRANCH  11  12
ATOM     12  C   UNL     1      49.179   4.822  17.699  0.00  0.00    +0.000 C 
ATOM     13  C   UNL     1      47.645   4.920  17.901  0.00  0.00    +0.000 C 
ATOM     14  C   UNL     1      47.489   3.589  17.123  0.00  0.00    +0.000 C 
ATOM     15  C   UNL     1      47.185   3.751  15.639  0.00  0.00    +0.000 C 
ATOM     16  C   UNL     1      48.977   3.304  17.455  0.00  0.00    +0.000 C 
BRANCH  14  17
ATOM     17  O   UNL     1      46.540   2.656  17.685  0.00  0.00    +0.000 OA
ATOM     18  H   UNL     1      47.050   1.869  17.938  0.00  0.00    +0.000 HD
ENDBRANCH  14  17
ENDBRANCH  11  12
ENDBRANCH   9  11
ENDBRANCH   2   3
BRANCH   2  19
ATOM     19  C   UNL     1      46.320   7.881  12.850  0.00  0.00    +0.000 C 
BRANCH  19  20
ATOM     20  N   UNL     1      46.008   6.526  13.324  0.00  0.00    +0.000 N 
ATOM     21  C   UNL     1      45.654   5.654  12.275  0.00  0.00    +0.000 A 
ATOM     22  C   UNL     1      45.317   4.339  12.585  0.00  0.00    +0.000 A 
ATOM     23  C   UNL     1      44.970   3.457  11.556  0.00  0.00    +0.000 A 
ATOM     24  C   UNL     1      44.968   3.904  10.235  0.00  0.00    +0.000 A 
ATOM     25  C   UNL     1      45.323   5.223  10.017  0.00  0.00    +0.000 A 
ATOM     26  N   UNL     1      45.664   6.092  11.001  0.00  0.00    +0.000 NA
ATOM     27  H   UNL     1      45.249   6.514  14.000  0.00  0.00    +0.000 HD
BRANCH  24  28
ATOM     28  C   UNL     1      44.594   2.970   9.146  0.00  0.00    +0.000 C 
ATOM     29  N   UNL     1      44.255   3.475   7.922  0.00  0.00    +0.000 N 
ATOM     30  O   UNL     1      44.586   1.759   9.329  0.00  0.00    +0.000 OA
ATOM     31  H   UNL     1      44.240   4.449   7.660  0.00  0.00    +0.000 HD
ATOM     32  H   UNL     1      44.013   2.800   7.207  0.00  0.00    +0.000 HD
ENDBRANCH  24  28
ENDBRANCH  19  20
ENDBRANCH   2  19
TORSDOF 7
ENDMDL
MODEL 6
REMARK VINA RESULT:    -7.324      3.480      8.369
REMARK INTER + INTRA:         -10.906
REMARK INTER:                 -11.011
REMARK INTRA:                   0.105
REMARK UNBOUND:                -0.800
REMARK  Name = 
REMARK  9 active torsions:
REMARK  status: ('A' for Active; 'I' for Inactive)
REMARK    1  A    between atoms: C_1  and  C_2
REMARK    2  A    between atoms: C_2  and  C_3
REMARK    3  A    between atoms: C_2  and  C_14
REMARK    4  A    between atoms: C_3  and  N_4
REMARK    5  A    between atoms: C_8  and  C_9
REMARK    6  A    between atoms: C_20  and  O_21
REMARK    7  A    between atoms: O_21  and  C_22
REMARK    8  A    between atoms: C_24  and  C_25
REMARK    9  A    between atoms: C_24  and  O_26
REMARK                            x       y       z     vdW  Elec       q    Type
REMARK                         _______ _______ _______ _____ _____    ______ ____
ROOT
ATOM      1  C   UNL     1      44.743   7.417  11.698  0.00  0.00    +0.000 C 
ATOM      2  C   UNL     1      45.853   6.494  11.176  0.00  0.00    +0.000 C 
ENDROOT
BRANCH   2   3
ATOM      3  C   UNL     1      45.276   5.150  10.736  0.00  0.00    +0.000 A 
ATOM      4  C   UNL     1      44.696   4.263  11.657  0.00  0.00    +0.000 A 
ATOM      5  C   UNL     1      44.207   3.030  11.234  0.00  0.00    +0.000 A 
ATOM      6  F   UNL     1      43.669   2.200  12.138  0.00  0.00    +0.000 F 
ATOM      7  C   UNL     1      44.271   2.656   9.899  0.00  0.00    +0.000 A 
ATOM      8  F   UNL     1      43.797   1.453   9.538  0.00  0.00    +0.000 F 
ATOM      9  C   UNL     1      44.825   3.525   8.962  0.00  0.00    +0.000 A 
ATOM     10  C   UNL     1      45.339   4.761   9.385  0.00  0.00    +0.000 A 
BRANCH   9  11
ATOM     11  O   UNL     1      44.938   3.275   7.616  0.00  0.00    +0.000 OA
BRANCH  11  12
ATOM     12  C   UNL     1      46.144   3.695   6.930  0.00  0.00    +0.000 C 
ATOM     13  C   UNL     1      47.500   3.189   7.486  0.00  0.00    +0.000 C 
ATOM     14  C   UNL     1      47.453   2.031   6.456  0.00  0.00    +0.000 C 
ATOM     15  C   UNL     1      46.881   0.725   6.992  0.00  0.00    +0.000 C 
ATOM     16  C   UNL     1      46.455   2.893   5.640  0.00  0.00    +0.000 C 
BRANCH  14  17
ATOM     17  O   UNL     1      48.707   1.745   5.797  0.00  0.00    +0.000 OA
ATOM     18  H   UNL     1      48.888   2.504   5.218  0.00  0.00    +0.000 HD
ENDBRANCH  14  17
ENDBRANCH  11  12
ENDBRANCH   9  11
ENDBRANCH   2   3
BRANCH   2  19
ATOM     19  C   UNL     1      46.965   6.273  12.225  0.00  0.00    +0.000 C 
BRANCH  19  20
ATOM     20  N   UNL     1      46.634   5.200  13.172  0.00  0.00    +0.000 N 
ATOM     21  C   UNL     1      47.350   5.303  14.380  0.00  0.00    +0.000 A 
ATOM     22  C   UNL     1      47.145   4.338  15.363  0.00  0.00    +0.000 A 
ATOM     23  C   UNL     1      47.842   4.428  16.572  0.00  0.00    +0.000 A 
ATOM     24  C   UNL     1      48.731   5.482  16.780  0.00  0.00    +0.000 A 
ATOM     25  C   UNL     1      48.869   6.400  15.753  0.00  0.00    +0.000 A 
ATOM     26  N   UNL     1      48.200   6.330  14.576  0.00  0.00    +0.000 NA
ATOM     27  H   UNL     1      46.811   4.275  12.789  0.00  0.00    +0.000 HD
BRANCH  24  28
ATOM     28  C   UNL     1      49.475   5.574  18.059  0.00  0.00    +0.000 C 
ATOM     29  N   UNL     1      49.066   4.820  19.123  0.00  0.00    +0.000 N 
ATOM     30  O   UNL     1      50.446   6.312  18.172  0.00  0.00    +0.000 OA
ATOM     31  H   UNL     1      48.291   4.173  19.136  0.00  0.00    +0.000 HD
ATOM     32  H   UNL     1      49.607   4.910  19.975  0.00  0.00    +0.000 HD
ENDBRANCH  24  28
ENDBRANCH  19  20
ENDBRANCH   2  19
TORSDOF 7
ENDMDL
MODEL 7
REMARK VINA RESULT:    -7.109      3.462      5.041
REMARK INTER + INTRA:         -10.610
REMARK INTER:                  -9.402
REMARK INTRA:                  -1.208
REMARK UNBOUND:                -0.800
REMARK  Name = 
REMARK  9 active torsions:
REMARK  status: ('A' for Active; 'I' for Inactive)
REMARK    1  A    between atoms: C_1  and  C_2
REMARK    2  A    between atoms: C_2  and  C_3
REMARK    3  A    between atoms: C_2  and  C_14
REMARK    4  A    between atoms: C_3  and  N_4
REMARK    5  A    between atoms: C_8  and  C_9
REMARK    6  A    between atoms: C_20  and  O_21
REMARK    7  A    between atoms: O_21  and  C_22
REMARK    8  A    between atoms: C_24  and  C_25
REMARK    9  A    between atoms: C_24  and  O_26
REMARK                            x       y       z     vdW  Elec       q    Type
REMARK                         _______ _______ _______ _____ _____    ______ ____
ROOT
ATOM      1  C   UNL     1      49.431   7.719  12.601  0.00  0.00    +0.000 C 
ATOM      2  C   UNL     1      48.619   8.485  13.656  0.00  0.00    +0.000 C 
ENDROOT
BRANCH   2   3
ATOM      3  C   UNL     1      49.090   8.129  15.064  0.00  0.00    +0.000 A 
ATOM      4  C   UNL     1      49.243   9.109  16.057  0.00  0.00    +0.000 A 
ATOM      5  C   UNL     1      49.704   8.762  17.323  0.00  0.00    +0.000 A 
ATOM      6  F   UNL     1      49.850   9.722  18.248  0.00  0.00    +0.000 F 
ATOM      7  C   UNL     1      50.012   7.445  17.636  0.00  0.00    +0.000 A 
ATOM      8  F   UNL     1      50.465   7.158  18.866  0.00  0.00    +0.000 F 
ATOM      9  C   UNL     1      49.853   6.450  16.674  0.00  0.00    +0.000 A 
ATOM     10  C   UNL     1      49.408   6.797  15.389  0.00  0.00    +0.000 A 
BRANCH   9  11
ATOM     11  O   UNL     1      50.115   5.115  16.861  0.00  0.00    +0.000 OA
BRANCH  11  12
ATOM     12  C   UNL     1      49.417   4.411  17.919  0.00  0.00    +0.000 C 
ATOM     13  C   UNL     1      47.913   4.729  18.122  0.00  0.00    +0.000 C 
ATOM     14  C   UNL     1      47.567   3.506  17.235  0.00  0.00    +0.000 C 
ATOM     15  C   UNL     1      47.317   3.834  15.768  0.00  0.00    +0.000 C 
ATOM     16  C   UNL     1      48.989   2.968  17.549  0.00  0.00    +0.000 C 
BRANCH  14  17
ATOM     17  O   UNL     1      46.477   2.689  17.714  0.00  0.00    +0.000 OA
ATOM     18  H   UNL     1      46.666   1.783  17.417  0.00  0.00    +0.000 HD
ENDBRANCH  14  17
ENDBRANCH  11  12
ENDBRANCH   9  11
ENDBRANCH   2   3
BRANCH   2  19
ATOM     19  C   UNL     1      47.102   8.224  13.523  0.00  0.00    +0.000 C 
BRANCH  19  20
ATOM     20  N   UNL     1      46.702   7.956  12.136  0.00  0.00    +0.000 N 
ATOM     21  C   UNL     1      46.026   6.728  11.994  0.00  0.00    +0.000 A 
ATOM     22  C   UNL     1      45.605   6.340  10.725  0.00  0.00    +0.000 A 
ATOM     23  C   UNL     1      44.925   5.127  10.567  0.00  0.00    +0.000 A 
ATOM     24  C   UNL     1      44.677   4.324  11.680  0.00  0.00    +0.000 A 
ATOM     25  C   UNL     1      45.124   4.790  12.904  0.00  0.00    +0.000 A 
ATOM     26  N   UNL     1      45.782   5.964  13.077  0.00  0.00    +0.000 NA
ATOM     27  H   UNL     1      47.493   7.944  11.498  0.00  0.00    +0.000 HD
BRANCH  24  28
ATOM     28  C   UNL     1      43.962   3.036  11.511  0.00  0.00    +0.000 C 
ATOM     29  N   UNL     1      43.655   2.294  12.616  0.00  0.00    +0.000 N 
ATOM     30  O   UNL     1      43.644   2.633  10.398  0.00  0.00    +0.000 OA
ATOM     31  H   UNL     1      43.857   2.536  13.575  0.00  0.00    +0.000 HD
ATOM     32  H   UNL     1      43.162   1.425  12.453  0.00  0.00    +0.000 HD
ENDBRANCH  24  28
ENDBRANCH  19  20
ENDBRANCH   2  19
TORSDOF 7
ENDMDL
MODEL 8
REMARK VINA RESULT:    -6.980      3.420      5.052
REMARK INTER + INTRA:         -10.432
REMARK INTER:                  -9.320
REMARK INTRA:                  -1.111
REMARK UNBOUND:                -0.800
REMARK  Name = 
REMARK  9 active torsions:
REMARK  status: ('A' for Active; 'I' for Inactive)
REMARK    1  A    between atoms: C_1  and  C_2
REMARK    2  A    between atoms: C_2  and  C_3
REMARK    3  A    between atoms: C_2  and  C_14
REMARK    4  A    between atoms: C_3  and  N_4
REMARK    5  A    between atoms: C_8  and  C_9
REMARK    6  A    between atoms: C_20  and  O_21
REMARK    7  A    between atoms: O_21  and  C_22
REMARK    8  A    between atoms: C_24  and  C_25
REMARK    9  A    between atoms: C_24  and  O_26
REMARK                            x       y       z     vdW  Elec       q    Type
REMARK                         _______ _______ _______ _____ _____    ______ ____
ROOT
ATOM      1  C   UNL     1      48.918   8.559  11.755  0.00  0.00    +0.000 C 
ATOM      2  C   UNL     1      48.582   8.887  13.216  0.00  0.00    +0.000 C 
ENDROOT
BRANCH   2   3
ATOM      3  C   UNL     1      49.620   8.283  14.158  0.00  0.00    +0.000 A 
ATOM      4  C   UNL     1      50.932   8.780  14.220  0.00  0.00    +0.000 A 
ATOM      5  C   UNL     1      51.868   8.190  15.065  0.00  0.00    +0.000 A 
ATOM      6  F   UNL     1      53.116   8.680  15.095  0.00  0.00    +0.000 F 
ATOM      7  C   UNL     1      51.527   7.111  15.868  0.00  0.00    +0.000 A 
ATOM      8  F   UNL     1      52.465   6.567  16.658  0.00  0.00    +0.000 F 
ATOM      9  C   UNL     1      50.228   6.610  15.838  0.00  0.00    +0.000 A 
ATOM     10  C   UNL     1      49.285   7.186  14.974  0.00  0.00    +0.000 A 
BRANCH   9  11
ATOM     11  O   UNL     1      49.766   5.555  16.588  0.00  0.00    +0.000 OA
BRANCH  11  12
ATOM     12  C   UNL     1      48.347   5.472  16.871  0.00  0.00    +0.000 C 
ATOM     13  C   UNL     1      47.525   4.398  16.114  0.00  0.00    +0.000 C 
ATOM     14  C   UNL     1      47.707   3.450  17.327  0.00  0.00    +0.000 C 
ATOM     15  C   UNL     1      48.872   2.476  17.204  0.00  0.00    +0.000 C 
ATOM     16  C   UNL     1      48.002   4.713  18.177  0.00  0.00    +0.000 C 
BRANCH  14  17
ATOM     17  O   UNL     1      46.527   2.708  17.708  0.00  0.00    +0.000 OA
ATOM     18  H   UNL     1      46.740   2.277  18.553  0.00  0.00    +0.000 HD
ENDBRANCH  14  17
ENDBRANCH  11  12
ENDBRANCH   9  11
ENDBRANCH   2   3
BRANCH   2  19
ATOM     19  C   UNL     1      47.167   8.404  13.609  0.00  0.00    +0.000 C 
BRANCH  19  20
ATOM     20  N   UNL     1      46.280   8.275  12.446  0.00  0.00    +0.000 N 
ATOM     21  C   UNL     1      45.735   6.982  12.321  0.00  0.00    +0.000 A 
ATOM     22  C   UNL     1      44.887   6.715  11.249  0.00  0.00    +0.000 A 
ATOM     23  C   UNL     1      44.331   5.439  11.113  0.00  0.00    +0.000 A 
ATOM     24  C   UNL     1      44.630   4.451  12.052  0.00  0.00    +0.000 A 
ATOM     25  C   UNL     1      45.475   4.805  13.089  0.00  0.00    +0.000 A 
ATOM     26  N   UNL     1      46.022   6.037  13.238  0.00  0.00    +0.000 NA
ATOM     27  H   UNL     1      46.749   8.494  11.572  0.00  0.00    +0.000 HD
BRANCH  24  28
ATOM     28  C   UNL     1      44.045   3.097  11.903  0.00  0.00    +0.000 C 
ATOM     29  N   UNL     1      44.160   2.449  10.706  0.00  0.00    +0.000 N 
ATOM     30  O   UNL     1      43.464   2.556  12.837  0.00  0.00    +0.000 OA
ATOM     31  H   UNL     1      44.626   2.795   9.880  0.00  0.00    +0.000 HD
ATOM     32  H   UNL     1      43.751   1.524  10.653  0.00  0.00    +0.000 HD
ENDBRANCH  24  28
ENDBRANCH  19  20
ENDBRANCH   2  19
TORSDOF 7
ENDMDL
MODEL 9
REMARK VINA RESULT:    -6.938      4.435      8.522
REMARK INTER + INTRA:         -10.374
REMARK INTER:                  -9.627
REMARK INTRA:                  -0.747
REMARK UNBOUND:                -0.800
REMARK  Name = 
REMARK  9 active torsions:
REMARK  status: ('A' for Active; 'I' for Inactive)
REMARK    1  A    between atoms: C_1  and  C_2
REMARK    2  A    between atoms: C_2  and  C_3
REMARK    3  A    between atoms: C_2  and  C_14
REMARK    4  A    between atoms: C_3  and  N_4
REMARK    5  A    between atoms: C_8  and  C_9
REMARK    6  A    between atoms: C_20  and  O_21
REMARK    7  A    between atoms: O_21  and  C_22
REMARK    8  A    between atoms: C_24  and  C_25
REMARK    9  A    between atoms: C_24  and  O_26
REMARK                            x       y       z     vdW  Elec       q    Type
REMARK                         _______ _______ _______ _____ _____    ______ ____
ROOT
ATOM      1  C   UNL     1      44.656   7.573  11.584  0.00  0.00    +0.000 C 
ATOM      2  C   UNL     1      45.783   6.714  10.994  0.00  0.00    +0.000 C 
ENDROOT
BRANCH   2   3
ATOM      3  C   UNL     1      45.274   5.316  10.650  0.00  0.00    +0.000 A 
ATOM      4  C   UNL     1      44.780   4.450  11.639  0.00  0.00    +0.000 A 
ATOM      5  C   UNL     1      44.352   3.169  11.302  0.00  0.00    +0.000 A 
ATOM      6  F   UNL     1      43.896   2.361  12.270  0.00  0.00    +0.000 F 
ATOM      7  C   UNL     1      44.392   2.724   9.988  0.00  0.00    +0.000 A 
ATOM      8  F   UNL     1      43.979   1.478   9.712  0.00  0.00    +0.000 F 
ATOM      9  C   UNL     1      44.860   3.570   8.985  0.00  0.00    +0.000 A 
ATOM     10  C   UNL     1      45.313   4.855   9.321  0.00  0.00    +0.000 A 
BRANCH   9  11
ATOM     11  O   UNL     1      44.942   3.251   7.652  0.00  0.00    +0.000 OA
BRANCH  11  12
ATOM     12  C   UNL     1      46.118   3.660   6.910  0.00  0.00    +0.000 C 
ATOM     13  C   UNL     1      47.500   3.208   7.449  0.00  0.00    +0.000 C 
ATOM     14  C   UNL     1      47.448   2.001   6.479  0.00  0.00    +0.000 C 
ATOM     15  C   UNL     1      46.918   0.712   7.095  0.00  0.00    +0.000 C 
ATOM     16  C   UNL     1      46.408   2.802   5.652  0.00  0.00    +0.000 C 
BRANCH  14  17
ATOM     17  O   UNL     1      48.687   1.707   5.797  0.00  0.00    +0.000 OA
ATOM     18  H   UNL     1      49.162   1.072   6.359  0.00  0.00    +0.000 HD
ENDBRANCH  14  17
ENDBRANCH  11  12
ENDBRANCH   9  11
ENDBRANCH   2   3
BRANCH   2  19
ATOM     19  C   UNL     1      46.996   6.614  11.946  0.00  0.00    +0.000 C 
BRANCH  19  20
ATOM     20  N   UNL     1      46.790   7.366  13.191  0.00  0.00    +0.000 N 
ATOM     21  C   UNL     1      47.996   7.847  13.739  0.00  0.00    +0.000 A 
ATOM     22  C   UNL     1      47.947   8.564  14.932  0.00  0.00    +0.000 A 
ATOM     23  C   UNL     1      49.133   9.056  15.487  0.00  0.00    +0.000 A 
ATOM     24  C   UNL     1      50.347   8.825  14.839  0.00  0.00    +0.000 A 
ATOM     25  C   UNL     1      50.301   8.110  13.655  0.00  0.00    +0.000 A 
ATOM     26  N   UNL     1      49.162   7.628  13.101  0.00  0.00    +0.000 NA
ATOM     27  H   UNL     1      46.328   6.813  13.908  0.00  0.00    +0.000 HD
BRANCH  24  28
ATOM     28  C   UNL     1      51.604   9.342  15.431  0.00  0.00    +0.000 C 
ATOM     29  N   UNL     1      52.799   8.838  15.002  0.00  0.00    +0.000 N 
ATOM     30  O   UNL     1      51.584  10.211  16.295  0.00  0.00    +0.000 OA
ATOM     31  H   UNL     1      52.932   8.133  14.291  0.00  0.00    +0.000 HD
ATOM     32  H   UNL     1      53.632   9.225  15.430  0.00  0.00    +0.000 HD
ENDBRANCH  24  28
ENDBRANCH  19  20
ENDBRANCH   2  19
TORSDOF 7
ENDMDL
