MODEL 1
REMARK VINA RESULT:    -9.097      0.000      0.000
REMARK INTER + INTRA:         -11.842
REMARK INTER:                 -11.224
REMARK INTRA:                  -0.618
REMARK UNBOUND:                -0.618
REMARK  Name = 
REMARK  4 active torsions:
REMARK  status: ('A' for Active; 'I' for Inactive)
REMARK    1  A    between atoms: C_2  and  C_4
REMARK    2  A    between atoms: N_8  and  C_9
REMARK    3  A    between atoms: C_9  and  C_10
REMARK    4  A    between atoms: C_14  and  C_15
REMARK                            x       y       z     vdW  Elec       q    Type
REMARK                         _______ _______ _______ _____ _____    ______ ____
ROOT
ATOM      1  C   UNL     1      46.398   2.296   7.693  0.00  0.00    +0.000 A 
ATOM      2  C   UNL     1      45.605   1.797   8.720  0.00  0.00    +0.000 A 
ATOM      3  C   UNL     1      44.738   2.661   9.387  0.00  0.00    +0.000 A 
ATOM      4  C   UNL     1      44.696   4.008   9.041  0.00  0.00    +0.000 A 
ATOM      5  N   UNL     1      43.797   4.896   9.591  0.00  0.00    +0.000 N 
ATOM      6  N   UNL     1      45.477   4.506   8.063  0.00  0.00    +0.000 NA
ATOM      7  C   UNL     1      46.313   3.650   7.414  0.00  0.00    +0.000 A 
ATOM      8  H   UNL     1      44.018   5.829   9.250  0.00  0.00    +0.000 HD
ENDROOT
BRANCH   1  10
ATOM      9  N   UNL     1      48.460   2.022   6.448  0.00  0.00    +0.000 N 
ATOM     10  C   UNL     1      47.313   1.439   6.915  0.00  0.00    +0.000 C 
ATOM     11  O   UNL     1      47.072   0.254   6.718  0.00  0.00    +0.000 OA
ATOM     12  H   UNL     1      49.124   1.408   5.995  0.00  0.00    +0.000 HD
ATOM     13  H   UNL     1      48.804   2.904   6.794  0.00  0.00    +0.000 HD
ENDBRANCH   1  10
BRANCH   5  14
ATOM     14  C   UNL     1      43.440   4.830  10.996  0.00  0.00    +0.000 C 
BRANCH  14  15
ATOM     15  C   UNL     1      44.644   5.077  11.865  0.00  0.00    +0.000 A 
ATOM     16  C   UNL     1      44.873   4.287  12.983  0.00  0.00    +0.000 A 
ATOM     17  N   UNL     1      45.868   4.505  13.869  0.00  0.00    +0.000 NA
ATOM     18  C   UNL     1      46.672   5.570  13.631  0.00  0.00    +0.000 A 
ATOM     19  C   UNL     1      46.559   6.445  12.549  0.00  0.00    +0.000 A 
ATOM     20  C   UNL     1      45.504   6.169  11.666  0.00  0.00    +0.000 A 
BRANCH  19  21
ATOM     21  C   UNL     1      47.475   7.587  12.345  0.00  0.00    +0.000 A 
ATOM     22  C   UNL     1      48.827   7.395  12.028  0.00  0.00    +0.000 A 
ATOM     23  C   UNL     1      49.648   8.498  11.841  0.00  0.00    +0.000 A 
ATOM     24  N   UNL     1      49.228   9.773  11.941  0.00  0.00    +0.000 NA
ATOM     25  C   UNL     1      47.927   9.954  12.237  0.00  0.00    +0.000 A 
ATOM     26  C   UNL     1      47.032   8.915  12.447  0.00  0.00    +0.000 A 
ENDBRANCH  19  21
ENDBRANCH  14  15
ENDBRANCH   5  14
TORSDOF 4
ENDMDL
MODEL 2
REMARK VINA RESULT:    -8.703      1.731      3.073
REMARK INTER + INTRA:         -11.357
REMARK INTER:                 -10.649
REMARK INTRA:                  -0.708
REMARK UNBOUND:                -0.618
REMARK  Name = 
REMARK  4 active torsions:
REMARK  status: ('A' for Active; 'I' for Inactive)
REMARK    1  A    between atoms: C_2  and  C_4
REMARK    2  A    between atoms: N_8  and  C_9
REMARK    3  A    between atoms: C_9  and  C_10
REMARK    4  A    between atoms: C_14  and  C_15
REMARK                            x       y       z     vdW  Elec       q    Type
REMARK                         _______ _______ _______ _____ _____    ______ ____
ROOT
ATOM      1  C   UNL     1      46.378   2.284   7.675  0.00  0.00    +0.000 A 
ATOM      2  C   UNL     1      45.681   1.787   8.770  0.00  0.00    +0.000 A 
ATOM      3  C   UNL     1      44.833   2.639   9.477  0.00  0.00    +0.000 A 
ATOM      4  C   UNL     1      44.717   3.973   9.100  0.00  0.00    +0.000 A 
ATOM      5  N   UNL     1      43.828   4.845   9.693  0.00  0.00    +0.000 N 
ATOM      6  N   UNL     1      45.406   4.470   8.055  0.00  0.00    +0.000 NA
ATOM      7  C   UNL     1      46.224   3.626   7.369  0.00  0.00    +0.000 A 
ATOM      8  H   UNL     1      43.989   5.775   9.313  0.00  0.00    +0.000 HD
ENDROOT
BRANCH   1  10
ATOM      9  N   UNL     1      48.332   2.055   6.258  0.00  0.00    +0.000 N 
ATOM     10  C   UNL     1      47.265   1.438   6.853  0.00  0.00    +0.000 C 
ATOM     11  O   UNL     1      47.072   0.235   6.731  0.00  0.00    +0.000 OA
ATOM     12  H   UNL     1      48.986   1.455   5.772  0.00  0.00    +0.000 HD
ATOM     13  H   UNL     1      48.657   2.969   6.532  0.00  0.00    +0.000 HD
ENDBRANCH   1  10
BRANCH   5  14
ATOM     14  C   UNL     1      43.576   4.806  11.121  0.00  0.00    +0.000 C 
BRANCH  14  15
ATOM     15  C   UNL     1      44.584   5.643  11.864  0.00  0.00    +0.000 A 
ATOM     16  C   UNL     1      44.866   6.935  11.443  0.00  0.00    +0.000 A 
ATOM     17  N   UNL     1      45.824   7.713  11.986  0.00  0.00    +0.000 NA
ATOM     18  C   UNL     1      46.546   7.172  12.999  0.00  0.00    +0.000 A 
ATOM     19  C   UNL     1      46.370   5.889  13.522  0.00  0.00    +0.000 A 
ATOM     20  C   UNL     1      45.362   5.129  12.914  0.00  0.00    +0.000 A 
BRANCH  19  21
ATOM     21  C   UNL     1      47.190   5.361  14.634  0.00  0.00    +0.000 A 
ATOM     22  C   UNL     1      47.010   4.059  15.123  0.00  0.00    +0.000 A 
ATOM     23  C   UNL     1      47.806   3.604  16.164  0.00  0.00    +0.000 A 
ATOM     24  N   UNL     1      48.767   4.342  16.753  0.00  0.00    +0.000 NA
ATOM     25  C   UNL     1      48.943   5.588  16.275  0.00  0.00    +0.000 A 
ATOM     26  C   UNL     1      48.193   6.132  15.242  0.00  0.00    +0.000 A 
ENDBRANCH  19  21
ENDBRANCH  14  15
ENDBRANCH   5  14
TORSDOF 4
ENDMDL
MODEL 3
REMARK VINA RESULT:    -8.051      2.805      6.683
REMARK INTER + INTRA:         -10.552
REMARK INTER:                  -9.751
REMARK INTRA:                  -0.801
REMARK UNBOUND:                -0.618
REMARK  Name = 
REMARK  4 active torsions:
REMARK  status: ('A' for Active; 'I' for Inactive)
REMARK    1  A    between atoms: C_2  and  C_4
REMARK    2  A    between atoms: N_8  and  C_9
REMARK    3  A    between atoms: C_9  and  C_10
REMARK    4  A    between atoms: C_14  and  C_15
REMARK                            x       y       z     vdW  Elec       q    Type
REMARK                         _______ _______ _______ _____ _____    ______ ____
ROOT
ATOM      1  C   UNL     1      48.375   7.179  12.841  0.00  0.00    +0.000 A 
ATOM      2  C   UNL     1      47.663   7.683  11.758  0.00  0.00    +0.000 A 
ATOM      3  C   UNL     1      46.297   7.421  11.664  0.00  0.00    +0.000 A 
ATOM      4  C   UNL     1      45.671   6.641  12.631  0.00  0.00    +0.000 A 
ATOM      5  N   UNL     1      44.310   6.423  12.653  0.00  0.00    +0.000 N 
ATOM      6  N   UNL     1      46.356   6.130  13.672  0.00  0.00    +0.000 NA
ATOM      7  C   UNL     1      47.687   6.399  13.756  0.00  0.00    +0.000 A 
ATOM      8  H   UNL     1      44.103   5.757  13.394  0.00  0.00    +0.000 HD
ENDROOT
BRANCH   1  10
ATOM      9  N   UNL     1      50.607   7.384  11.919  0.00  0.00    +0.000 N 
ATOM     10  C   UNL     1      49.814   7.444  13.032  0.00  0.00    +0.000 C 
ATOM     11  O   UNL     1      50.273   7.732  14.130  0.00  0.00    +0.000 OA
ATOM     12  H   UNL     1      51.574   7.656  12.039  0.00  0.00    +0.000 HD
ATOM     13  H   UNL     1      50.235   7.397  10.981  0.00  0.00    +0.000 HD
ENDBRANCH   1  10
BRANCH   5  14
ATOM     14  C   UNL     1      43.562   6.221  11.426  0.00  0.00    +0.000 C 
BRANCH  14  15
ATOM     15  C   UNL     1      43.707   4.803  10.940  0.00  0.00    +0.000 A 
ATOM     16  C   UNL     1      43.097   3.763  11.627  0.00  0.00    +0.000 A 
ATOM     17  N   UNL     1      43.259   2.459  11.321  0.00  0.00    +0.000 NA
ATOM     18  C   UNL     1      44.079   2.176  10.278  0.00  0.00    +0.000 A 
ATOM     19  C   UNL     1      44.754   3.120   9.501  0.00  0.00    +0.000 A 
ATOM     20  C   UNL     1      44.548   4.456   9.871  0.00  0.00    +0.000 A 
BRANCH  19  21
ATOM     21  C   UNL     1      45.632   2.744   8.371  0.00  0.00    +0.000 A 
ATOM     22  C   UNL     1      45.960   3.659   7.361  0.00  0.00    +0.000 A 
ATOM     23  C   UNL     1      46.791   3.263   6.323  0.00  0.00    +0.000 A 
ATOM     24  N   UNL     1      47.322   2.031   6.215  0.00  0.00    +0.000 NA
ATOM     25  C   UNL     1      47.013   1.157   7.191  0.00  0.00    +0.000 A 
ATOM     26  C   UNL     1      46.187   1.459   8.264  0.00  0.00    +0.000 A 
ENDBRANCH  19  21
ENDBRANCH  14  15
ENDBRANCH   5  14
TORSDOF 4
ENDMDL
MODEL 4
REMARK VINA RESULT:    -7.984      2.359      2.999
REMARK INTER + INTRA:         -10.470
REMARK INTER:                  -9.939
REMARK INTRA:                  -0.531
REMARK UNBOUND:                -0.618
REMARK  Name = 
REMARK  4 active torsions:
REMARK  status: ('A' for Active; 'I' for Inactive)
REMARK    1  A    between atoms: C_2  and  C_4
REMARK    2  A    between atoms: N_8  and  C_9
REMARK    3  A    between atoms: C_9  and  C_10
REMARK    4  A    between atoms: C_14  and  C_15
REMARK                            x       y       z     vdW  Elec       q    Type
REMARK                         _______ _______ _______ _____ _____    ______ ____
ROOT
ATOM      1  C   UNL     1      46.647   2.475   7.204  0.00  0.00    +0.000 A 
ATOM      2  C   UNL     1      46.270   3.705   7.730  0.00  0.00    +0.000 A 
ATOM      3  C   UNL     1      45.502   3.738   8.893  0.00  0.00    +0.000 A 
ATOM      4  C   UNL     1      45.101   2.549   9.494  0.00  0.00    +0.000 A 
ATOM      5  N   UNL     1      44.424   2.507  10.695  0.00  0.00    +0.000 N 
ATOM      6  N   UNL     1      45.442   1.352   8.980  0.00  0.00    +0.000 NA
ATOM      7  C   UNL     1      46.198   1.334   7.849  0.00  0.00    +0.000 A 
ATOM      8  H   UNL     1      44.164   1.541  10.884  0.00  0.00    +0.000 HD
ENDROOT
BRANCH   1  10
ATOM      9  N   UNL     1      47.332   3.316   5.036  0.00  0.00    +0.000 N 
ATOM     10  C   UNL     1      47.491   2.357   6.000  0.00  0.00    +0.000 C 
ATOM     11  O   UNL     1      48.316   1.460   5.878  0.00  0.00    +0.000 OA
ATOM     12  H   UNL     1      47.975   3.283   4.257  0.00  0.00    +0.000 HD
ATOM     13  H   UNL     1      46.855   4.189   5.207  0.00  0.00    +0.000 HD
ENDBRANCH   1  10
BRANCH   5  14
ATOM     14  C   UNL     1      43.402   3.486  11.016  0.00  0.00    +0.000 C 
BRANCH  14  15
ATOM     15  C   UNL     1      44.011   4.697  11.671  0.00  0.00    +0.000 A 
ATOM     16  C   UNL     1      43.637   5.972  11.270  0.00  0.00    +0.000 A 
ATOM     17  N   UNL     1      44.206   7.105  11.731  0.00  0.00    +0.000 NA
ATOM     18  C   UNL     1      45.206   6.959  12.635  0.00  0.00    +0.000 A 
ATOM     19  C   UNL     1      45.681   5.742  13.127  0.00  0.00    +0.000 A 
ATOM     20  C   UNL     1      45.053   4.602  12.608  0.00  0.00    +0.000 A 
BRANCH  19  21
ATOM     21  C   UNL     1      46.774   5.653  14.119  0.00  0.00    +0.000 A 
ATOM     22  C   UNL     1      46.843   4.600  15.043  0.00  0.00    +0.000 A 
ATOM     23  C   UNL     1      47.890   4.555  15.952  0.00  0.00    +0.000 A 
ATOM     24  N   UNL     1      48.873   5.474  16.012  0.00  0.00    +0.000 NA
ATOM     25  C   UNL     1      48.809   6.479  15.118  0.00  0.00    +0.000 A 
ATOM     26  C   UNL     1      47.799   6.611  14.176  0.00  0.00    +0.000 A 
ENDBRANCH  19  21
ENDBRANCH  14  15
ENDBRANCH   5  14
TORSDOF 4
ENDMDL
MODEL 5
REMARK VINA RESULT:    -7.938      2.996      6.864
REMARK INTER + INTRA:         -10.413
REMARK INTER:                  -9.929
REMARK INTRA:                  -0.484
REMARK UNBOUND:                -0.618
REMARK  Name = 
REMARK  4 active torsions:
REMARK  status: ('A' for Active; 'I' for Inactive)
REMARK    1  A    between atoms: C_2  and  C_4
REMARK    2  A    between atoms: N_8  and  C_9
REMARK    3  A    between atoms: C_9  and  C_10
REMARK    4  A    between atoms: C_14  and  C_15
REMARK                            x       y       z     vdW  Elec       q    Type
REMARK                         _______ _______ _______ _____ _____    ______ ____
ROOT
ATOM      1  C   UNL     1      47.941   6.985  13.780  0.00  0.00    +0.000 A 
ATOM      2  C   UNL     1      47.171   5.835  13.649  0.00  0.00    +0.000 A 
ATOM      3  C   UNL     1      46.116   5.826  12.738  0.00  0.00    +0.000 A 
ATOM      4  C   UNL     1      45.828   6.967  11.997  0.00  0.00    +0.000 A 
ATOM      5  N   UNL     1      44.863   6.999  11.013  0.00  0.00    +0.000 N 
ATOM      6  N   UNL     1      46.553   8.094  12.133  0.00  0.00    +0.000 NA
ATOM      7  C   UNL     1      47.586   8.087  13.019  0.00  0.00    +0.000 A 
ATOM      8  H   UNL     1      44.777   7.956  10.678  0.00  0.00    +0.000 HD
ENDROOT
BRANCH   1  10
ATOM      9  N   UNL     1      50.307   7.376  14.134  0.00  0.00    +0.000 N 
ATOM     10  C   UNL     1      49.097   7.061  14.693  0.00  0.00    +0.000 C 
ATOM     11  O   UNL     1      48.978   6.880  15.898  0.00  0.00    +0.000 OA
ATOM     12  H   UNL     1      51.076   7.517  14.776  0.00  0.00    +0.000 HD
ATOM     13  H   UNL     1      50.396   7.769  13.209  0.00  0.00    +0.000 HD
ENDBRANCH   1  10
BRANCH   5  14
ATOM     14  C   UNL     1      43.605   6.293  11.171  0.00  0.00    +0.000 C 
BRANCH  14  15
ATOM     15  C   UNL     1      43.745   4.853  10.755  0.00  0.00    +0.000 A 
ATOM     16  C   UNL     1      43.130   3.849  11.490  0.00  0.00    +0.000 A 
ATOM     17  N   UNL     1      43.288   2.532  11.246  0.00  0.00    +0.000 NA
ATOM     18  C   UNL     1      44.109   2.196  10.220  0.00  0.00    +0.000 A 
ATOM     19  C   UNL     1      44.788   3.099   9.399  0.00  0.00    +0.000 A 
ATOM     20  C   UNL     1      44.586   4.452   9.704  0.00  0.00    +0.000 A 
BRANCH  19  21
ATOM     21  C   UNL     1      45.665   2.666   8.290  0.00  0.00    +0.000 A 
ATOM     22  C   UNL     1      45.995   3.530   7.236  0.00  0.00    +0.000 A 
ATOM     23  C   UNL     1      46.825   3.081   6.219  0.00  0.00    +0.000 A 
ATOM     24  N   UNL     1      47.356   1.844   6.173  0.00  0.00    +0.000 NA
ATOM     25  C   UNL     1      47.045   1.021   7.191  0.00  0.00    +0.000 A 
ATOM     26  C   UNL     1      46.219   1.377   8.247  0.00  0.00    +0.000 A 
ENDBRANCH  19  21
ENDBRANCH  14  15
ENDBRANCH   5  14
TORSDOF 4
ENDMDL
MODEL 6
REMARK VINA RESULT:    -7.925      3.079      7.194
REMARK INTER + INTRA:         -10.396
REMARK INTER:                  -9.914
REMARK INTRA:                  -0.482
REMARK UNBOUND:                -0.618
REMARK  Name = 
REMARK  4 active torsions:
REMARK  status: ('A' for Active; 'I' for Inactive)
REMARK    1  A    between atoms: C_2  and  C_4
REMARK    2  A    between atoms: N_8  and  C_9
REMARK    3  A    between atoms: C_9  and  C_10
REMARK    4  A    between atoms: C_14  and  C_15
REMARK                            x       y       z     vdW  Elec       q    Type
REMARK                         _______ _______ _______ _____ _____    ______ ____
ROOT
ATOM      1  C   UNL     1      47.832   5.456  15.336  0.00  0.00    +0.000 A 
ATOM      2  C   UNL     1      46.768   4.731  14.814  0.00  0.00    +0.000 A 
ATOM      3  C   UNL     1      46.227   5.110  13.586  0.00  0.00    +0.000 A 
ATOM      4  C   UNL     1      46.735   6.218  12.916  0.00  0.00    +0.000 A 
ATOM      5  N   UNL     1      46.313   6.591  11.657  0.00  0.00    +0.000 N 
ATOM      6  N   UNL     1      47.751   6.941  13.423  0.00  0.00    +0.000 NA
ATOM      7  C   UNL     1      48.276   6.555  14.619  0.00  0.00    +0.000 A 
ATOM      8  H   UNL     1      46.761   7.472  11.416  0.00  0.00    +0.000 HD
ENDROOT
BRANCH   1  10
ATOM      9  N   UNL     1      48.017   5.710  17.739  0.00  0.00    +0.000 N 
ATOM     10  C   UNL     1      48.484   5.096  16.610  0.00  0.00    +0.000 C 
ATOM     11  O   UNL     1      49.382   4.265  16.659  0.00  0.00    +0.000 OA
ATOM     12  H   UNL     1      48.404   5.392  18.618  0.00  0.00    +0.000 HD
ATOM     13  H   UNL     1      47.135   6.199  17.771  0.00  0.00    +0.000 HD
ENDBRANCH   1  10
BRANCH   5  14
ATOM     14  C   UNL     1      44.918   6.492  11.272  0.00  0.00    +0.000 C 
BRANCH  14  15
ATOM     15  C   UNL     1      44.623   5.140  10.678  0.00  0.00    +0.000 A 
ATOM     16  C   UNL     1      43.639   4.333  11.231  0.00  0.00    +0.000 A 
ATOM     17  N   UNL     1      43.382   3.071  10.826  0.00  0.00    +0.000 NA
ATOM     18  C   UNL     1      44.153   2.586   9.822  0.00  0.00    +0.000 A 
ATOM     19  C   UNL     1      45.175   3.285   9.175  0.00  0.00    +0.000 A 
ATOM     20  C   UNL     1      45.395   4.588   9.643  0.00  0.00    +0.000 A 
BRANCH  19  21
ATOM     21  C   UNL     1      45.977   2.698   8.080  0.00  0.00    +0.000 A 
ATOM     22  C   UNL     1      46.360   1.349   8.095  0.00  0.00    +0.000 A 
ATOM     23  C   UNL     1      47.109   0.840   7.043  0.00  0.00    +0.000 A 
ATOM     24  N   UNL     1      47.501   1.567   5.979  0.00  0.00    +0.000 NA
ATOM     25  C   UNL     1      47.123   2.859   5.964  0.00  0.00    +0.000 A 
ATOM     26  C   UNL     1      46.381   3.458   6.972  0.00  0.00    +0.000 A 
ENDBRANCH  19  21
ENDBRANCH  14  15
ENDBRANCH   5  14
TORSDOF 4
ENDMDL
MODEL 7
REMARK VINA RESULT:    -7.734      1.884      2.433
REMARK INTER + INTRA:         -10.161
REMARK INTER:                  -9.559
REMARK INTRA:                  -0.602
REMARK UNBOUND:                -0.618
REMARK  Name = 
REMARK  4 active torsions:
REMARK  status: ('A' for Active; 'I' for Inactive)
REMARK    1  A    between atoms: C_2  and  C_4
REMARK    2  A    between atoms: N_8  and  C_9
REMARK    3  A    between atoms: C_9  and  C_10
REMARK    4  A    between atoms: C_14  and  C_15
REMARK                            x       y       z     vdW  Elec       q    Type
REMARK                         _______ _______ _______ _____ _____    ______ ____
ROOT
ATOM      1  C   UNL     1      46.287   2.046   7.936  0.00  0.00    +0.000 A 
ATOM      2  C   UNL     1      45.502   1.767   9.048  0.00  0.00    +0.000 A 
ATOM      3  C   UNL     1      44.775   2.798   9.642  0.00  0.00    +0.000 A 
ATOM      4  C   UNL     1      44.866   4.091   9.137  0.00  0.00    +0.000 A 
ATOM      5  N   UNL     1      44.105   5.137   9.612  0.00  0.00    +0.000 N 
ATOM      6  N   UNL     1      45.642   4.377   8.074  0.00  0.00    +0.000 NA
ATOM      7  C   UNL     1      46.340   3.359   7.499  0.00  0.00    +0.000 A 
ATOM      8  H   UNL     1      44.409   5.992   9.152  0.00  0.00    +0.000 HD
ENDROOT
BRANCH   1  10
ATOM      9  N   UNL     1      46.780  -0.297   7.559  0.00  0.00    +0.000 N 
ATOM     10  C   UNL     1      47.055   1.003   7.230  0.00  0.00    +0.000 C 
ATOM     11  O   UNL     1      47.878   1.284   6.368  0.00  0.00    +0.000 OA
ATOM     12  H   UNL     1      47.242  -1.008   7.007  0.00  0.00    +0.000 HD
ATOM     13  H   UNL     1      45.953  -0.569   8.068  0.00  0.00    +0.000 HD
ENDBRANCH   1  10
BRANCH   5  14
ATOM     14  C   UNL     1      43.821   5.277  11.029  0.00  0.00    +0.000 C 
BRANCH  14  15
ATOM     15  C   UNL     1      44.582   6.437  11.613  0.00  0.00    +0.000 A 
ATOM     16  C   UNL     1      44.222   7.740  11.300  0.00  0.00    +0.000 A 
ATOM     17  N   UNL     1      44.911   8.829  11.697  0.00  0.00    +0.000 NA
ATOM     18  C   UNL     1      46.024   8.608  12.440  0.00  0.00    +0.000 A 
ATOM     19  C   UNL     1      46.501   7.355  12.829  0.00  0.00    +0.000 A 
ATOM     20  C   UNL     1      45.744   6.263  12.383  0.00  0.00    +0.000 A 
BRANCH  19  21
ATOM     21  C   UNL     1      47.722   7.183  13.646  0.00  0.00    +0.000 A 
ATOM     22  C   UNL     1      47.749   6.320  14.752  0.00  0.00    +0.000 A 
ATOM     23  C   UNL     1      48.918   6.188  15.486  0.00  0.00    +0.000 A 
ATOM     24  N   UNL     1      50.061   6.843  15.205  0.00  0.00    +0.000 NA
ATOM     25  C   UNL     1      50.034   7.664  14.138  0.00  0.00    +0.000 A 
ATOM     26  C   UNL     1      48.911   7.866  13.348  0.00  0.00    +0.000 A 
ENDBRANCH  19  21
ENDBRANCH  14  15
ENDBRANCH   5  14
TORSDOF 4
ENDMDL
MODEL 8
REMARK VINA RESULT:    -7.046      2.642      6.889
REMARK INTER + INTRA:          -9.312
REMARK INTER:                  -9.182
REMARK INTRA:                  -0.130
REMARK UNBOUND:                -0.618
REMARK  Name = 
REMARK  4 active torsions:
REMARK  status: ('A' for Active; 'I' for Inactive)
REMARK    1  A    between atoms: C_2  and  C_4
REMARK    2  A    between atoms: N_8  and  C_9
REMARK    3  A    between atoms: C_9  and  C_10
REMARK    4  A    between atoms: C_14  and  C_15
REMARK                            x       y       z     vdW  Elec       q    Type
REMARK                         _______ _______ _______ _____ _____    ______ ____
ROOT
ATOM      1  C   UNL     1      47.573   7.575  12.701  0.00  0.00    +0.000 A 
ATOM      2  C   UNL     1      46.185   7.550  12.654  0.00  0.00    +0.000 A 
ATOM      3  C   UNL     1      45.519   6.351  12.906  0.00  0.00    +0.000 A 
ATOM      4  C   UNL     1      46.246   5.196  13.172  0.00  0.00    +0.000 A 
ATOM      5  N   UNL     1      45.655   4.001  13.524  0.00  0.00    +0.000 N 
ATOM      6  N   UNL     1      47.593   5.204  13.198  0.00  0.00    +0.000 NA
ATOM      7  C   UNL     1      48.230   6.382  12.958  0.00  0.00    +0.000 A 
ATOM      8  H   UNL     1      46.378   3.288  13.580  0.00  0.00    +0.000 HD
ENDROOT
BRANCH   1  10
ATOM      9  N   UNL     1      49.375   8.747  11.581  0.00  0.00    +0.000 N 
ATOM     10  C   UNL     1      48.349   8.811  12.484  0.00  0.00    +0.000 C 
ATOM     11  O   UNL     1      48.070   9.854  13.062  0.00  0.00    +0.000 OA
ATOM     12  H   UNL     1      49.843   9.618  11.368  0.00  0.00    +0.000 HD
ATOM     13  H   UNL     1      49.472   7.994  10.916  0.00  0.00    +0.000 HD
ENDBRANCH   1  10
BRANCH   5  14
ATOM     14  C   UNL     1      44.417   3.565  12.904  0.00  0.00    +0.000 C 
BRANCH  14  15
ATOM     15  C   UNL     1      44.437   3.837  11.423  0.00  0.00    +0.000 A 
ATOM     16  C   UNL     1      43.532   4.728  10.863  0.00  0.00    +0.000 A 
ATOM     17  N   UNL     1      43.415   4.950   9.538  0.00  0.00    +0.000 NA
ATOM     18  C   UNL     1      44.240   4.243   8.727  0.00  0.00    +0.000 A 
ATOM     19  C   UNL     1      45.195   3.318   9.152  0.00  0.00    +0.000 A 
ATOM     20  C   UNL     1      45.266   3.127  10.539  0.00  0.00    +0.000 A 
BRANCH  19  21
ATOM     21  C   UNL     1      46.068   2.582   8.213  0.00  0.00    +0.000 A 
ATOM     22  C   UNL     1      46.187   1.185   8.262  0.00  0.00    +0.000 A 
ATOM     23  C   UNL     1      47.015   0.537   7.358  0.00  0.00    +0.000 A 
ATOM     24  N   UNL     1      47.730   1.168   6.407  0.00  0.00    +0.000 NA
ATOM     25  C   UNL     1      47.607   2.508   6.357  0.00  0.00    +0.000 A 
ATOM     26  C   UNL     1      46.810   3.244   7.221  0.00  0.00    +0.000 A 
ENDBRANCH  19  21
ENDBRANCH  14  15
ENDBRANCH   5  14
TORSDOF 4
ENDMDL
MODEL 9
REMARK VINA RESULT:    -6.818      2.930      6.862
REMARK INTER + INTRA:          -9.031
REMARK INTER:                  -8.378
REMARK INTRA:                  -0.653
REMARK UNBOUND:                -0.618
REMARK  Name = 
REMARK  4 active torsions:
REMARK  status: ('A' for Active; 'I' for Inactive)
REMARK    1  A    between atoms: C_2  and  C_4
REMARK    2  A    between atoms: N_8  and  C_9
REMARK    3  A    between atoms: C_9  and  C_10
REMARK    4  A    between atoms: C_14  and  C_15
REMARK                            x       y       z     vdW  Elec       q    Type
REMARK                         _______ _______ _______ _____ _____    ______ ____
ROOT
ATOM      1  C   UNL     1      49.947   8.605  11.915  0.00  0.00    +0.000 A 
ATOM      2  C   UNL     1      48.822   9.395  11.710  0.00  0.00    +0.000 A 
ATOM      3  C   UNL     1      47.574   8.911  12.099  0.00  0.00    +0.000 A 
ATOM      4  C   UNL     1      47.464   7.641  12.656  0.00  0.00    +0.000 A 
ATOM      5  N   UNL     1      46.279   7.138  13.150  0.00  0.00    +0.000 N 
ATOM      6  N   UNL     1      48.545   6.858  12.838  0.00  0.00    +0.000 NA
ATOM      7  C   UNL     1      49.759   7.346  12.462  0.00  0.00    +0.000 A 
ATOM      8  H   UNL     1      46.429   6.169  13.421  0.00  0.00    +0.000 HD
ENDROOT
BRANCH   1  10
ATOM      9  N   UNL     1      52.321   8.156  11.720  0.00  0.00    +0.000 N 
ATOM     10  C   UNL     1      51.306   9.061  11.566  0.00  0.00    +0.000 C 
ATOM     11  O   UNL     1      51.514  10.187  11.132  0.00  0.00    +0.000 OA
ATOM     12  H   UNL     1      53.235   8.443  11.394  0.00  0.00    +0.000 HD
ATOM     13  H   UNL     1      52.159   7.166  11.832  0.00  0.00    +0.000 HD
ENDBRANCH   1  10
BRANCH   5  14
ATOM     14  C   UNL     1      45.017   7.395  12.480  0.00  0.00    +0.000 C 
BRANCH  14  15
ATOM     15  C   UNL     1      44.483   6.136  11.850  0.00  0.00    +0.000 A 
ATOM     16  C   UNL     1      43.362   5.511  12.378  0.00  0.00    +0.000 A 
ATOM     17  N   UNL     1      42.881   4.329  11.939  0.00  0.00    +0.000 NA
ATOM     18  C   UNL     1      43.556   3.736  10.924  0.00  0.00    +0.000 A 
ATOM     19  C   UNL     1      44.694   4.251  10.299  0.00  0.00    +0.000 A 
ATOM     20  C   UNL     1      45.147   5.478  10.802  0.00  0.00    +0.000 A 
BRANCH  19  21
ATOM     21  C   UNL     1      45.381   3.554   9.191  0.00  0.00    +0.000 A 
ATOM     22  C   UNL     1      45.966   4.260   8.130  0.00  0.00    +0.000 A 
ATOM     23  C   UNL     1      46.605   3.564   7.115  0.00  0.00    +0.000 A 
ATOM     24  N   UNL     1      46.709   2.222   7.075  0.00  0.00    +0.000 NA
ATOM     25  C   UNL     1      46.154   1.547   8.099  0.00  0.00    +0.000 A 
ATOM     26  C   UNL     1      45.491   2.155   9.155  0.00  0.00    +0.000 A 
ENDBRANCH  19  21
ENDBRANCH  14  15
ENDBRANCH   5  14
TORSDOF 4
ENDMDL
