MODEL 1
REMARK VINA RESULT:    -9.065      0.000      0.000
REMARK INTER + INTRA:         -12.181
REMARK INTER:                 -11.184
REMARK INTRA:                  -0.996
REMARK UNBOUND:                -0.996
REMARK  Name = 
REMARK  8 active torsions:
REMARK  status: ('A' for Active; 'I' for Inactive)
REMARK    1  A    between atoms: C_1  and  C_2
REMARK    2  A    between atoms: C_7  and  C_8
REMARK    3  A    between atoms: C_8  and  C_9
REMARK    4  A    between atoms: C_8  and  C_10
REMARK    5  A    between atoms: C_8  and  C_11
REMARK    6  A    between atoms: C_11  and  N_12
REMARK    7  A    between atoms: C_16  and  C_17
REMARK    8  A    between atoms: C_26  and  C_27
REMARK                            x       y       z     vdW  Elec       q    Type
REMARK                         _______ _______ _______ _____ _____    ______ ____
ROOT
ATOM      1  C   UNL     1      44.192   4.417  12.205  0.00  0.00    +0.000 C 
ATOM      2  C   UNL     1      45.232   3.297  12.428  0.00  0.00    +0.000 C 
ATOM      3  C   UNL     1      43.244   4.501  13.420  0.00  0.00    +0.000 C 
ENDROOT
BRANCH   1  10
ATOM      4  C   UNL     1      48.661  10.418  12.826  0.00  0.00    +0.000 C 
ATOM      5  C   UNL     1      49.610   9.292  12.437  0.00  0.00    +0.000 C 
ATOM      6  C   UNL     1      49.000   8.268  11.461  0.00  0.00    +0.000 C 
ATOM      7  N   UNL     1      48.284   7.180  12.130  0.00  0.00    +0.000 N 
ATOM      8  C   UNL     1      46.909   7.090  12.024  0.00  0.00    +0.000 A 
ATOM      9  C   UNL     1      46.295   5.853  12.158  0.00  0.00    +0.000 A 
ATOM     10  C   UNL     1      44.916   5.769  12.051  0.00  0.00    +0.000 A 
ATOM     11  N   UNL     1      44.183   6.874  11.822  0.00  0.00    +0.000 NA
ATOM     12  C   UNL     1      44.858   8.025  11.677  0.00  0.00    +0.000 A 
ATOM     13  N   UNL     1      46.186   8.185  11.754  0.00  0.00    +0.000 NA
ATOM     14  C   UNL     1      48.962   6.596  13.291  0.00  0.00    +0.000 C 
ATOM     15  C   UNL     1      49.498   7.676  14.252  0.00  0.00    +0.000 C 
ATOM     16  C   UNL     1      48.437   8.251  15.184  0.00  0.00    +0.000 C 
ATOM     17  O   UNL     1      50.247   8.700  13.580  0.00  0.00    +0.000 OA
ENDBRANCH   1  10
BRANCH   1  18
ATOM     18  C   UNL     1      43.376   4.108  10.914  0.00  0.00    +0.000 C 
BRANCH  18  19
ATOM     19  N   UNL     1      43.861   4.832   9.733  0.00  0.00    +0.000 N 
ATOM     20  C   UNL     1      44.740   4.075   8.964  0.00  0.00    +0.000 A 
ATOM     21  N   UNL     1      44.624   2.739   8.927  0.00  0.00    +0.000 NA
ATOM     22  C   UNL     1      45.546   2.052   8.226  0.00  0.00    +0.000 A 
ATOM     23  C   UNL     1      46.568   2.650   7.528  0.00  0.00    +0.000 A 
ATOM     24  C   UNL     1      46.599   4.021   7.612  0.00  0.00    +0.000 A 
ATOM     25  N   UNL     1      45.706   4.753   8.322  0.00  0.00    +0.000 NA
ATOM     26  H   UNL     1      44.353   5.700   9.913  0.00  0.00    +0.000 HD
BRANCH  23  27
ATOM     27  C   UNL     1      47.546   1.823   6.812  0.00  0.00    +0.000 C 
ATOM     28  N   UNL     1      48.616   2.442   6.232  0.00  0.00    +0.000 N 
ATOM     29  O   UNL     1      47.391   0.613   6.714  0.00  0.00    +0.000 OA
ATOM     30  H   UNL     1      48.678   3.438   6.080  0.00  0.00    +0.000 HD
ATOM     31  H   UNL     1      49.211   1.851   5.663  0.00  0.00    +0.000 HD
ENDBRANCH  23  27
ENDBRANCH  18  19
ENDBRANCH   1  18
TORSDOF 4
ENDMDL
MODEL 2
REMARK VINA RESULT:    -8.331      1.283      2.193
REMARK INTER + INTRA:         -11.276
REMARK INTER:                 -10.630
REMARK INTRA:                  -0.646
REMARK UNBOUND:                -0.996
REMARK  Name = 
REMARK  8 active torsions:
REMARK  status: ('A' for Active; 'I' for Inactive)
REMARK    1  A    between atoms: C_1  and  C_2
REMARK    2  A    between atoms: C_7  and  C_8
REMARK    3  A    between atoms: C_8  and  C_9
REMARK    4  A    between atoms: C_8  and  C_10
REMARK    5  A    between atoms: C_8  and  C_11
REMARK    6  A    between atoms: C_11  and  N_12
REMARK    7  A    between atoms: C_16  and  C_17
REMARK    8  A    between atoms: C_26  and  C_27
REMARK                            x       y       z     vdW  Elec       q    Type
REMARK                         _______ _______ _______ _____ _____    ______ ____
ROOT
ATOM      1  C   UNL     1      43.710   5.320  12.132  0.00  0.00    +0.000 C 
ATOM      2  C   UNL     1      42.678   4.854  13.182  0.00  0.00    +0.000 C 
ATOM      3  C   UNL     1      43.228   6.628  11.469  0.00  0.00    +0.000 C 
ENDROOT
BRANCH   1  10
ATOM      4  C   UNL     1      50.577   7.647  14.086  0.00  0.00    +0.000 C 
ATOM      5  C   UNL     1      49.737   8.917  14.112  0.00  0.00    +0.000 C 
ATOM      6  C   UNL     1      48.291   8.703  14.598  0.00  0.00    +0.000 C 
ATOM      7  N   UNL     1      47.364   8.337  13.526  0.00  0.00    +0.000 N 
ATOM      8  C   UNL     1      46.823   7.066  13.485  0.00  0.00    +0.000 A 
ATOM      9  C   UNL     1      45.599   6.866  12.863  0.00  0.00    +0.000 A 
ATOM     10  C   UNL     1      45.062   5.589  12.823  0.00  0.00    +0.000 A 
ATOM     11  N   UNL     1      45.721   4.556  13.380  0.00  0.00    +0.000 NA
ATOM     12  C   UNL     1      46.884   4.841  13.986  0.00  0.00    +0.000 A 
ATOM     13  N   UNL     1      47.462   6.047  14.077  0.00  0.00    +0.000 NA
ATOM     14  C   UNL     1      47.489   9.113  12.289  0.00  0.00    +0.000 C 
ATOM     15  C   UNL     1      48.956   9.241  11.832  0.00  0.00    +0.000 C 
ATOM     16  C   UNL     1      49.478   8.014  11.092  0.00  0.00    +0.000 C 
ATOM     17  O   UNL     1      49.835   9.658  12.886  0.00  0.00    +0.000 OA
ENDBRANCH   1  10
BRANCH   1  18
ATOM     18  C   UNL     1      43.882   4.209  11.054  0.00  0.00    +0.000 C 
BRANCH  18  19
ATOM     19  N   UNL     1      44.068   4.739   9.698  0.00  0.00    +0.000 N 
ATOM     20  C   UNL     1      44.937   3.967   8.934  0.00  0.00    +0.000 A 
ATOM     21  N   UNL     1      45.036   2.648   9.154  0.00  0.00    +0.000 NA
ATOM     22  C   UNL     1      45.946   1.962   8.436  0.00  0.00    +0.000 A 
ATOM     23  C   UNL     1      46.744   2.537   7.478  0.00  0.00    +0.000 A 
ATOM     24  C   UNL     1      46.564   3.890   7.312  0.00  0.00    +0.000 A 
ATOM     25  N   UNL     1      45.676   4.624   8.025  0.00  0.00    +0.000 NA
ATOM     26  H   UNL     1      44.432   5.683   9.634  0.00  0.00    +0.000 HD
BRANCH  23  27
ATOM     27  C   UNL     1      47.731   1.721   6.760  0.00  0.00    +0.000 C 
ATOM     28  N   UNL     1      48.551   2.338   5.860  0.00  0.00    +0.000 N 
ATOM     29  O   UNL     1      47.795   0.513   6.944  0.00  0.00    +0.000 OA
ATOM     30  H   UNL     1      48.395   3.268   5.499  0.00  0.00    +0.000 HD
ATOM     31  H   UNL     1      49.145   1.725   5.314  0.00  0.00    +0.000 HD
ENDBRANCH  23  27
ENDBRANCH  18  19
ENDBRANCH   1  18
TORSDOF 4
ENDMDL
MODEL 3
REMARK VINA RESULT:    -7.408      2.865      3.646
REMARK INTER + INTRA:         -10.136
REMARK INTER:                  -9.566
REMARK INTRA:                  -0.571
REMARK UNBOUND:                -0.996
REMARK  Name = 
REMARK  8 active torsions:
REMARK  status: ('A' for Active; 'I' for Inactive)
REMARK    1  A    between atoms: C_1  and  C_2
REMARK    2  A    between atoms: C_7  and  C_8
REMARK    3  A    between atoms: C_8  and  C_9
REMARK    4  A    between atoms: C_8  and  C_10
REMARK    5  A    between atoms: C_8  and  C_11
REMARK    6  A    between atoms: C_11  and  N_12
REMARK    7  A    between atoms: C_16  and  C_17
REMARK    8  A    between atoms: C_26  and  C_27
REMARK                            x       y       z     vdW  Elec       q    Type
REMARK                         _______ _______ _______ _____ _____    ______ ____
ROOT
ATOM      1  C   UNL     1      44.226   5.248  12.501  0.00  0.00    +0.000 C 
ATOM      2  C   UNL     1      43.170   4.920  13.579  0.00  0.00    +0.000 C 
ATOM      3  C   UNL     1      43.912   6.617  11.861  0.00  0.00    +0.000 C 
ENDROOT
BRANCH   1  10
ATOM      4  C   UNL     1      50.107   5.440  17.166  0.00  0.00    +0.000 C 
ATOM      5  C   UNL     1      49.530   4.043  17.358  0.00  0.00    +0.000 C 
ATOM      6  C   UNL     1      48.960   3.418  16.071  0.00  0.00    +0.000 C 
ATOM      7  N   UNL     1      47.557   3.759  15.829  0.00  0.00    +0.000 N 
ATOM      8  C   UNL     1      47.218   4.585  14.774  0.00  0.00    +0.000 A 
ATOM      9  C   UNL     1      45.956   4.486  14.208  0.00  0.00    +0.000 A 
ATOM     10  C   UNL     1      45.622   5.317  13.151  0.00  0.00    +0.000 A 
ATOM     11  N   UNL     1      46.512   6.210  12.681  0.00  0.00    +0.000 NA
ATOM     12  C   UNL     1      47.720   6.221  13.266  0.00  0.00    +0.000 A 
ATOM     13  N   UNL     1      48.122   5.444  14.281  0.00  0.00    +0.000 NA
ATOM     14  C   UNL     1      46.676   3.676  16.997  0.00  0.00    +0.000 C 
ATOM     15  C   UNL     1      47.284   4.369  18.232  0.00  0.00    +0.000 C 
ATOM     16  C   UNL     1      47.112   5.885  18.234  0.00  0.00    +0.000 C 
ATOM     17  O   UNL     1      48.640   3.974  18.483  0.00  0.00    +0.000 OA
ENDBRANCH   1  10
BRANCH   1  18
ATOM     18  C   UNL     1      44.208   4.135  11.411  0.00  0.00    +0.000 C 
BRANCH  18  19
ATOM     19  N   UNL     1      44.195   4.664  10.041  0.00  0.00    +0.000 N 
ATOM     20  C   UNL     1      44.965   3.904   9.166  0.00  0.00    +0.000 A 
ATOM     21  N   UNL     1      45.117   2.588   9.372  0.00  0.00    +0.000 NA
ATOM     22  C   UNL     1      45.932   1.915   8.536  0.00  0.00    +0.000 A 
ATOM     23  C   UNL     1      46.580   2.502   7.476  0.00  0.00    +0.000 A 
ATOM     24  C   UNL     1      46.354   3.850   7.335  0.00  0.00    +0.000 A 
ATOM     25  N   UNL     1      45.560   4.571   8.164  0.00  0.00    +0.000 NA
ATOM     26  H   UNL     1      44.531   5.614   9.927  0.00  0.00    +0.000 HD
BRANCH  23  27
ATOM     27  C   UNL     1      47.473   1.700   6.631  0.00  0.00    +0.000 C 
ATOM     28  N   UNL     1      48.609   2.286   6.150  0.00  0.00    +0.000 N 
ATOM     29  O   UNL     1      47.190   0.545   6.341  0.00  0.00    +0.000 OA
ATOM     30  H   UNL     1      48.778   3.281   6.159  0.00  0.00    +0.000 HD
ATOM     31  H   UNL     1      49.143   1.732   5.490  0.00  0.00    +0.000 HD
ENDBRANCH  23  27
ENDBRANCH  18  19
ENDBRANCH   1  18
TORSDOF 4
ENDMDL
MODEL 4
REMARK VINA RESULT:    -7.329      3.042      4.147
REMARK INTER + INTRA:         -10.039
REMARK INTER:                  -9.477
REMARK INTRA:                  -0.562
REMARK UNBOUND:                -0.996
REMARK  Name = 
REMARK  8 active torsions:
REMARK  status: ('A' for Active; 'I' for Inactive)
REMARK    1  A    between atoms: C_1  and  C_2
REMARK    2  A    between atoms: C_7  and  C_8
REMARK    3  A    between atoms: C_8  and  C_9
REMARK    4  A    between atoms: C_8  and  C_10
REMARK    5  A    between atoms: C_8  and  C_11
REMARK    6  A    between atoms: C_11  and  N_12
REMARK    7  A    between atoms: C_16  and  C_17
REMARK    8  A    between atoms: C_26  and  C_27
REMARK                            x       y       z     vdW  Elec       q    Type
REMARK                         _______ _______ _______ _____ _____    ______ ____
ROOT
ATOM      1  C   UNL     1      45.739   6.056  12.162  0.00  0.00    +0.000 C 
ATOM      2  C   UNL     1      44.993   7.216  12.859  0.00  0.00    +0.000 C 
ATOM      3  C   UNL     1      46.873   6.619  11.279  0.00  0.00    +0.000 C 
ENDROOT
BRANCH   1  10
ATOM      4  C   UNL     1      49.724   2.959  17.721  0.00  0.00    +0.000 C 
ATOM      5  C   UNL     1      48.911   4.046  18.412  0.00  0.00    +0.000 C 
ATOM      6  C   UNL     1      47.499   4.240  17.828  0.00  0.00    +0.000 C 
ATOM      7  N   UNL     1      47.456   5.183  16.709  0.00  0.00    +0.000 N 
ATOM      8  C   UNL     1      47.189   4.728  15.431  0.00  0.00    +0.000 A 
ATOM      9  C   UNL     1      46.622   5.590  14.505  0.00  0.00    +0.000 A 
ATOM     10  C   UNL     1      46.358   5.129  13.225  0.00  0.00    +0.000 A 
ATOM     11  N   UNL     1      46.650   3.859  12.887  0.00  0.00    +0.000 NA
ATOM     12  C   UNL     1      47.169   3.083  13.851  0.00  0.00    +0.000 A 
ATOM     13  N   UNL     1      47.443   3.451  15.111  0.00  0.00    +0.000 NA
ATOM     14  C   UNL     1      48.223   6.419  16.893  0.00  0.00    +0.000 C 
ATOM     15  C   UNL     1      49.642   6.146  17.427  0.00  0.00    +0.000 C 
ATOM     16  C   UNL     1      50.632   5.716  16.350  0.00  0.00    +0.000 C 
ATOM     17  O   UNL     1      49.654   5.267  18.561  0.00  0.00    +0.000 OA
ENDBRANCH   1  10
BRANCH   1  18
ATOM     18  C   UNL     1      44.732   5.253  11.285  0.00  0.00    +0.000 C 
BRANCH  18  19
ATOM     19  N   UNL     1      44.880   5.510   9.847  0.00  0.00    +0.000 N 
ATOM     20  C   UNL     1      45.372   4.409   9.153  0.00  0.00    +0.000 A 
ATOM     21  N   UNL     1      45.106   3.168   9.586  0.00  0.00    +0.000 NA
ATOM     22  C   UNL     1      45.668   2.141   8.919  0.00  0.00    +0.000 A 
ATOM     23  C   UNL     1      46.463   2.302   7.811  0.00  0.00    +0.000 A 
ATOM     24  C   UNL     1      46.669   3.608   7.433  0.00  0.00    +0.000 A 
ATOM     25  N   UNL     1      46.142   4.672   8.085  0.00  0.00    +0.000 NA
ATOM     26  H   UNL     1      45.495   6.275   9.591  0.00  0.00    +0.000 HD
BRANCH  23  27
ATOM     27  C   UNL     1      47.058   1.129   7.160  0.00  0.00    +0.000 C 
ATOM     28  N   UNL     1      46.753  -0.108   7.650  0.00  0.00    +0.000 N 
ATOM     29  O   UNL     1      47.831   1.260   6.220  0.00  0.00    +0.000 OA
ATOM     30  H   UNL     1      46.318  -0.269   8.547  0.00  0.00    +0.000 HD
ATOM     31  H   UNL     1      47.262  -0.882   7.238  0.00  0.00    +0.000 HD
ENDBRANCH  23  27
ENDBRANCH  18  19
ENDBRANCH   1  18
TORSDOF 4
ENDMDL
MODEL 5
REMARK VINA RESULT:    -6.789      3.302      5.422
REMARK INTER + INTRA:          -9.372
REMARK INTER:                  -8.501
REMARK INTRA:                  -0.871
REMARK UNBOUND:                -0.996
REMARK  Name = 
REMARK  8 active torsions:
REMARK  status: ('A' for Active; 'I' for Inactive)
REMARK    1  A    between atoms: C_1  and  C_2
REMARK    2  A    between atoms: C_7  and  C_8
REMARK    3  A    between atoms: C_8  and  C_9
REMARK    4  A    between atoms: C_8  and  C_10
REMARK    5  A    between atoms: C_8  and  C_11
REMARK    6  A    between atoms: C_11  and  N_12
REMARK    7  A    between atoms: C_16  and  C_17
REMARK    8  A    between atoms: C_26  and  C_27
REMARK                            x       y       z     vdW  Elec       q    Type
REMARK                         _______ _______ _______ _____ _____    ______ ____
ROOT
ATOM      1  C   UNL     1      48.302   4.519  17.048  0.00  0.00    +0.000 C 
ATOM      2  C   UNL     1      49.077   3.184  17.011  0.00  0.00    +0.000 C 
ATOM      3  C   UNL     1      47.910   4.856  18.503  0.00  0.00    +0.000 C 
ENDROOT
BRANCH   1  10
ATOM      4  C   UNL     1      51.648   9.861  12.969  0.00  0.00    +0.000 C 
ATOM      5  C   UNL     1      50.239  10.397  13.193  0.00  0.00    +0.000 C 
ATOM      6  C   UNL     1      49.647  10.047  14.570  0.00  0.00    +0.000 C 
ATOM      7  N   UNL     1      48.957   8.756  14.597  0.00  0.00    +0.000 N 
ATOM      8  C   UNL     1      49.493   7.700  15.310  0.00  0.00    +0.000 A 
ATOM      9  C   UNL     1      48.653   6.706  15.791  0.00  0.00    +0.000 A 
ATOM     10  C   UNL     1      49.197   5.650  16.505  0.00  0.00    +0.000 A 
ATOM     11  N   UNL     1      50.523   5.589  16.725  0.00  0.00    +0.000 NA
ATOM     12  C   UNL     1      51.260   6.605  16.250  0.00  0.00    +0.000 A 
ATOM     13  N   UNL     1      50.809   7.664  15.563  0.00  0.00    +0.000 NA
ATOM     14  C   UNL     1      48.072   8.488  13.459  0.00  0.00    +0.000 C 
ATOM     15  C   UNL     1      48.748   8.809  12.112  0.00  0.00    +0.000 C 
ATOM     16  C   UNL     1      49.685   7.711  11.617  0.00  0.00    +0.000 C 
ATOM     17  O   UNL     1      49.366  10.103  12.091  0.00  0.00    +0.000 OA
ENDBRANCH   1  10
BRANCH   1  18
ATOM     18  C   UNL     1      47.022   4.392  16.169  0.00  0.00    +0.000 C 
BRANCH  18  19
ATOM     19  N   UNL     1      47.227   3.587  14.958  0.00  0.00    +0.000 N 
ATOM     20  C   UNL     1      46.411   3.986  13.904  0.00  0.00    +0.000 A 
ATOM     21  N   UNL     1      46.029   5.267  13.796  0.00  0.00    +0.000 NA
ATOM     22  C   UNL     1      45.180   5.583  12.799  0.00  0.00    +0.000 A 
ATOM     23  C   UNL     1      44.720   4.673  11.879  0.00  0.00    +0.000 A 
ATOM     24  C   UNL     1      45.176   3.389  12.060  0.00  0.00    +0.000 A 
ATOM     25  N   UNL     1      46.013   3.020  13.060  0.00  0.00    +0.000 NA
ATOM     26  H   UNL     1      47.063   2.590  15.052  0.00  0.00    +0.000 HD
BRANCH  23  27
ATOM     27  C   UNL     1      43.775   5.097  10.839  0.00  0.00    +0.000 C 
ATOM     28  N   UNL     1      44.054   4.779   9.541  0.00  0.00    +0.000 N 
ATOM     29  O   UNL     1      42.777   5.744  11.127  0.00  0.00    +0.000 OA
ATOM     30  H   UNL     1      44.956   4.457   9.220  0.00  0.00    +0.000 HD
ATOM     31  H   UNL     1      43.432   5.176   8.847  0.00  0.00    +0.000 HD
ENDBRANCH  23  27
ENDBRANCH  18  19
ENDBRANCH   1  18
TORSDOF 4
ENDMDL
MODEL 6
REMARK VINA RESULT:    -6.636      5.477      7.441
REMARK INTER + INTRA:          -9.185
REMARK INTER:                  -8.468
REMARK INTRA:                  -0.717
REMARK UNBOUND:                -0.996
REMARK  Name = 
REMARK  8 active torsions:
REMARK  status: ('A' for Active; 'I' for Inactive)
REMARK    1  A    between atoms: C_1  and  C_2
REMARK    2  A    between atoms: C_7  and  C_8
REMARK    3  A    between atoms: C_8  and  C_9
REMARK    4  A    between atoms: C_8  and  C_10
REMARK    5  A    between atoms: C_8  and  C_11
REMARK    6  A    between atoms: C_11  and  N_12
REMARK    7  A    between atoms: C_16  and  C_17
REMARK    8  A    between atoms: C_26  and  C_27
REMARK                            x       y       z     vdW  Elec       q    Type
REMARK                         _______ _______ _______ _____ _____    ______ ____
ROOT
ATOM      1  C   UNL     1      47.777   4.091  17.309  0.00  0.00    +0.000 C 
ATOM      2  C   UNL     1      46.776   2.925  17.469  0.00  0.00    +0.000 C 
ATOM      3  C   UNL     1      47.529   5.147  18.407  0.00  0.00    +0.000 C 
ENDROOT
BRANCH   1  10
ATOM      4  C   UNL     1      55.218   3.180  17.737  0.00  0.00    +0.000 C 
ATOM      5  C   UNL     1      54.886   4.068  18.930  0.00  0.00    +0.000 C 
ATOM      6  C   UNL     1      53.535   3.746  19.595  0.00  0.00    +0.000 C 
ATOM      7  N   UNL     1      52.405   4.456  18.993  0.00  0.00    +0.000 N 
ATOM      8  C   UNL     1      51.453   3.756  18.276  0.00  0.00    +0.000 A 
ATOM      9  C   UNL     1      50.166   4.263  18.176  0.00  0.00    +0.000 A 
ATOM     10  C   UNL     1      49.215   3.558  17.455  0.00  0.00    +0.000 A 
ATOM     11  N   UNL     1      49.540   2.396  16.858  0.00  0.00    +0.000 NA
ATOM     12  C   UNL     1      50.798   1.962  17.028  0.00  0.00    +0.000 A 
ATOM     13  N   UNL     1      51.768   2.579  17.718  0.00  0.00    +0.000 NA
ATOM     14  C   UNL     1      52.629   5.876  18.708  0.00  0.00    +0.000 C 
ATOM     15  C   UNL     1      53.973   6.118  17.993  0.00  0.00    +0.000 C 
ATOM     16  C   UNL     1      53.930   5.845  16.493  0.00  0.00    +0.000 C 
ATOM     17  O   UNL     1      55.074   5.462  18.637  0.00  0.00    +0.000 OA
ENDBRANCH   1  10
BRANCH   1  18
ATOM     18  C   UNL     1      47.594   4.733  15.902  0.00  0.00    +0.000 C 
BRANCH  18  19
ATOM     19  N   UNL     1      47.425   3.745  14.830  0.00  0.00    +0.000 N 
ATOM     20  C   UNL     1      46.548   4.173  13.838  0.00  0.00    +0.000 A 
ATOM     21  N   UNL     1      46.426   5.480  13.566  0.00  0.00    +0.000 NA
ATOM     22  C   UNL     1      45.509   5.844  12.649  0.00  0.00    +0.000 A 
ATOM     23  C   UNL     1      44.725   4.947  11.964  0.00  0.00    +0.000 A 
ATOM     24  C   UNL     1      44.929   3.630  12.299  0.00  0.00    +0.000 A 
ATOM     25  N   UNL     1      45.825   3.219  13.229  0.00  0.00    +0.000 NA
ATOM     26  H   UNL     1      47.076   2.835  15.112  0.00  0.00    +0.000 HD
BRANCH  23  27
ATOM     27  C   UNL     1      43.730   5.431  11.000  0.00  0.00    +0.000 C 
ATOM     28  N   UNL     1      43.132   6.636  11.236  0.00  0.00    +0.000 N 
ATOM     29  O   UNL     1      43.425   4.758  10.025  0.00  0.00    +0.000 OA
ATOM     30  H   UNL     1      43.167   7.119  12.122  0.00  0.00    +0.000 HD
ATOM     31  H   UNL     1      42.381   6.884  10.603  0.00  0.00    +0.000 HD
ENDBRANCH  23  27
ENDBRANCH  18  19
ENDBRANCH   1  18
TORSDOF 4
ENDMDL
MODEL 7
REMARK VINA RESULT:    -6.449      4.777      6.648
REMARK INTER + INTRA:          -8.954
REMARK INTER:                  -8.173
REMARK INTRA:                  -0.781
REMARK UNBOUND:                -0.996
REMARK  Name = 
REMARK  8 active torsions:
REMARK  status: ('A' for Active; 'I' for Inactive)
REMARK    1  A    between atoms: C_1  and  C_2
REMARK    2  A    between atoms: C_7  and  C_8
REMARK    3  A    between atoms: C_8  and  C_9
REMARK    4  A    between atoms: C_8  and  C_10
REMARK    5  A    between atoms: C_8  and  C_11
REMARK    6  A    between atoms: C_11  and  N_12
REMARK    7  A    between atoms: C_16  and  C_17
REMARK    8  A    between atoms: C_26  and  C_27
REMARK                            x       y       z     vdW  Elec       q    Type
REMARK                         _______ _______ _______ _____ _____    ______ ____
ROOT
ATOM      1  C   UNL     1      48.367   3.335  16.910  0.00  0.00    +0.000 C 
ATOM      2  C   UNL     1      49.354   2.149  16.977  0.00  0.00    +0.000 C 
ATOM      3  C   UNL     1      47.154   3.058  17.823  0.00  0.00    +0.000 C 
ENDROOT
BRANCH   1  10
ATOM      4  C   UNL     1      50.145  10.072  19.708  0.00  0.00    +0.000 C 
ATOM      5  C   UNL     1      49.600   9.307  20.907  0.00  0.00    +0.000 C 
ATOM      6  C   UNL     1      49.953   7.808  20.907  0.00  0.00    +0.000 C 
ATOM      7  N   UNL     1      48.986   6.982  20.181  0.00  0.00    +0.000 N 
ATOM      8  C   UNL     1      49.349   6.378  18.993  0.00  0.00    +0.000 A 
ATOM      9  C   UNL     1      48.701   5.218  18.592  0.00  0.00    +0.000 A 
ATOM     10  C   UNL     1      49.069   4.617  17.398  0.00  0.00    +0.000 A 
ATOM     11  N   UNL     1      50.042   5.153  16.638  0.00  0.00    +0.000 NA
ATOM     12  C   UNL     1      50.637   6.258  17.113  0.00  0.00    +0.000 A 
ATOM     13  N   UNL     1      50.347   6.891  18.259  0.00  0.00    +0.000 NA
ATOM     14  C   UNL     1      47.575   7.284  20.440  0.00  0.00    +0.000 C 
ATOM     15  C   UNL     1      47.284   8.796  20.370  0.00  0.00    +0.000 C 
ATOM     16  C   UNL     1      47.116   9.324  18.950  0.00  0.00    +0.000 C 
ATOM     17  O   UNL     1      48.209   9.579  21.138  0.00  0.00    +0.000 OA
ENDBRANCH   1  10
BRANCH   1  18
ATOM     18  C   UNL     1      47.893   3.523  15.438  0.00  0.00    +0.000 C 
BRANCH  18  19
ATOM     19  N   UNL     1      47.134   4.762  15.226  0.00  0.00    +0.000 N 
ATOM     20  C   UNL     1      46.451   4.772  14.014  0.00  0.00    +0.000 A 
ATOM     21  N   UNL     1      46.016   3.623  13.477  0.00  0.00    +0.000 NA
ATOM     22  C   UNL     1      45.427   3.683  12.267  0.00  0.00    +0.000 A 
ATOM     23  C   UNL     1      45.222   4.857  11.582  0.00  0.00    +0.000 A 
ATOM     24  C   UNL     1      45.688   5.984  12.216  0.00  0.00    +0.000 A 
ATOM     25  N   UNL     1      46.306   5.969  13.422  0.00  0.00    +0.000 NA
ATOM     26  H   UNL     1      47.672   5.621  15.230  0.00  0.00    +0.000 HD
BRANCH  23  27
ATOM     27  C   UNL     1      44.595   4.830  10.255  0.00  0.00    +0.000 C 
ATOM     28  N   UNL     1      45.398   4.948   9.157  0.00  0.00    +0.000 N 
ATOM     29  O   UNL     1      43.381   4.731  10.139  0.00  0.00    +0.000 OA
ATOM     30  H   UNL     1      46.358   5.259   9.190  0.00  0.00    +0.000 HD
ATOM     31  H   UNL     1      44.918   5.027   8.268  0.00  0.00    +0.000 HD
ENDBRANCH  23  27
ENDBRANCH  18  19
ENDBRANCH   1  18
TORSDOF 4
ENDMDL
MODEL 8
REMARK VINA RESULT:    -6.429      3.809      6.474
REMARK INTER + INTRA:          -8.929
REMARK INTER:                  -8.063
REMARK INTRA:                  -0.866
REMARK UNBOUND:                -0.996
REMARK  Name = 
REMARK  8 active torsions:
REMARK  status: ('A' for Active; 'I' for Inactive)
REMARK    1  A    between atoms: C_1  and  C_2
REMARK    2  A    between atoms: C_7  and  C_8
REMARK    3  A    between atoms: C_8  and  C_9
REMARK    4  A    between atoms: C_8  and  C_10
REMARK    5  A    between atoms: C_8  and  C_11
REMARK    6  A    between atoms: C_11  and  N_12
REMARK    7  A    between atoms: C_16  and  C_17
REMARK    8  A    between atoms: C_26  and  C_27
REMARK                            x       y       z     vdW  Elec       q    Type
REMARK                         _______ _______ _______ _____ _____    ______ ____
ROOT
ATOM      1  C   UNL     1      49.672   8.364  13.302  0.00  0.00    +0.000 C 
ATOM      2  C   UNL     1      48.988   9.614  12.706  0.00  0.00    +0.000 C 
ATOM      3  C   UNL     1      51.206   8.509  13.203  0.00  0.00    +0.000 C 
ENDROOT
BRANCH   1  10
ATOM      4  C   UNL     1      47.589   5.993  20.116  0.00  0.00    +0.000 C 
ATOM      5  C   UNL     1      48.920   5.294  19.874  0.00  0.00    +0.000 C 
ATOM      6  C   UNL     1      49.940   6.140  19.089  0.00  0.00    +0.000 C 
ATOM      7  N   UNL     1      49.818   6.002  17.637  0.00  0.00    +0.000 N 
ATOM      8  C   UNL     1      49.366   7.064  16.877  0.00  0.00    +0.000 A 
ATOM      9  C   UNL     1      49.744   7.159  15.546  0.00  0.00    +0.000 A 
ATOM     10  C   UNL     1      49.286   8.226  14.788  0.00  0.00    +0.000 A 
ATOM     11  N   UNL     1      48.485   9.157  15.339  0.00  0.00    +0.000 NA
ATOM     12  C   UNL     1      48.191   9.005  16.640  0.00  0.00    +0.000 A 
ATOM     13  N   UNL     1      48.602   8.011  17.440  0.00  0.00    +0.000 NA
ATOM     14  C   UNL     1      49.646   4.632  17.144  0.00  0.00    +0.000 C 
ATOM     15  C   UNL     1      48.573   3.862  17.939  0.00  0.00    +0.000 C 
ATOM     16  C   UNL     1      47.144   4.176  17.506  0.00  0.00    +0.000 C 
ATOM     17  O   UNL     1      48.748   3.964  19.359  0.00  0.00    +0.000 OA
ENDBRANCH   1  10
BRANCH   1  18
ATOM     18  C   UNL     1      49.205   7.102  12.518  0.00  0.00    +0.000 C 
BRANCH  18  19
ATOM     19  N   UNL     1      48.055   7.356  11.641  0.00  0.00    +0.000 N 
ATOM     20  C   UNL     1      46.955   6.564  11.955  0.00  0.00    +0.000 A 
ATOM     21  N   UNL     1      46.754   6.163  13.219  0.00  0.00    +0.000 NA
ATOM     22  C   UNL     1      45.715   5.338  13.455  0.00  0.00    +0.000 A 
ATOM     23  C   UNL     1      44.843   4.921  12.478  0.00  0.00    +0.000 A 
ATOM     24  C   UNL     1      45.120   5.394  11.217  0.00  0.00    +0.000 A 
ATOM     25  N   UNL     1      46.165   6.207  10.930  0.00  0.00    +0.000 NA
ATOM     26  H   UNL     1      48.209   7.206  10.650  0.00  0.00    +0.000 HD
BRANCH  23  27
ATOM     27  C   UNL     1      43.752   3.999  12.816  0.00  0.00    +0.000 C 
ATOM     28  N   UNL     1      43.930   2.668  12.572  0.00  0.00    +0.000 N 
ATOM     29  O   UNL     1      42.700   4.418  13.280  0.00  0.00    +0.000 OA
ATOM     30  H   UNL     1      44.666   2.294  11.989  0.00  0.00    +0.000 HD
ATOM     31  H   UNL     1      43.118   2.081  12.724  0.00  0.00    +0.000 HD
ENDBRANCH  23  27
ENDBRANCH  18  19
ENDBRANCH   1  18
TORSDOF 4
ENDMDL
MODEL 9
REMARK VINA RESULT:    -6.412      3.564      8.244
REMARK INTER + INTRA:          -8.908
REMARK INTER:                  -8.197
REMARK INTRA:                  -0.712
REMARK UNBOUND:                -0.996
REMARK  Name = 
REMARK  8 active torsions:
REMARK  status: ('A' for Active; 'I' for Inactive)
REMARK    1  A    between atoms: C_1  and  C_2
REMARK    2  A    between atoms: C_7  and  C_8
REMARK    3  A    between atoms: C_8  and  C_9
REMARK    4  A    between atoms: C_8  and  C_10
REMARK    5  A    between atoms: C_8  and  C_11
REMARK    6  A    between atoms: C_11  and  N_12
REMARK    7  A    between atoms: C_16  and  C_17
REMARK    8  A    between atoms: C_26  and  C_27
REMARK                            x       y       z     vdW  Elec       q    Type
REMARK                         _______ _______ _______ _____ _____    ______ ____
ROOT
ATOM      1  C   UNL     1      49.206   8.150  12.856  0.00  0.00    +0.000 C 
ATOM      2  C   UNL     1      49.877   7.691  11.543  0.00  0.00    +0.000 C 
ATOM      3  C   UNL     1      49.438   9.662  13.062  0.00  0.00    +0.000 C 
ENDROOT
BRANCH   1  10
ATOM      4  C   UNL     1      42.312   5.485  11.532  0.00  0.00    +0.000 C 
ATOM      5  C   UNL     1      42.959   4.416  12.403  0.00  0.00    +0.000 C 
ATOM      6  C   UNL     1      43.911   4.974  13.477  0.00  0.00    +0.000 C 
ATOM      7  N   UNL     1      45.285   5.151  13.002  0.00  0.00    +0.000 N 
ATOM      8  C   UNL     1      45.803   6.422  12.845  0.00  0.00    +0.000 A 
ATOM      9  C   UNL     1      47.174   6.616  12.935  0.00  0.00    +0.000 A 
ATOM     10  C   UNL     1      47.688   7.893  12.776  0.00  0.00    +0.000 A 
ATOM     11  N   UNL     1      46.866   8.931  12.536  0.00  0.00    +0.000 NA
ATOM     12  C   UNL     1      45.552   8.662  12.493  0.00  0.00    +0.000 A 
ATOM     13  N   UNL     1      44.979   7.461  12.648  0.00  0.00    +0.000 NA
ATOM     14  C   UNL     1      45.829   4.043  12.212  0.00  0.00    +0.000 C 
ATOM     15  C   UNL     1      44.846   3.572  11.122  0.00  0.00    +0.000 C 
ATOM     16  C   UNL     1      44.853   4.444   9.870  0.00  0.00    +0.000 C 
ATOM     17  O   UNL     1      43.521   3.348  11.623  0.00  0.00    +0.000 OA
ENDBRANCH   1  10
BRANCH   1  18
ATOM     18  C   UNL     1      49.812   7.352  14.048  0.00  0.00    +0.000 C 
BRANCH  18  19
ATOM     19  N   UNL     1      49.651   8.028  15.342  0.00  0.00    +0.000 N 
ATOM     20  C   UNL     1      49.468   7.136  16.394  0.00  0.00    +0.000 A 
ATOM     21  N   UNL     1      50.018   5.913  16.343  0.00  0.00    +0.000 NA
ATOM     22  C   UNL     1      49.747   5.065  17.355  0.00  0.00    +0.000 A 
ATOM     23  C   UNL     1      48.972   5.401  18.438  0.00  0.00    +0.000 A 
ATOM     24  C   UNL     1      48.464   6.678  18.410  0.00  0.00    +0.000 A 
ATOM     25  N   UNL     1      48.692   7.558  17.405  0.00  0.00    +0.000 NA
ATOM     26  H   UNL     1      48.876   8.677  15.413  0.00  0.00    +0.000 HD
BRANCH  23  27
ATOM     27  C   UNL     1      48.705   4.407  19.484  0.00  0.00    +0.000 C 
ATOM     28  N   UNL     1      48.329   3.151  19.102  0.00  0.00    +0.000 N 
ATOM     29  O   UNL     1      48.791   4.705  20.667  0.00  0.00    +0.000 OA
ATOM     30  H   UNL     1      48.021   2.912  18.171  0.00  0.00    +0.000 HD
ATOM     31  H   UNL     1      48.057   2.527  19.853  0.00  0.00    +0.000 HD
ENDBRANCH  23  27
ENDBRANCH  18  19
ENDBRANCH   1  18
TORSDOF 4
ENDMDL
