MODEL 1
REMARK VINA RESULT:    -9.046      0.000      0.000
REMARK INTER + INTRA:         -12.533
REMARK INTER:                 -11.690
REMARK INTRA:                  -0.843
REMARK UNBOUND:                -0.843
REMARK  Name = 
REMARK  8 active torsions:
REMARK  status: ('A' for Active; 'I' for Inactive)
REMARK    1  A    between atoms: C_1  and  N_2
REMARK    2  A    between atoms: N_5  and  C_6
REMARK    3  A    between atoms: C_10  and  C_11
REMARK    4  A    between atoms: C_11  and  C_12
REMARK    5  A    between atoms: C_11  and  C_13
REMARK    6  A    between atoms: C_11  and  C_14
REMARK    7  A    between atoms: C_14  and  N_15
REMARK    8  A    between atoms: C_19  and  C_20
REMARK                            x       y       z     vdW  Elec       q    Type
REMARK                         _______ _______ _______ _____ _____    ______ ____
ROOT
ATOM      1  C   UNL     1      43.647   5.036  12.083  0.00  0.00    +0.000 C 
ATOM      2  C   UNL     1      43.029   4.507  13.400  0.00  0.00    +0.000 C 
ATOM      3  C   UNL     1      42.736   6.162  11.534  0.00  0.00    +0.000 C 
ENDROOT
BRANCH   1   8
ATOM      4  C   UNL     1      47.041   5.700  13.854  0.00  0.00    +0.000 A 
ATOM      5  C   UNL     1      47.705   6.403  12.845  0.00  0.00    +0.000 A 
ATOM      6  C   UNL     1      47.068   6.737  11.647  0.00  0.00    +0.000 A 
ATOM      7  C   UNL     1      45.758   6.325  11.412  0.00  0.00    +0.000 A 
ATOM      8  C   UNL     1      45.048   5.603  12.383  0.00  0.00    +0.000 A 
ATOM      9  C   UNL     1      45.697   5.375  13.611  0.00  0.00    +0.000 A 
BRANCH   4  14
ATOM     10  C   UNL     1      48.213   5.024  19.235  0.00  0.00    +0.000 C 
ATOM     11  N   UNL     1      48.386   4.838  17.798  0.00  0.00    +0.000 NA
ATOM     12  C   UNL     1      47.178   4.228  17.198  0.00  0.00    +0.000 C 
ATOM     13  C   UNL     1      47.306   4.015  15.669  0.00  0.00    +0.000 C 
ATOM     14  N   UNL     1      47.673   5.273  15.003  0.00  0.00    +0.000 N 
ATOM     15  C   UNL     1      48.825   5.971  15.598  0.00  0.00    +0.000 C 
ATOM     16  C   UNL     1      48.644   6.133  17.125  0.00  0.00    +0.000 C 
ENDBRANCH   4  14
ENDBRANCH   1   8
BRANCH   1  17
ATOM     17  C   UNL     1      43.613   3.843  11.065  0.00  0.00    +0.000 C 
BRANCH  17  18
ATOM     18  N   UNL     1      43.738   4.260   9.664  0.00  0.00    +0.000 N 
ATOM     19  C   UNL     1      44.784   3.729   8.920  0.00  0.00    +0.000 A 
ATOM     20  C   UNL     1      45.128   2.386   8.984  0.00  0.00    +0.000 A 
ATOM     21  C   UNL     1      46.130   1.888   8.152  0.00  0.00    +0.000 A 
ATOM     22  C   UNL     1      46.775   2.736   7.260  0.00  0.00    +0.000 A 
ATOM     23  C   UNL     1      46.385   4.066   7.270  0.00  0.00    +0.000 A 
ATOM     24  N   UNL     1      45.412   4.575   8.077  0.00  0.00    +0.000 NA
ATOM     25  H   UNL     1      43.729   5.265   9.498  0.00  0.00    +0.000 HD
BRANCH  22  26
ATOM     26  C   UNL     1      47.805   2.164   6.359  0.00  0.00    +0.000 C 
ATOM     27  N   UNL     1      48.174   2.852   5.235  0.00  0.00    +0.000 N 
ATOM     28  O   UNL     1      48.325   1.082   6.603  0.00  0.00    +0.000 OA
ATOM     29  H   UNL     1      47.778   3.721   4.917  0.00  0.00    +0.000 HD
ATOM     30  H   UNL     1      48.855   2.399   4.642  0.00  0.00    +0.000 HD
ENDBRANCH  22  26
ENDBRANCH  17  18
ENDBRANCH   1  17
TORSDOF 5
ENDMDL
MODEL 2
REMARK VINA RESULT:    -8.803      2.238      3.521
REMARK INTER + INTRA:         -12.219
REMARK INTER:                 -11.166
REMARK INTRA:                  -1.053
REMARK UNBOUND:                -0.843
REMARK  Name = 
REMARK  8 active torsions:
REMARK  status: ('A' for Active; 'I' for Inactive)
REMARK    1  A    between atoms: C_1  and  N_2
REMARK    2  A    between atoms: N_5  and  C_6
REMARK    3  A    between atoms: C_10  and  C_11
REMARK    4  A    between atoms: C_11  and  C_12
REMARK    5  A    between atoms: C_11  and  C_13
REMARK    6  A    between atoms: C_11  and  C_14
REMARK    7  A    between atoms: C_14  and  N_15
REMARK    8  A    between atoms: C_19  and  C_20
REMARK                            x       y       z     vdW  Elec       q    Type
REMARK                         _______ _______ _______ _____ _____    ______ ____
ROOT
ATOM      1  C   UNL     1      43.686   5.442  11.934  0.00  0.00    +0.000 C 
ATOM      2  C   UNL     1      42.823   5.205  13.198  0.00  0.00    +0.000 C 
ATOM      3  C   UNL     1      43.275   6.798  11.310  0.00  0.00    +0.000 C 
ENDROOT
BRANCH   1   8
ATOM      4  C   UNL     1      47.327   6.709  12.420  0.00  0.00    +0.000 A 
ATOM      5  C   UNL     1      47.803   5.737  13.304  0.00  0.00    +0.000 A 
ATOM      6  C   UNL     1      47.016   4.648  13.685  0.00  0.00    +0.000 A 
ATOM      7  C   UNL     1      45.706   4.535  13.224  0.00  0.00    +0.000 A 
ATOM      8  C   UNL     1      45.170   5.490  12.347  0.00  0.00    +0.000 A 
ATOM      9  C   UNL     1      46.032   6.516  11.915  0.00  0.00    +0.000 A 
BRANCH   4  14
ATOM     10  C   UNL     1      51.003  10.847  12.810  0.00  0.00    +0.000 C 
ATOM     11  N   UNL     1      49.939  10.061  12.194  0.00  0.00    +0.000 NA
ATOM     12  C   UNL     1      50.381   8.667  11.965  0.00  0.00    +0.000 C 
ATOM     13  C   UNL     1      49.284   7.785  11.318  0.00  0.00    +0.000 C 
ATOM     14  N   UNL     1      48.044   7.845  12.105  0.00  0.00    +0.000 N 
ATOM     15  C   UNL     1      47.587   9.205  12.432  0.00  0.00    +0.000 C 
ATOM     16  C   UNL     1      48.733  10.037  13.055  0.00  0.00    +0.000 C 
ENDBRANCH   4  14
ENDBRANCH   1   8
BRANCH   1  17
ATOM     17  C   UNL     1      43.311   4.305  10.920  0.00  0.00    +0.000 C 
BRANCH  17  18
ATOM     18  N   UNL     1      43.646   4.624   9.528  0.00  0.00    +0.000 N 
ATOM     19  C   UNL     1      44.694   3.928   8.938  0.00  0.00    +0.000 A 
ATOM     20  C   UNL     1      44.854   2.558   9.099  0.00  0.00    +0.000 A 
ATOM     21  C   UNL     1      45.872   1.895   8.414  0.00  0.00    +0.000 A 
ATOM     22  C   UNL     1      46.717   2.607   7.571  0.00  0.00    +0.000 A 
ATOM     23  C   UNL     1      46.502   3.973   7.478  0.00  0.00    +0.000 A 
ATOM     24  N   UNL     1      45.517   4.642   8.141  0.00  0.00    +0.000 NA
ATOM     25  H   UNL     1      43.785   5.611   9.320  0.00  0.00    +0.000 HD
BRANCH  22  26
ATOM     26  C   UNL     1      47.762   1.863   6.824  0.00  0.00    +0.000 C 
ATOM     27  N   UNL     1      48.586   2.539   5.966  0.00  0.00    +0.000 N 
ATOM     28  O   UNL     1      47.893   0.653   6.961  0.00  0.00    +0.000 OA
ATOM     29  H   UNL     1      48.534   3.520   5.744  0.00  0.00    +0.000 HD
ATOM     30  H   UNL     1      49.256   1.976   5.460  0.00  0.00    +0.000 HD
ENDBRANCH  22  26
ENDBRANCH  17  18
ENDBRANCH   1  17
TORSDOF 5
ENDMDL
MODEL 3
REMARK VINA RESULT:    -8.321      2.312      3.076
REMARK INTER + INTRA:         -11.596
REMARK INTER:                 -10.978
REMARK INTRA:                  -0.618
REMARK UNBOUND:                -0.843
REMARK  Name = 
REMARK  8 active torsions:
REMARK  status: ('A' for Active; 'I' for Inactive)
REMARK    1  A    between atoms: C_1  and  N_2
REMARK    2  A    between atoms: N_5  and  C_6
REMARK    3  A    between atoms: C_10  and  C_11
REMARK    4  A    between atoms: C_11  and  C_12
REMARK    5  A    between atoms: C_11  and  C_13
REMARK    6  A    between atoms: C_11  and  C_14
REMARK    7  A    between atoms: C_14  and  N_15
REMARK    8  A    between atoms: C_19  and  C_20
REMARK                            x       y       z     vdW  Elec       q    Type
REMARK                         _______ _______ _______ _____ _____    ______ ____
ROOT
ATOM      1  C   UNL     1      44.232   4.515  12.159  0.00  0.00    +0.000 C 
ATOM      2  C   UNL     1      45.333   3.431  12.253  0.00  0.00    +0.000 C 
ATOM      3  C   UNL     1      43.318   4.391  13.403  0.00  0.00    +0.000 C 
ENDROOT
BRANCH   1   8
ATOM      4  C   UNL     1      46.944   7.291  12.343  0.00  0.00    +0.000 A 
ATOM      5  C   UNL     1      46.207   8.379  11.867  0.00  0.00    +0.000 A 
ATOM      6  C   UNL     1      44.848   8.264  11.565  0.00  0.00    +0.000 A 
ATOM      7  C   UNL     1      44.205   7.033  11.685  0.00  0.00    +0.000 A 
ATOM      8  C   UNL     1      44.900   5.904  12.143  0.00  0.00    +0.000 A 
ATOM      9  C   UNL     1      46.241   6.090  12.528  0.00  0.00    +0.000 A 
BRANCH   4  14
ATOM     10  C   UNL     1      51.943   9.281  13.700  0.00  0.00    +0.000 C 
ATOM     11  N   UNL     1      50.984   8.281  13.243  0.00  0.00    +0.000 NA
ATOM     12  C   UNL     1      49.958   8.024  14.279  0.00  0.00    +0.000 C 
ATOM     13  C   UNL     1      48.908   6.972  13.841  0.00  0.00    +0.000 C 
ATOM     14  N   UNL     1      48.306   7.350  12.555  0.00  0.00    +0.000 N 
ATOM     15  C   UNL     1      49.273   7.691  11.498  0.00  0.00    +0.000 C 
ATOM     16  C   UNL     1      50.303   8.728  12.006  0.00  0.00    +0.000 C 
ENDBRANCH   4  14
ENDBRANCH   1   8
BRANCH   1  17
ATOM     17  C   UNL     1      43.377   4.170  10.889  0.00  0.00    +0.000 C 
BRANCH  17  18
ATOM     18  N   UNL     1      43.869   4.802   9.660  0.00  0.00    +0.000 N 
ATOM     19  C   UNL     1      44.840   4.129   8.928  0.00  0.00    +0.000 A 
ATOM     20  C   UNL     1      44.772   2.763   8.693  0.00  0.00    +0.000 A 
ATOM     21  C   UNL     1      45.726   2.152   7.880  0.00  0.00    +0.000 A 
ATOM     22  C   UNL     1      46.737   2.915   7.306  0.00  0.00    +0.000 A 
ATOM     23  C   UNL     1      46.745   4.268   7.603  0.00  0.00    +0.000 A 
ATOM     24  N   UNL     1      45.825   4.884   8.399  0.00  0.00    +0.000 NA
ATOM     25  H   UNL     1      44.175   5.769   9.750  0.00  0.00    +0.000 HD
BRANCH  22  26
ATOM     26  C   UNL     1      47.709   2.240   6.411  0.00  0.00    +0.000 C 
ATOM     27  N   UNL     1      48.104   2.860   5.256  0.00  0.00    +0.000 N 
ATOM     28  O   UNL     1      48.160   1.135   6.688  0.00  0.00    +0.000 OA
ATOM     29  H   UNL     1      47.762   3.742   4.912  0.00  0.00    +0.000 HD
ATOM     30  H   UNL     1      48.742   2.340   4.670  0.00  0.00    +0.000 HD
ENDBRANCH  22  26
ENDBRANCH  17  18
ENDBRANCH   1  17
TORSDOF 5
ENDMDL
MODEL 4
REMARK VINA RESULT:    -7.484      2.616      8.143
REMARK INTER + INTRA:         -10.515
REMARK INTER:                  -9.426
REMARK INTRA:                  -1.089
REMARK UNBOUND:                -0.843
REMARK  Name = 
REMARK  8 active torsions:
REMARK  status: ('A' for Active; 'I' for Inactive)
REMARK    1  A    between atoms: C_1  and  N_2
REMARK    2  A    between atoms: N_5  and  C_6
REMARK    3  A    between atoms: C_10  and  C_11
REMARK    4  A    between atoms: C_11  and  C_12
REMARK    5  A    between atoms: C_11  and  C_13
REMARK    6  A    between atoms: C_11  and  C_14
REMARK    7  A    between atoms: C_14  and  N_15
REMARK    8  A    between atoms: C_19  and  C_20
REMARK                            x       y       z     vdW  Elec       q    Type
REMARK                         _______ _______ _______ _____ _____    ______ ____
ROOT
ATOM      1  C   UNL     1      46.432   7.501  12.317  0.00  0.00    +0.000 C 
ATOM      2  C   UNL     1      47.743   7.370  11.503  0.00  0.00    +0.000 C 
ATOM      3  C   UNL     1      45.728   8.815  11.898  0.00  0.00    +0.000 C 
ENDROOT
BRANCH   1   8
ATOM      4  C   UNL     1      44.895   4.448  10.469  0.00  0.00    +0.000 A 
ATOM      5  C   UNL     1      44.067   3.949  11.478  0.00  0.00    +0.000 A 
ATOM      6  C   UNL     1      43.929   4.607  12.702  0.00  0.00    +0.000 A 
ATOM      7  C   UNL     1      44.664   5.763  12.963  0.00  0.00    +0.000 A 
ATOM      8  C   UNL     1      45.523   6.300  11.993  0.00  0.00    +0.000 A 
ATOM      9  C   UNL     1      45.554   5.657  10.740  0.00  0.00    +0.000 A 
BRANCH   4  14
ATOM     10  C   UNL     1      47.486   1.460   6.577  0.00  0.00    +0.000 C 
ATOM     11  N   UNL     1      46.379   2.200   7.175  0.00  0.00    +0.000 NA
ATOM     12  C   UNL     1      45.972   1.589   8.461  0.00  0.00    +0.000 C 
ATOM     13  C   UNL     1      44.803   2.342   9.143  0.00  0.00    +0.000 C 
ATOM     14  N   UNL     1      45.125   3.768   9.291  0.00  0.00    +0.000 N 
ATOM     15  C   UNL     1      45.608   4.421   8.063  0.00  0.00    +0.000 C 
ATOM     16  C   UNL     1      46.759   3.610   7.422  0.00  0.00    +0.000 C 
ENDBRANCH   4  14
ENDBRANCH   1   8
BRANCH   1  17
ATOM     17  C   UNL     1      46.855   7.632  13.822  0.00  0.00    +0.000 C 
BRANCH  17  18
ATOM     18  N   UNL     1      48.200   7.117  14.102  0.00  0.00    +0.000 N 
ATOM     19  C   UNL     1      48.334   6.166  15.105  0.00  0.00    +0.000 A 
ATOM     20  C   UNL     1      47.449   5.105  15.240  0.00  0.00    +0.000 A 
ATOM     21  C   UNL     1      47.679   4.131  16.211  0.00  0.00    +0.000 A 
ATOM     22  C   UNL     1      48.795   4.223  17.034  0.00  0.00    +0.000 A 
ATOM     23  C   UNL     1      49.620   5.321  16.848  0.00  0.00    +0.000 A 
ATOM     24  N   UNL     1      49.412   6.287  15.909  0.00  0.00    +0.000 NA
ATOM     25  H   UNL     1      48.921   7.821  14.255  0.00  0.00    +0.000 HD
BRANCH  22  26
ATOM     26  C   UNL     1      49.032   3.146  18.026  0.00  0.00    +0.000 C 
ATOM     27  N   UNL     1      48.330   3.146  19.201  0.00  0.00    +0.000 N 
ATOM     28  O   UNL     1      49.851   2.260  17.811  0.00  0.00    +0.000 OA
ATOM     29  H   UNL     1      47.672   3.848  19.497  0.00  0.00    +0.000 HD
ATOM     30  H   UNL     1      48.557   2.407  19.852  0.00  0.00    +0.000 HD
ENDBRANCH  22  26
ENDBRANCH  17  18
ENDBRANCH   1  17
TORSDOF 5
ENDMDL
MODEL 5
REMARK VINA RESULT:    -7.058      3.772      7.868
REMARK INTER + INTRA:          -9.965
REMARK INTER:                  -8.775
REMARK INTRA:                  -1.190
REMARK UNBOUND:                -0.843
REMARK  Name = 
REMARK  8 active torsions:
REMARK  status: ('A' for Active; 'I' for Inactive)
REMARK    1  A    between atoms: C_1  and  N_2
REMARK    2  A    between atoms: N_5  and  C_6
REMARK    3  A    between atoms: C_10  and  C_11
REMARK    4  A    between atoms: C_11  and  C_12
REMARK    5  A    between atoms: C_11  and  C_13
REMARK    6  A    between atoms: C_11  and  C_14
REMARK    7  A    between atoms: C_14  and  N_15
REMARK    8  A    between atoms: C_19  and  C_20
REMARK                            x       y       z     vdW  Elec       q    Type
REMARK                         _______ _______ _______ _____ _____    ______ ____
ROOT
ATOM      1  C   UNL     1      49.174   8.694  12.529  0.00  0.00    +0.000 C 
ATOM      2  C   UNL     1      49.716   7.367  11.944  0.00  0.00    +0.000 C 
ATOM      3  C   UNL     1      49.954   9.866  11.885  0.00  0.00    +0.000 C 
ENDROOT
BRANCH   1   8
ATOM      4  C   UNL     1      45.434   7.773  12.016  0.00  0.00    +0.000 A 
ATOM      5  C   UNL     1      44.898   9.049  11.816  0.00  0.00    +0.000 A 
ATOM      6  C   UNL     1      45.712  10.183  11.764  0.00  0.00    +0.000 A 
ATOM      7  C   UNL     1      47.087  10.069  11.963  0.00  0.00    +0.000 A 
ATOM      8  C   UNL     1      47.677   8.815  12.184  0.00  0.00    +0.000 A 
ATOM      9  C   UNL     1      46.830   7.691  12.130  0.00  0.00    +0.000 A 
BRANCH   4  14
ATOM     10  C   UNL     1      43.503   2.612  11.372  0.00  0.00    +0.000 C 
ATOM     11  N   UNL     1      43.541   3.963  11.920  0.00  0.00    +0.000 NA
ATOM     12  C   UNL     1      44.830   4.216  12.605  0.00  0.00    +0.000 C 
ATOM     13  C   UNL     1      44.927   5.642  13.201  0.00  0.00    +0.000 C 
ATOM     14  N   UNL     1      44.646   6.651  12.170  0.00  0.00    +0.000 N 
ATOM     15  C   UNL     1      43.413   6.419  11.400  0.00  0.00    +0.000 C 
ATOM     16  C   UNL     1      43.370   4.973  10.851  0.00  0.00    +0.000 C 
ENDBRANCH   4  14
ENDBRANCH   1   8
BRANCH   1  17
ATOM     17  C   UNL     1      49.506   8.671  14.062  0.00  0.00    +0.000 C 
BRANCH  17  18
ATOM     18  N   UNL     1      50.229   7.468  14.490  0.00  0.00    +0.000 N 
ATOM     19  C   UNL     1      49.570   6.579  15.330  0.00  0.00    +0.000 A 
ATOM     20  C   UNL     1      48.245   6.215  15.126  0.00  0.00    +0.000 A 
ATOM     21  C   UNL     1      47.658   5.254  15.947  0.00  0.00    +0.000 A 
ATOM     22  C   UNL     1      48.402   4.661  16.961  0.00  0.00    +0.000 A 
ATOM     23  C   UNL     1      49.710   5.091  17.110  0.00  0.00    +0.000 A 
ATOM     24  N   UNL     1      50.303   6.033  16.322  0.00  0.00    +0.000 NA
ATOM     25  H   UNL     1      51.156   7.624  14.883  0.00  0.00    +0.000 HD
BRANCH  22  26
ATOM     26  C   UNL     1      47.758   3.610  17.787  0.00  0.00    +0.000 C 
ATOM     27  N   UNL     1      48.318   3.259  18.986  0.00  0.00    +0.000 N 
ATOM     28  O   UNL     1      46.737   3.048  17.410  0.00  0.00    +0.000 OA
ATOM     29  H   UNL     1      49.177   3.622  19.367  0.00  0.00    +0.000 HD
ATOM     30  H   UNL     1      47.855   2.515  19.490  0.00  0.00    +0.000 HD
ENDBRANCH  22  26
ENDBRANCH  17  18
ENDBRANCH   1  17
TORSDOF 5
ENDMDL
MODEL 6
REMARK VINA RESULT:    -6.533      4.164      8.445
REMARK INTER + INTRA:          -9.287
REMARK INTER:                  -8.515
REMARK INTRA:                  -0.772
REMARK UNBOUND:                -0.843
REMARK  Name = 
REMARK  8 active torsions:
REMARK  status: ('A' for Active; 'I' for Inactive)
REMARK    1  A    between atoms: C_1  and  N_2
REMARK    2  A    between atoms: N_5  and  C_6
REMARK    3  A    between atoms: C_10  and  C_11
REMARK    4  A    between atoms: C_11  and  C_12
REMARK    5  A    between atoms: C_11  and  C_13
REMARK    6  A    between atoms: C_11  and  C_14
REMARK    7  A    between atoms: C_14  and  N_15
REMARK    8  A    between atoms: C_19  and  C_20
REMARK                            x       y       z     vdW  Elec       q    Type
REMARK                         _______ _______ _______ _____ _____    ______ ____
ROOT
ATOM      1  C   UNL     1      49.647   8.359  15.428  0.00  0.00    +0.000 C 
ATOM      2  C   UNL     1      50.464   9.637  15.117  0.00  0.00    +0.000 C 
ATOM      3  C   UNL     1      48.522   8.730  16.426  0.00  0.00    +0.000 C 
ENDROOT
BRANCH   1   8
ATOM      4  C   UNL     1      47.307   6.469  12.968  0.00  0.00    +0.000 A 
ATOM      5  C   UNL     1      47.695   7.062  11.764  0.00  0.00    +0.000 A 
ATOM      6  C   UNL     1      48.737   7.991  11.710  0.00  0.00    +0.000 A 
ATOM      7  C   UNL     1      49.384   8.387  12.879  0.00  0.00    +0.000 A 
ATOM      8  C   UNL     1      49.025   7.836  14.118  0.00  0.00    +0.000 A 
ATOM      9  C   UNL     1      48.037   6.833  14.110  0.00  0.00    +0.000 A 
BRANCH   4  14
ATOM     10  C   UNL     1      43.344   2.860  11.533  0.00  0.00    +0.000 C 
ATOM     11  N   UNL     1      44.097   3.727  12.434  0.00  0.00    +0.000 NA
ATOM     12  C   UNL     1      45.518   3.316  12.492  0.00  0.00    +0.000 C 
ATOM     13  C   UNL     1      46.367   4.210  13.431  0.00  0.00    +0.000 C 
ATOM     14  N   UNL     1      46.220   5.625  13.065  0.00  0.00    +0.000 N 
ATOM     15  C   UNL     1      44.828   6.082  12.918  0.00  0.00    +0.000 C 
ATOM     16  C   UNL     1      44.032   5.137  11.987  0.00  0.00    +0.000 C 
ENDBRANCH   4  14
ENDBRANCH   1   8
BRANCH   1  17
ATOM     17  C   UNL     1      50.628   7.368  16.144  0.00  0.00    +0.000 C 
BRANCH  17  18
ATOM     18  N   UNL     1      49.950   6.363  16.972  0.00  0.00    +0.000 N 
ATOM     19  C   UNL     1      50.592   5.148  17.173  0.00  0.00    +0.000 A 
ATOM     20  C   UNL     1      51.949   5.068  17.454  0.00  0.00    +0.000 A 
ATOM     21  C   UNL     1      52.526   3.829  17.732  0.00  0.00    +0.000 A 
ATOM     22  C   UNL     1      51.739   2.683  17.732  0.00  0.00    +0.000 A 
ATOM     23  C   UNL     1      50.398   2.846  17.426  0.00  0.00    +0.000 A 
ATOM     24  N   UNL     1      49.814   4.046  17.146  0.00  0.00    +0.000 NA
ATOM     25  H   UNL     1      48.985   6.157  16.717  0.00  0.00    +0.000 HD
BRANCH  22  26
ATOM     26  C   UNL     1      52.377   1.388  18.076  0.00  0.00    +0.000 C 
ATOM     27  N   UNL     1      51.632   0.240  18.037  0.00  0.00    +0.000 N 
ATOM     28  O   UNL     1      53.557   1.333  18.399  0.00  0.00    +0.000 OA
ATOM     29  H   UNL     1      50.649   0.179  17.832  0.00  0.00    +0.000 HD
ATOM     30  H   UNL     1      52.110  -0.607  18.313  0.00  0.00    +0.000 HD
ENDBRANCH  22  26
ENDBRANCH  17  18
ENDBRANCH   1  17
TORSDOF 5
ENDMDL
MODEL 7
REMARK VINA RESULT:    -6.520      3.274      5.535
REMARK INTER + INTRA:          -9.270
REMARK INTER:                  -8.085
REMARK INTRA:                  -1.184
REMARK UNBOUND:                -0.843
REMARK  Name = 
REMARK  8 active torsions:
REMARK  status: ('A' for Active; 'I' for Inactive)
REMARK    1  A    between atoms: C_1  and  N_2
REMARK    2  A    between atoms: N_5  and  C_6
REMARK    3  A    between atoms: C_10  and  C_11
REMARK    4  A    between atoms: C_11  and  C_12
REMARK    5  A    between atoms: C_11  and  C_13
REMARK    6  A    between atoms: C_11  and  C_14
REMARK    7  A    between atoms: C_14  and  N_15
REMARK    8  A    between atoms: C_19  and  C_20
REMARK                            x       y       z     vdW  Elec       q    Type
REMARK                         _______ _______ _______ _____ _____    ______ ____
ROOT
ATOM      1  C   UNL     1      49.264   8.616  13.749  0.00  0.00    +0.000 C 
ATOM      2  C   UNL     1      48.456   9.860  13.302  0.00  0.00    +0.000 C 
ATOM      3  C   UNL     1      50.771   8.966  13.689  0.00  0.00    +0.000 C 
ENDROOT
BRANCH   1   8
ATOM      4  C   UNL     1      48.900   6.655  17.084  0.00  0.00    +0.000 A 
ATOM      5  C   UNL     1      48.410   7.672  17.908  0.00  0.00    +0.000 A 
ATOM      6  C   UNL     1      48.121   8.943  17.406  0.00  0.00    +0.000 A 
ATOM      7  C   UNL     1      48.366   9.240  16.066  0.00  0.00    +0.000 A 
ATOM      8  C   UNL     1      48.872   8.262  15.197  0.00  0.00    +0.000 A 
ATOM      9  C   UNL     1      49.056   6.970  15.725  0.00  0.00    +0.000 A 
BRANCH   4  14
ATOM     10  C   UNL     1      51.044   1.540  17.262  0.00  0.00    +0.000 C 
ATOM     11  N   UNL     1      50.384   2.730  17.791  0.00  0.00    +0.000 NA
ATOM     12  C   UNL     1      51.257   3.919  17.654  0.00  0.00    +0.000 C 
ATOM     13  C   UNL     1      50.601   5.214  18.194  0.00  0.00    +0.000 C 
ATOM     14  N   UNL     1      49.286   5.424  17.571  0.00  0.00    +0.000 N 
ATOM     15  C   UNL     1      48.393   4.254  17.607  0.00  0.00    +0.000 C 
ATOM     16  C   UNL     1      49.115   2.993  17.074  0.00  0.00    +0.000 C 
ENDBRANCH   4  14
ENDBRANCH   1   8
BRANCH   1  17
ATOM     17  C   UNL     1      48.980   7.497  12.687  0.00  0.00    +0.000 C 
BRANCH  17  18
ATOM     18  N   UNL     1      47.651   7.592  12.073  0.00  0.00    +0.000 N 
ATOM     19  C   UNL     1      46.852   6.456  12.077  0.00  0.00    +0.000 A 
ATOM     20  C   UNL     1      46.734   5.640  13.195  0.00  0.00    +0.000 A 
ATOM     21  C   UNL     1      45.852   4.560  13.173  0.00  0.00    +0.000 A 
ATOM     22  C   UNL     1      45.092   4.310  12.037  0.00  0.00    +0.000 A 
ATOM     23  C   UNL     1      45.280   5.160  10.959  0.00  0.00    +0.000 A 
ATOM     24  N   UNL     1      46.140   6.218  10.956  0.00  0.00    +0.000 NA
ATOM     25  H   UNL     1      47.625   7.976  11.130  0.00  0.00    +0.000 HD
BRANCH  22  26
ATOM     26  C   UNL     1      44.131   3.179  12.065  0.00  0.00    +0.000 C 
ATOM     27  N   UNL     1      43.922   2.445  10.928  0.00  0.00    +0.000 N 
ATOM     28  O   UNL     1      43.519   2.897  13.088  0.00  0.00    +0.000 OA
ATOM     29  H   UNL     1      44.335   2.620  10.027  0.00  0.00    +0.000 HD
ATOM     30  H   UNL     1      43.233   1.709  10.997  0.00  0.00    +0.000 HD
ENDBRANCH  22  26
ENDBRANCH  17  18
ENDBRANCH   1  17
TORSDOF 5
ENDMDL
MODEL 8
REMARK VINA RESULT:    -6.512      2.993      6.239
REMARK INTER + INTRA:          -9.259
REMARK INTER:                  -8.070
REMARK INTRA:                  -1.189
REMARK UNBOUND:                -0.843
REMARK  Name = 
REMARK  8 active torsions:
REMARK  status: ('A' for Active; 'I' for Inactive)
REMARK    1  A    between atoms: C_1  and  N_2
REMARK    2  A    between atoms: N_5  and  C_6
REMARK    3  A    between atoms: C_10  and  C_11
REMARK    4  A    between atoms: C_11  and  C_12
REMARK    5  A    between atoms: C_11  and  C_13
REMARK    6  A    between atoms: C_11  and  C_14
REMARK    7  A    between atoms: C_14  and  N_15
REMARK    8  A    between atoms: C_19  and  C_20
REMARK                            x       y       z     vdW  Elec       q    Type
REMARK                         _______ _______ _______ _____ _____    ______ ____
ROOT
ATOM      1  C   UNL     1      48.398   4.556  17.183  0.00  0.00    +0.000 C 
ATOM      2  C   UNL     1      49.072   3.163  17.246  0.00  0.00    +0.000 C 
ATOM      3  C   UNL     1      47.985   4.962  18.619  0.00  0.00    +0.000 C 
ENDROOT
BRANCH   1   8
ATOM      4  C   UNL     1      49.875   7.642  15.343  0.00  0.00    +0.000 A 
ATOM      5  C   UNL     1      51.190   7.596  15.814  0.00  0.00    +0.000 A 
ATOM      6  C   UNL     1      51.634   6.561  16.640  0.00  0.00    +0.000 A 
ATOM      7  C   UNL     1      50.749   5.569  17.057  0.00  0.00    +0.000 A 
ATOM      8  C   UNL     1      49.413   5.574  16.628  0.00  0.00    +0.000 A 
ATOM      9  C   UNL     1      49.037   6.581  15.719  0.00  0.00    +0.000 A 
BRANCH   4  14
ATOM     10  C   UNL     1      48.624  10.860  10.998  0.00  0.00    +0.000 C 
ATOM     11  N   UNL     1      48.668  10.475  12.405  0.00  0.00    +0.000 NA
ATOM     12  C   UNL     1      47.983   9.180  12.618  0.00  0.00    +0.000 C 
ATOM     13  C   UNL     1      48.007   8.720  14.097  0.00  0.00    +0.000 C 
ATOM     14  N   UNL     1      49.385   8.702  14.608  0.00  0.00    +0.000 N 
ATOM     15  C   UNL     1      50.148   9.937  14.364  0.00  0.00    +0.000 C 
ATOM     16  C   UNL     1      50.067  10.351  12.876  0.00  0.00    +0.000 C 
ENDBRANCH   4  14
ENDBRANCH   1   8
BRANCH   1  17
ATOM     17  C   UNL     1      47.093   4.380  16.332  0.00  0.00    +0.000 C 
BRANCH  17  18
ATOM     18  N   UNL     1      47.291   3.595  15.107  0.00  0.00    +0.000 N 
ATOM     19  C   UNL     1      46.569   3.962  13.978  0.00  0.00    +0.000 A 
ATOM     20  C   UNL     1      46.416   5.289  13.600  0.00  0.00    +0.000 A 
ATOM     21  C   UNL     1      45.755   5.597  12.410  0.00  0.00    +0.000 A 
ATOM     22  C   UNL     1      45.259   4.576  11.609  0.00  0.00    +0.000 A 
ATOM     23  C   UNL     1      45.438   3.280  12.066  0.00  0.00    +0.000 A 
ATOM     24  N   UNL     1      46.076   2.956  13.226  0.00  0.00    +0.000 NA
ATOM     25  H   UNL     1      47.201   2.586  15.208  0.00  0.00    +0.000 HD
BRANCH  22  26
ATOM     26  C   UNL     1      44.601   4.938  10.329  0.00  0.00    +0.000 C 
ATOM     27  N   UNL     1      45.368   5.166   9.219  0.00  0.00    +0.000 N 
ATOM     28  O   UNL     1      43.382   5.042  10.254  0.00  0.00    +0.000 OA
ATOM     29  H   UNL     1      46.374   5.154   9.182  0.00  0.00    +0.000 HD
ATOM     30  H   UNL     1      44.868   5.441   8.385  0.00  0.00    +0.000 HD
ENDBRANCH  22  26
ENDBRANCH  17  18
ENDBRANCH   1  17
TORSDOF 5
ENDMDL
MODEL 9
REMARK VINA RESULT:    -6.496      3.861      6.568
REMARK INTER + INTRA:          -9.238
REMARK INTER:                  -8.510
REMARK INTRA:                  -0.728
REMARK UNBOUND:                -0.843
REMARK  Name = 
REMARK  8 active torsions:
REMARK  status: ('A' for Active; 'I' for Inactive)
REMARK    1  A    between atoms: C_1  and  N_2
REMARK    2  A    between atoms: N_5  and  C_6
REMARK    3  A    between atoms: C_10  and  C_11
REMARK    4  A    between atoms: C_11  and  C_12
REMARK    5  A    between atoms: C_11  and  C_13
REMARK    6  A    between atoms: C_11  and  C_14
REMARK    7  A    between atoms: C_14  and  N_15
REMARK    8  A    between atoms: C_19  and  C_20
REMARK                            x       y       z     vdW  Elec       q    Type
REMARK                         _______ _______ _______ _____ _____    ______ ____
ROOT
ATOM      1  C   UNL     1      48.040   4.059  17.302  0.00  0.00    +0.000 C 
ATOM      2  C   UNL     1      47.096   2.855  17.542  0.00  0.00    +0.000 C 
ATOM      3  C   UNL     1      47.817   5.087  18.438  0.00  0.00    +0.000 C 
ENDROOT
BRANCH   1   8
ATOM      4  C   UNL     1      51.886   3.981  17.849  0.00  0.00    +0.000 A 
ATOM      5  C   UNL     1      52.129   2.618  17.654  0.00  0.00    +0.000 A 
ATOM      6  C   UNL     1      51.109   1.741  17.276  0.00  0.00    +0.000 A 
ATOM      7  C   UNL     1      49.802   2.206  17.134  0.00  0.00    +0.000 A 
ATOM      8  C   UNL     1      49.499   3.562  17.333  0.00  0.00    +0.000 A 
ATOM      9  C   UNL     1      50.575   4.423  17.617  0.00  0.00    +0.000 A 
BRANCH   4  14
ATOM     10  C   UNL     1      55.067   8.503  18.321  0.00  0.00    +0.000 C 
ATOM     11  N   UNL     1      54.580   7.172  18.668  0.00  0.00    +0.000 NA
ATOM     12  C   UNL     1      53.140   7.212  19.012  0.00  0.00    +0.000 C 
ATOM     13  C   UNL     1      52.569   5.821  19.382  0.00  0.00    +0.000 C 
ATOM     14  N   UNL     1      52.851   4.848  18.318  0.00  0.00    +0.000 N 
ATOM     15  C   UNL     1      54.255   4.808  17.876  0.00  0.00    +0.000 C 
ATOM     16  C   UNL     1      54.769   6.229  17.541  0.00  0.00    +0.000 C 
ENDBRANCH   4  14
ENDBRANCH   1   8
BRANCH   1  17
ATOM     17  C   UNL     1      47.587   4.717  15.953  0.00  0.00    +0.000 C 
BRANCH  17  18
ATOM     18  N   UNL     1      47.505   3.770  14.834  0.00  0.00    +0.000 N 
ATOM     19  C   UNL     1      46.674   4.094  13.770  0.00  0.00    +0.000 A 
ATOM     20  C   UNL     1      46.626   5.374  13.233  0.00  0.00    +0.000 A 
ATOM     21  C   UNL     1      45.838   5.624  12.110  0.00  0.00    +0.000 A 
ATOM     22  C   UNL     1      45.109   4.592  11.531  0.00  0.00    +0.000 A 
ATOM     23  C   UNL     1      45.197   3.349  12.137  0.00  0.00    +0.000 A 
ATOM     24  N   UNL     1      45.957   3.083  13.237  0.00  0.00    +0.000 NA
ATOM     25  H   UNL     1      47.310   2.803  15.086  0.00  0.00    +0.000 HD
BRANCH  22  26
ATOM     26  C   UNL     1      44.317   4.884  10.311  0.00  0.00    +0.000 C 
ATOM     27  N   UNL     1      44.915   4.796   9.083  0.00  0.00    +0.000 N 
ATOM     28  O   UNL     1      43.138   5.208  10.388  0.00  0.00    +0.000 OA
ATOM     29  H   UNL     1      45.884   4.586   8.911  0.00  0.00    +0.000 HD
ATOM     30  H   UNL     1      44.336   5.038   8.291  0.00  0.00    +0.000 HD
ENDBRANCH  22  26
ENDBRANCH  17  18
ENDBRANCH   1  17
TORSDOF 5
ENDMDL
