MODEL 1
REMARK VINA RESULT:    -9.249      0.000      0.000
REMARK INTER + INTRA:         -12.686
REMARK INTER:                 -11.952
REMARK INTRA:                  -0.734
REMARK UNBOUND:                -0.734
REMARK  Name = 
REMARK  5 active torsions:
REMARK  status: ('A' for Active; 'I' for Inactive)
REMARK    1  A    between atoms: C_2  and  C_4
REMARK    2  A    between atoms: C_7  and  C_8
REMARK    3  A    between atoms: C_8  and  C_9
REMARK    4  A    between atoms: C_9  and  C_10
REMARK    5  A    between atoms: C_14  and  C_15
REMARK                            x       y       z     vdW  Elec       q    Type
REMARK                         _______ _______ _______ _____ _____    ______ ____
ROOT
ATOM      1  C   UNL     1      43.963   4.717  11.550  0.00  0.00    +0.000 C 
ATOM      2  C   UNL     1      42.781   5.129  12.428  0.00  0.00    +0.000 C 
ATOM      3  C   UNL     1      43.039   5.869  11.157  0.00  0.00    +0.000 C 
ENDROOT
BRANCH   1   4
ATOM      4  C   UNL     1      45.339   5.078  12.099  0.00  0.00    +0.000 A 
ATOM      5  C   UNL     1      46.063   6.179  11.615  0.00  0.00    +0.000 A 
ATOM      6  C   UNL     1      47.213   6.631  12.261  0.00  0.00    +0.000 A 
ATOM      7  C   UNL     1      47.668   5.978  13.406  0.00  0.00    +0.000 A 
ATOM      8  C   UNL     1      47.000   4.850  13.906  0.00  0.00    +0.000 A 
ATOM      9  C   UNL     1      45.868   4.393  13.207  0.00  0.00    +0.000 A 
BRANCH   8  10
ATOM     10  C   UNL     1      47.380   4.213  15.174  0.00  0.00    +0.000 A 
ATOM     11  C   UNL     1      47.147   4.813  16.413  0.00  0.00    +0.000 A 
ATOM     12  N   UNL     1      47.414   4.212  17.600  0.00  0.00    +0.000 NA
ATOM     13  C   UNL     1      47.918   2.965  17.505  0.00  0.00    +0.000 A 
ATOM     14  C   UNL     1      48.153   2.352  16.287  0.00  0.00    +0.000 A 
ATOM     15  N   UNL     1      47.891   2.955  15.103  0.00  0.00    +0.000 NA
ENDBRANCH   8  10
ENDBRANCH   1   4
BRANCH   1  16
ATOM     16  C   UNL     1      43.801   3.347  10.906  0.00  0.00    +0.000 C 
BRANCH  16  20
ATOM     17  C   UNL     1      46.400   2.723   7.591  0.00  0.00    +0.000 A 
ATOM     18  C   UNL     1      45.928   4.012   7.840  0.00  0.00    +0.000 A 
ATOM     19  C   UNL     1      45.024   4.218   8.883  0.00  0.00    +0.000 A 
ATOM     20  C   UNL     1      44.618   3.131   9.658  0.00  0.00    +0.000 A 
ATOM     21  N   UNL     1      45.038   1.865   9.404  0.00  0.00    +0.000 NA
ATOM     22  C   UNL     1      45.907   1.689   8.374  0.00  0.00    +0.000 A 
BRANCH  17  24
ATOM     23  N   UNL     1      47.317   3.123   5.374  0.00  0.00    +0.000 N 
ATOM     24  C   UNL     1      47.392   2.414   6.542  0.00  0.00    +0.000 C 
ATOM     25  O   UNL     1      48.272   1.580   6.721  0.00  0.00    +0.000 OA
ATOM     26  H   UNL     1      48.069   2.974   4.714  0.00  0.00    +0.000 HD
ATOM     27  H   UNL     1      46.790   3.980   5.292  0.00  0.00    +0.000 HD
ENDBRANCH  17  24
ENDBRANCH  16  20
ENDBRANCH   1  16
TORSDOF 5
ENDMDL
MODEL 2
REMARK VINA RESULT:    -8.438      2.294      3.665
REMARK INTER + INTRA:         -11.639
REMARK INTER:                 -10.730
REMARK INTRA:                  -0.908
REMARK UNBOUND:                -0.734
REMARK  Name = 
REMARK  5 active torsions:
REMARK  status: ('A' for Active; 'I' for Inactive)
REMARK    1  A    between atoms: C_2  and  C_4
REMARK    2  A    between atoms: C_7  and  C_8
REMARK    3  A    between atoms: C_8  and  C_9
REMARK    4  A    between atoms: C_9  and  C_10
REMARK    5  A    between atoms: C_14  and  C_15
REMARK                            x       y       z     vdW  Elec       q    Type
REMARK                         _______ _______ _______ _____ _____    ______ ____
ROOT
ATOM      1  C   UNL     1      43.846   4.728  11.539  0.00  0.00    +0.000 C 
ATOM      2  C   UNL     1      42.556   5.207  12.204  0.00  0.00    +0.000 C 
ATOM      3  C   UNL     1      43.046   5.902  10.977  0.00  0.00    +0.000 C 
ENDROOT
BRANCH   1   4
ATOM      4  C   UNL     1      45.129   5.052  12.298  0.00  0.00    +0.000 A 
ATOM      5  C   UNL     1      45.762   4.104  13.118  0.00  0.00    +0.000 A 
ATOM      6  C   UNL     1      47.038   4.329  13.633  0.00  0.00    +0.000 A 
ATOM      7  C   UNL     1      47.703   5.520  13.344  0.00  0.00    +0.000 A 
ATOM      8  C   UNL     1      47.096   6.513  12.559  0.00  0.00    +0.000 A 
ATOM      9  C   UNL     1      45.792   6.274  12.091  0.00  0.00    +0.000 A 
BRANCH   8  10
ATOM     10  C   UNL     1      47.813   7.723  12.135  0.00  0.00    +0.000 A 
ATOM     11  C   UNL     1      47.220   8.986  12.140  0.00  0.00    +0.000 A 
ATOM     12  N   UNL     1      47.883  10.129  11.832  0.00  0.00    +0.000 NA
ATOM     13  C   UNL     1      49.186   9.964  11.526  0.00  0.00    +0.000 A 
ATOM     14  C   UNL     1      49.794   8.721  11.518  0.00  0.00    +0.000 A 
ATOM     15  N   UNL     1      49.129   7.581  11.821  0.00  0.00    +0.000 NA
ENDBRANCH   8  10
ENDBRANCH   1   4
BRANCH   1  16
ATOM     16  C   UNL     1      43.734   3.348  10.906  0.00  0.00    +0.000 C 
BRANCH  16  20
ATOM     17  C   UNL     1      46.398   2.733   7.641  0.00  0.00    +0.000 A 
ATOM     18  C   UNL     1      45.993   4.034   7.940  0.00  0.00    +0.000 A 
ATOM     19  C   UNL     1      45.069   4.242   8.965  0.00  0.00    +0.000 A 
ATOM     20  C   UNL     1      44.578   3.145   9.673  0.00  0.00    +0.000 A 
ATOM     21  N   UNL     1      44.933   1.870   9.368  0.00  0.00    +0.000 NA
ATOM     22  C   UNL     1      45.822   1.693   8.357  0.00  0.00    +0.000 A 
BRANCH  17  24
ATOM     23  N   UNL     1      47.398   3.175   5.468  0.00  0.00    +0.000 N 
ATOM     24  C   UNL     1      47.405   2.417   6.607  0.00  0.00    +0.000 C 
ATOM     25  O   UNL     1      48.238   1.533   6.775  0.00  0.00    +0.000 OA
ATOM     26  H   UNL     1      48.161   3.015   4.823  0.00  0.00    +0.000 HD
ATOM     27  H   UNL     1      46.915   4.059   5.407  0.00  0.00    +0.000 HD
ENDBRANCH  17  24
ENDBRANCH  16  20
ENDBRANCH   1  16
TORSDOF 5
ENDMDL
MODEL 3
REMARK VINA RESULT:    -7.909      2.326      3.535
REMARK INTER + INTRA:         -10.955
REMARK INTER:                 -10.062
REMARK INTRA:                  -0.893
REMARK UNBOUND:                -0.734
REMARK  Name = 
REMARK  5 active torsions:
REMARK  status: ('A' for Active; 'I' for Inactive)
REMARK    1  A    between atoms: C_2  and  C_4
REMARK    2  A    between atoms: C_7  and  C_8
REMARK    3  A    between atoms: C_8  and  C_9
REMARK    4  A    between atoms: C_9  and  C_10
REMARK    5  A    between atoms: C_14  and  C_15
REMARK                            x       y       z     vdW  Elec       q    Type
REMARK                         _______ _______ _______ _____ _____    ______ ____
ROOT
ATOM      1  C   UNL     1      43.829   4.855  11.364  0.00  0.00    +0.000 C 
ATOM      2  C   UNL     1      42.534   5.387  11.979  0.00  0.00    +0.000 C 
ATOM      3  C   UNL     1      43.238   6.199  10.942  0.00  0.00    +0.000 C 
ENDROOT
BRANCH   1   4
ATOM      4  C   UNL     1      45.045   4.882  12.284  0.00  0.00    +0.000 A 
ATOM      5  C   UNL     1      45.537   3.716  12.894  0.00  0.00    +0.000 A 
ATOM      6  C   UNL     1      46.765   3.707  13.553  0.00  0.00    +0.000 A 
ATOM      7  C   UNL     1      47.524   4.874  13.624  0.00  0.00    +0.000 A 
ATOM      8  C   UNL     1      47.057   6.073  13.063  0.00  0.00    +0.000 A 
ATOM      9  C   UNL     1      45.796   6.060  12.442  0.00  0.00    +0.000 A 
BRANCH   8  10
ATOM     10  C   UNL     1      47.882   7.288  13.013  0.00  0.00    +0.000 A 
ATOM     11  C   UNL     1      49.253   7.252  12.755  0.00  0.00    +0.000 A 
ATOM     12  N   UNL     1      50.022   8.362  12.622  0.00  0.00    +0.000 NA
ATOM     13  C   UNL     1      49.360   9.529  12.747  0.00  0.00    +0.000 A 
ATOM     14  C   UNL     1      48.000   9.587  13.000  0.00  0.00    +0.000 A 
ATOM     15  N   UNL     1      47.235   8.477  13.137  0.00  0.00    +0.000 NA
ENDBRANCH   8  10
ENDBRANCH   1   4
BRANCH   1  16
ATOM     16  C   UNL     1      43.633   3.621  10.494  0.00  0.00    +0.000 C 
BRANCH  16  20
ATOM     17  C   UNL     1      46.468   2.919   7.395  0.00  0.00    +0.000 A 
ATOM     18  C   UNL     1      46.097   1.855   8.218  0.00  0.00    +0.000 A 
ATOM     19  C   UNL     1      45.219   2.087   9.278  0.00  0.00    +0.000 A 
ATOM     20  C   UNL     1      44.727   3.375   9.486  0.00  0.00    +0.000 A 
ATOM     21  N   UNL     1      45.109   4.428   8.718  0.00  0.00    +0.000 NA
ATOM     22  C   UNL     1      45.975   4.179   7.701  0.00  0.00    +0.000 A 
BRANCH  17  24
ATOM     23  N   UNL     1      48.650   2.397   6.455  0.00  0.00    +0.000 N 
ATOM     24  C   UNL     1      47.352   2.763   6.222  0.00  0.00    +0.000 C 
ATOM     25  O   UNL     1      46.934   2.921   5.081  0.00  0.00    +0.000 OA
ATOM     26  H   UNL     1      49.207   2.190   5.636  0.00  0.00    +0.000 HD
ATOM     27  H   UNL     1      48.955   2.008   7.336  0.00  0.00    +0.000 HD
ENDBRANCH  17  24
ENDBRANCH  16  20
ENDBRANCH   1  16
TORSDOF 5
ENDMDL
MODEL 4
REMARK VINA RESULT:    -7.864      1.989      2.660
REMARK INTER + INTRA:         -10.897
REMARK INTER:                 -11.055
REMARK INTRA:                   0.158
REMARK UNBOUND:                -0.734
REMARK  Name = 
REMARK  5 active torsions:
REMARK  status: ('A' for Active; 'I' for Inactive)
REMARK    1  A    between atoms: C_2  and  C_4
REMARK    2  A    between atoms: C_7  and  C_8
REMARK    3  A    between atoms: C_8  and  C_9
REMARK    4  A    between atoms: C_9  and  C_10
REMARK    5  A    between atoms: C_14  and  C_15
REMARK                            x       y       z     vdW  Elec       q    Type
REMARK                         _______ _______ _______ _____ _____    ______ ____
ROOT
ATOM      1  C   UNL     1      44.479   4.630  11.739  0.00  0.00    +0.000 C 
ATOM      2  C   UNL     1      45.180   3.401  12.317  0.00  0.00    +0.000 C 
ATOM      3  C   UNL     1      43.981   3.954  13.015  0.00  0.00    +0.000 C 
ENDROOT
BRANCH   1   4
ATOM      4  C   UNL     1      45.238   5.944  11.891  0.00  0.00    +0.000 A 
ATOM      5  C   UNL     1      44.698   7.165  11.455  0.00  0.00    +0.000 A 
ATOM      6  C   UNL     1      45.293   8.381  11.788  0.00  0.00    +0.000 A 
ATOM      7  C   UNL     1      46.454   8.397  12.560  0.00  0.00    +0.000 A 
ATOM      8  C   UNL     1      47.052   7.201  12.988  0.00  0.00    +0.000 A 
ATOM      9  C   UNL     1      46.451   5.991  12.599  0.00  0.00    +0.000 A 
BRANCH   8  10
ATOM     10  C   UNL     1      48.202   7.185  13.901  0.00  0.00    +0.000 A 
ATOM     11  C   UNL     1      48.268   6.338  15.008  0.00  0.00    +0.000 A 
ATOM     12  N   UNL     1      49.351   6.244  15.820  0.00  0.00    +0.000 NA
ATOM     13  C   UNL     1      50.389   7.031  15.473  0.00  0.00    +0.000 A 
ATOM     14  C   UNL     1      50.346   7.876  14.378  0.00  0.00    +0.000 A 
ATOM     15  N   UNL     1      49.262   7.971  13.572  0.00  0.00    +0.000 NA
ENDBRANCH   8  10
ENDBRANCH   1   4
BRANCH   1  16
ATOM     16  C   UNL     1      43.783   4.371  10.409  0.00  0.00    +0.000 C 
BRANCH  16  20
ATOM     17  C   UNL     1      46.474   2.513   7.682  0.00  0.00    +0.000 A 
ATOM     18  C   UNL     1      46.381   3.905   7.689  0.00  0.00    +0.000 A 
ATOM     19  C   UNL     1      45.456   4.523   8.531  0.00  0.00    +0.000 A 
ATOM     20  C   UNL     1      44.650   3.734   9.353  0.00  0.00    +0.000 A 
ATOM     21  N   UNL     1      44.701   2.378   9.329  0.00  0.00    +0.000 NA
ATOM     22  C   UNL     1      45.600   1.800   8.491  0.00  0.00    +0.000 A 
BRANCH  17  24
ATOM     23  N   UNL     1      48.579   2.442   6.464  0.00  0.00    +0.000 N 
ATOM     24  C   UNL     1      47.453   1.772   6.861  0.00  0.00    +0.000 C 
ATOM     25  O   UNL     1      47.284   0.592   6.574  0.00  0.00    +0.000 OA
ATOM     26  H   UNL     1      49.284   1.887   5.998  0.00  0.00    +0.000 HD
ATOM     27  H   UNL     1      48.875   3.307   6.891  0.00  0.00    +0.000 HD
ENDBRANCH  17  24
ENDBRANCH  16  20
ENDBRANCH   1  16
TORSDOF 5
ENDMDL
MODEL 5
REMARK VINA RESULT:    -7.450      2.621      7.486
REMARK INTER + INTRA:         -10.361
REMARK INTER:                  -9.720
REMARK INTRA:                  -0.642
REMARK UNBOUND:                -0.734
REMARK  Name = 
REMARK  5 active torsions:
REMARK  status: ('A' for Active; 'I' for Inactive)
REMARK    1  A    between atoms: C_2  and  C_4
REMARK    2  A    between atoms: C_7  and  C_8
REMARK    3  A    between atoms: C_8  and  C_9
REMARK    4  A    between atoms: C_9  and  C_10
REMARK    5  A    between atoms: C_14  and  C_15
REMARK                            x       y       z     vdW  Elec       q    Type
REMARK                         _______ _______ _______ _____ _____    ______ ____
ROOT
ATOM      1  C   UNL     1      46.336   7.347  12.366  0.00  0.00    +0.000 C 
ATOM      2  C   UNL     1      46.310   8.760  11.782  0.00  0.00    +0.000 C 
ATOM      3  C   UNL     1      45.704   8.514  13.124  0.00  0.00    +0.000 C 
ENDROOT
BRANCH   1   4
ATOM      4  C   UNL     1      45.393   6.350  11.700  0.00  0.00    +0.000 A 
ATOM      5  C   UNL     1      43.999   6.444  11.840  0.00  0.00    +0.000 A 
ATOM      6  C   UNL     1      43.140   5.670  11.062  0.00  0.00    +0.000 A 
ATOM      7  C   UNL     1      43.663   4.773  10.131  0.00  0.00    +0.000 A 
ATOM      8  C   UNL     1      45.050   4.617   9.982  0.00  0.00    +0.000 A 
ATOM      9  C   UNL     1      45.890   5.381  10.811  0.00  0.00    +0.000 A 
BRANCH   8  10
ATOM     10  C   UNL     1      45.634   3.774   8.930  0.00  0.00    +0.000 A 
ATOM     11  C   UNL     1      45.598   2.380   8.981  0.00  0.00    +0.000 A 
ATOM     12  N   UNL     1      46.056   1.580   7.985  0.00  0.00    +0.000 NA
ATOM     13  C   UNL     1      46.548   2.233   6.913  0.00  0.00    +0.000 A 
ATOM     14  C   UNL     1      46.590   3.614   6.842  0.00  0.00    +0.000 A 
ATOM     15  N   UNL     1      46.137   4.411   7.839  0.00  0.00    +0.000 NA
ENDBRANCH   8  10
ENDBRANCH   1   4
BRANCH   1  16
ATOM     16  C   UNL     1      47.732   6.859  12.730  0.00  0.00    +0.000 C 
BRANCH  16  20
ATOM     17  C   UNL     1      47.596   4.552  16.307  0.00  0.00    +0.000 A 
ATOM     18  C   UNL     1      48.307   5.752  16.310  0.00  0.00    +0.000 A 
ATOM     19  C   UNL     1      48.414   6.485  15.127  0.00  0.00    +0.000 A 
ATOM     20  C   UNL     1      47.801   6.003  13.969  0.00  0.00    +0.000 A 
ATOM     21  N   UNL     1      47.140   4.818  13.941  0.00  0.00    +0.000 NA
ATOM     22  C   UNL     1      47.062   4.117  15.102  0.00  0.00    +0.000 A 
BRANCH  17  24
ATOM     23  N   UNL     1      48.013   4.136  18.667  0.00  0.00    +0.000 N 
ATOM     24  C   UNL     1      47.389   3.732  17.518  0.00  0.00    +0.000 C 
ATOM     25  O   UNL     1      46.658   2.748  17.506  0.00  0.00    +0.000 OA
ATOM     26  H   UNL     1      47.772   3.625  19.506  0.00  0.00    +0.000 HD
ATOM     27  H   UNL     1      48.397   5.062  18.780  0.00  0.00    +0.000 HD
ENDBRANCH  17  24
ENDBRANCH  16  20
ENDBRANCH   1  16
TORSDOF 5
ENDMDL
MODEL 6
REMARK VINA RESULT:    -7.224      2.860      7.629
REMARK INTER + INTRA:         -10.070
REMARK INTER:                  -9.238
REMARK INTRA:                  -0.832
REMARK UNBOUND:                -0.734
REMARK  Name = 
REMARK  5 active torsions:
REMARK  status: ('A' for Active; 'I' for Inactive)
REMARK    1  A    between atoms: C_2  and  C_4
REMARK    2  A    between atoms: C_7  and  C_8
REMARK    3  A    between atoms: C_8  and  C_9
REMARK    4  A    between atoms: C_9  and  C_10
REMARK    5  A    between atoms: C_14  and  C_15
REMARK                            x       y       z     vdW  Elec       q    Type
REMARK                         _______ _______ _______ _____ _____    ______ ____
ROOT
ATOM      1  C   UNL     1      46.403   7.293  12.478  0.00  0.00    +0.000 C 
ATOM      2  C   UNL     1      46.478   8.692  11.866  0.00  0.00    +0.000 C 
ATOM      3  C   UNL     1      45.812   8.509  13.190  0.00  0.00    +0.000 C 
ENDROOT
BRANCH   1   4
ATOM      4  C   UNL     1      45.429   6.337  11.798  0.00  0.00    +0.000 A 
ATOM      5  C   UNL     1      44.038   6.484  11.923  0.00  0.00    +0.000 A 
ATOM      6  C   UNL     1      43.157   5.748  11.133  0.00  0.00    +0.000 A 
ATOM      7  C   UNL     1      43.655   4.836  10.203  0.00  0.00    +0.000 A 
ATOM      8  C   UNL     1      45.036   4.625  10.068  0.00  0.00    +0.000 A 
ATOM      9  C   UNL     1      45.897   5.352  10.910  0.00  0.00    +0.000 A 
BRANCH   8  10
ATOM     10  C   UNL     1      45.598   3.764   9.018  0.00  0.00    +0.000 A 
ATOM     11  C   UNL     1      45.539   2.372   9.081  0.00  0.00    +0.000 A 
ATOM     12  N   UNL     1      45.976   1.556   8.088  0.00  0.00    +0.000 NA
ATOM     13  C   UNL     1      46.472   2.192   7.008  0.00  0.00    +0.000 A 
ATOM     14  C   UNL     1      46.536   3.572   6.925  0.00  0.00    +0.000 A 
ATOM     15  N   UNL     1      46.104   4.384   7.919  0.00  0.00    +0.000 NA
ENDBRANCH   8  10
ENDBRANCH   1   4
BRANCH   1  16
ATOM     16  C   UNL     1      47.754   6.735  12.903  0.00  0.00    +0.000 C 
BRANCH  16  20
ATOM     17  C   UNL     1      48.076   4.626  16.588  0.00  0.00    +0.000 A 
ATOM     18  C   UNL     1      47.124   4.209  15.657  0.00  0.00    +0.000 A 
ATOM     19  C   UNL     1      46.963   4.931  14.474  0.00  0.00    +0.000 A 
ATOM     20  C   UNL     1      47.764   6.050  14.246  0.00  0.00    +0.000 A 
ATOM     21  N   UNL     1      48.668   6.491  15.158  0.00  0.00    +0.000 NA
ATOM     22  C   UNL     1      48.795   5.779  16.308  0.00  0.00    +0.000 A 
BRANCH  17  24
ATOM     23  N   UNL     1      47.456   2.935  18.224  0.00  0.00    +0.000 N 
ATOM     24  C   UNL     1      48.350   3.900  17.844  0.00  0.00    +0.000 C 
ATOM     25  O   UNL     1      49.357   4.125  18.506  0.00  0.00    +0.000 OA
ATOM     26  H   UNL     1      47.719   2.378  19.026  0.00  0.00    +0.000 HD
ATOM     27  H   UNL     1      46.775   2.546  17.589  0.00  0.00    +0.000 HD
ENDBRANCH  17  24
ENDBRANCH  16  20
ENDBRANCH   1  16
TORSDOF 5
ENDMDL
MODEL 7
REMARK VINA RESULT:    -6.998      2.697      4.492
REMARK INTER + INTRA:          -9.777
REMARK INTER:                  -8.933
REMARK INTRA:                  -0.845
REMARK UNBOUND:                -0.734
REMARK  Name = 
REMARK  5 active torsions:
REMARK  status: ('A' for Active; 'I' for Inactive)
REMARK    1  A    between atoms: C_2  and  C_4
REMARK    2  A    between atoms: C_7  and  C_8
REMARK    3  A    between atoms: C_8  and  C_9
REMARK    4  A    between atoms: C_9  and  C_10
REMARK    5  A    between atoms: C_14  and  C_15
REMARK                            x       y       z     vdW  Elec       q    Type
REMARK                         _______ _______ _______ _____ _____    ______ ____
ROOT
ATOM      1  C   UNL     1      47.938   7.985  12.540  0.00  0.00    +0.000 C 
ATOM      2  C   UNL     1      48.699   9.041  11.738  0.00  0.00    +0.000 C 
ATOM      3  C   UNL     1      48.987   7.595  11.500  0.00  0.00    +0.000 C 
ENDROOT
BRANCH   1   4
ATOM      4  C   UNL     1      48.331   7.874  14.009  0.00  0.00    +0.000 A 
ATOM      5  C   UNL     1      48.427   9.005  14.837  0.00  0.00    +0.000 A 
ATOM      6  C   UNL     1      48.573   8.882  16.218  0.00  0.00    +0.000 A 
ATOM      7  C   UNL     1      48.638   7.617  16.799  0.00  0.00    +0.000 A 
ATOM      8  C   UNL     1      48.585   6.457  16.009  0.00  0.00    +0.000 A 
ATOM      9  C   UNL     1      48.481   6.615  14.616  0.00  0.00    +0.000 A 
BRANCH   8  10
ATOM     10  C   UNL     1      48.528   5.112  16.598  0.00  0.00    +0.000 A 
ATOM     11  C   UNL     1      47.344   4.377  16.673  0.00  0.00    +0.000 A 
ATOM     12  N   UNL     1      47.279   3.103  17.136  0.00  0.00    +0.000 NA
ATOM     13  C   UNL     1      48.461   2.576  17.515  0.00  0.00    +0.000 A 
ATOM     14  C   UNL     1      49.646   3.287  17.445  0.00  0.00    +0.000 A 
ATOM     15  N   UNL     1      49.708   4.560  16.988  0.00  0.00    +0.000 NA
ENDBRANCH   8  10
ENDBRANCH   1   4
BRANCH   1  16
ATOM     16  C   UNL     1      46.455   7.909  12.203  0.00  0.00    +0.000 C 
BRANCH  16  20
ATOM     17  C   UNL     1      44.668   4.132  11.387  0.00  0.00    +0.000 A 
ATOM     18  C   UNL     1      44.831   4.523  12.716  0.00  0.00    +0.000 A 
ATOM     19  C   UNL     1      45.475   5.729  12.998  0.00  0.00    +0.000 A 
ATOM     20  C   UNL     1      45.934   6.519  11.943  0.00  0.00    +0.000 A 
ATOM     21  N   UNL     1      45.816   6.133  10.647  0.00  0.00    +0.000 NA
ATOM     22  C   UNL     1      45.199   4.949  10.399  0.00  0.00    +0.000 A 
BRANCH  17  24
ATOM     23  N   UNL     1      44.486   2.174   9.953  0.00  0.00    +0.000 N 
ATOM     24  C   UNL     1      43.959   2.898  10.988  0.00  0.00    +0.000 C 
ATOM     25  O   UNL     1      42.957   2.516  11.582  0.00  0.00    +0.000 OA
ATOM     26  H   UNL     1      44.050   1.281   9.769  0.00  0.00    +0.000 HD
ATOM     27  H   UNL     1      45.430   2.308   9.622  0.00  0.00    +0.000 HD
ENDBRANCH  17  24
ENDBRANCH  16  20
ENDBRANCH   1  16
TORSDOF 5
ENDMDL
MODEL 8
REMARK VINA RESULT:    -6.787      2.886      7.472
REMARK INTER + INTRA:          -9.505
REMARK INTER:                  -8.913
REMARK INTRA:                  -0.592
REMARK UNBOUND:                -0.734
REMARK  Name = 
REMARK  5 active torsions:
REMARK  status: ('A' for Active; 'I' for Inactive)
REMARK    1  A    between atoms: C_2  and  C_4
REMARK    2  A    between atoms: C_7  and  C_8
REMARK    3  A    between atoms: C_8  and  C_9
REMARK    4  A    between atoms: C_9  and  C_10
REMARK    5  A    between atoms: C_14  and  C_15
REMARK                            x       y       z     vdW  Elec       q    Type
REMARK                         _______ _______ _______ _____ _____    ______ ____
ROOT
ATOM      1  C   UNL     1      44.414   5.590  11.293  0.00  0.00    +0.000 C 
ATOM      2  C   UNL     1      43.016   6.195  11.158  0.00  0.00    +0.000 C 
ATOM      3  C   UNL     1      43.486   5.735  12.499  0.00  0.00    +0.000 C 
ENDROOT
BRANCH   1   4
ATOM      4  C   UNL     1      44.579   4.195  10.699  0.00  0.00    +0.000 A 
ATOM      5  C   UNL     1      43.745   3.129  11.071  0.00  0.00    +0.000 A 
ATOM      6  C   UNL     1      43.758   1.922  10.375  0.00  0.00    +0.000 A 
ATOM      7  C   UNL     1      44.619   1.755   9.291  0.00  0.00    +0.000 A 
ATOM      8  C   UNL     1      45.498   2.778   8.904  0.00  0.00    +0.000 A 
ATOM      9  C   UNL     1      45.492   3.968   9.654  0.00  0.00    +0.000 A 
BRANCH   8  10
ATOM     10  C   UNL     1      46.329   2.681   7.696  0.00  0.00    +0.000 A 
ATOM     11  C   UNL     1      47.134   1.573   7.428  0.00  0.00    +0.000 A 
ATOM     12  N   UNL     1      47.847   1.422   6.283  0.00  0.00    +0.000 NA
ATOM     13  C   UNL     1      47.716   2.429   5.396  0.00  0.00    +0.000 A 
ATOM     14  C   UNL     1      46.921   3.535   5.642  0.00  0.00    +0.000 A 
ATOM     15  N   UNL     1      46.214   3.686   6.787  0.00  0.00    +0.000 NA
ENDBRANCH   8  10
ENDBRANCH   1   4
BRANCH   1  16
ATOM     16  C   UNL     1      45.540   6.589  11.065  0.00  0.00    +0.000 C 
BRANCH  16  20
ATOM     17  C   UNL     1      48.152   6.768  14.423  0.00  0.00    +0.000 A 
ATOM     18  C   UNL     1      47.869   7.945  13.730  0.00  0.00    +0.000 A 
ATOM     19  C   UNL     1      47.068   7.890  12.589  0.00  0.00    +0.000 A 
ATOM     20  C   UNL     1      46.561   6.658  12.172  0.00  0.00    +0.000 A 
ATOM     21  N   UNL     1      46.859   5.499  12.813  0.00  0.00    +0.000 NA
ATOM     22  C   UNL     1      47.652   5.578  13.912  0.00  0.00    +0.000 A 
BRANCH  17  24
ATOM     23  N   UNL     1      48.313   7.055  16.834  0.00  0.00    +0.000 N 
ATOM     24  C   UNL     1      48.950   6.733  15.666  0.00  0.00    +0.000 C 
ATOM     25  O   UNL     1      50.128   6.395  15.659  0.00  0.00    +0.000 OA
ATOM     26  H   UNL     1      48.847   6.920  17.682  0.00  0.00    +0.000 HD
ATOM     27  H   UNL     1      47.308   7.079  16.915  0.00  0.00    +0.000 HD
ENDBRANCH  17  24
ENDBRANCH  16  20
ENDBRANCH   1  16
TORSDOF 5
ENDMDL
MODEL 9
REMARK VINA RESULT:    -6.726      2.919      7.555
REMARK INTER + INTRA:          -9.426
REMARK INTER:                  -8.960
REMARK INTRA:                  -0.465
REMARK UNBOUND:                -0.734
REMARK  Name = 
REMARK  5 active torsions:
REMARK  status: ('A' for Active; 'I' for Inactive)
REMARK    1  A    between atoms: C_2  and  C_4
REMARK    2  A    between atoms: C_7  and  C_8
REMARK    3  A    between atoms: C_8  and  C_9
REMARK    4  A    between atoms: C_9  and  C_10
REMARK    5  A    between atoms: C_14  and  C_15
REMARK                            x       y       z     vdW  Elec       q    Type
REMARK                         _______ _______ _______ _____ _____    ______ ____
ROOT
ATOM      1  C   UNL     1      48.310   8.239  12.478  0.00  0.00    +0.000 C 
ATOM      2  C   UNL     1      48.931   9.268  11.533  0.00  0.00    +0.000 C 
ATOM      3  C   UNL     1      48.529   9.688  12.909  0.00  0.00    +0.000 C 
ENDROOT
BRANCH   1   4
ATOM      4  C   UNL     1      46.885   7.816  12.135  0.00  0.00    +0.000 A 
ATOM      5  C   UNL     1      45.794   8.682  12.312  0.00  0.00    +0.000 A 
ATOM      6  C   UNL     1      44.535   8.375  11.800  0.00  0.00    +0.000 A 
ATOM      7  C   UNL     1      44.340   7.183  11.104  0.00  0.00    +0.000 A 
ATOM      8  C   UNL     1      45.391   6.268  10.934  0.00  0.00    +0.000 A 
ATOM      9  C   UNL     1      46.638   6.587  11.500  0.00  0.00    +0.000 A 
BRANCH   8  10
ATOM     10  C   UNL     1      45.253   5.062  10.105  0.00  0.00    +0.000 A 
ATOM     11  C   UNL     1      44.483   3.967  10.498  0.00  0.00    +0.000 A 
ATOM     12  N   UNL     1      44.272   2.878   9.717  0.00  0.00    +0.000 NA
ATOM     13  C   UNL     1      44.858   2.927   8.504  0.00  0.00    +0.000 A 
ATOM     14  C   UNL     1      45.623   4.005   8.094  0.00  0.00    +0.000 A 
ATOM     15  N   UNL     1      45.835   5.090   8.877  0.00  0.00    +0.000 NA
ENDBRANCH   8  10
ENDBRANCH   1   4
BRANCH   1  16
ATOM     16  C   UNL     1      49.278   7.150  12.921  0.00  0.00    +0.000 C 
BRANCH  16  20
ATOM     17  C   UNL     1      47.776   5.176  16.382  0.00  0.00    +0.000 A 
ATOM     18  C   UNL     1      48.688   6.218  16.547  0.00  0.00    +0.000 A 
ATOM     19  C   UNL     1      49.237   6.830  15.420  0.00  0.00    +0.000 A 
ATOM     20  C   UNL     1      48.856   6.389  14.152  0.00  0.00    +0.000 A 
ATOM     21  N   UNL     1      48.000   5.350  13.975  0.00  0.00    +0.000 NA
ATOM     22  C   UNL     1      47.490   4.762  15.088  0.00  0.00    +0.000 A 
BRANCH  17  24
ATOM     23  N   UNL     1      46.916   5.225  18.657  0.00  0.00    +0.000 N 
ATOM     24  C   UNL     1      47.106   4.500  17.512  0.00  0.00    +0.000 C 
ATOM     25  O   UNL     1      46.704   3.345  17.419  0.00  0.00    +0.000 OA
ATOM     26  H   UNL     1      46.361   4.780  19.377  0.00  0.00    +0.000 HD
ATOM     27  H   UNL     1      46.990   6.231  18.682  0.00  0.00    +0.000 HD
ENDBRANCH  17  24
ENDBRANCH  16  20
ENDBRANCH   1  16
TORSDOF 5
ENDMDL
