MODEL 1
REMARK VINA RESULT:    -9.322      0.000      0.000
REMARK INTER + INTRA:         -13.115
REMARK INTER:                 -12.047
REMARK INTRA:                  -1.068
REMARK UNBOUND:                -1.068
REMARK  Name = 
REMARK  5 active torsions:
REMARK  status: ('A' for Active; 'I' for Inactive)
REMARK    1  A    between atoms: C_2  and  C_4
REMARK    2  A    between atoms: N_8  and  C_9
REMARK    3  A    between atoms: C_9  and  C_10
REMARK    4  A    between atoms: C_10  and  C_13
REMARK    5  A    between atoms: C_16  and  N_17
REMARK                            x       y       z     vdW  Elec       q    Type
REMARK                         _______ _______ _______ _____ _____    ______ ____
ROOT
ATOM      1  C   UNL     1      43.122   5.508  12.143  0.00  0.00    +0.000 C 
ATOM      2  F   UNL     1      42.171   6.354  11.640  0.00  0.00    +0.000 F 
ATOM      3  F   UNL     1      42.622   5.079  13.340  0.00  0.00    +0.000 F 
ENDROOT
BRANCH   1   4
ATOM      4  C   UNL     1      44.461   6.201  12.318  0.00  0.00    +0.000 A 
ATOM      5  C   UNL     1      45.546   5.539  12.895  0.00  0.00    +0.000 A 
ATOM      6  C   UNL     1      46.789   6.181  13.023  0.00  0.00    +0.000 A 
ATOM      7  C   UNL     1      46.997   7.499  12.591  0.00  0.00    +0.000 A 
ATOM      8  C   UNL     1      45.891   8.149  12.023  0.00  0.00    +0.000 A 
ATOM      9  C   UNL     1      44.648   7.521  11.889  0.00  0.00    +0.000 A 
BRANCH   7  10
ATOM     10  N   UNL     1      48.230   8.119  12.692  0.00  0.00    +0.000 N 
ATOM     11  C   UNL     1      48.378   9.575  12.653  0.00  0.00    +0.000 C 
ATOM     12  C   UNL     1      49.152   9.982  11.403  0.00  0.00    +0.000 C 
ATOM     13  C   UNL     1      50.491   9.247  11.323  0.00  0.00    +0.000 C 
ATOM     14  C   UNL     1      50.292   7.734  11.432  0.00  0.00    +0.000 C 
ATOM     15  C   UNL     1      49.477   7.351  12.669  0.00  0.00    +0.000 C 
ENDBRANCH   7  10
ENDBRANCH   1   4
BRANCH   1  16
ATOM     16  C   UNL     1      43.234   4.290  11.186  0.00  0.00    +0.000 C 
BRANCH  16  21
ATOM     17  C   UNL     1      46.501   2.523   7.664  0.00  0.00    +0.000 A 
ATOM     18  C   UNL     1      45.671   1.829   8.535  0.00  0.00    +0.000 A 
ATOM     19  C   UNL     1      44.741   2.534   9.302  0.00  0.00    +0.000 A 
ATOM     20  C   UNL     1      44.656   3.919   9.188  0.00  0.00    +0.000 A 
ATOM     21  N   UNL     1      43.688   4.661   9.836  0.00  0.00    +0.000 N 
ATOM     22  N   UNL     1      45.473   4.605   8.366  0.00  0.00    +0.000 NA
ATOM     23  C   UNL     1      46.383   3.904   7.633  0.00  0.00    +0.000 A 
ATOM     24  H   UNL     1      43.865   5.654   9.686  0.00  0.00    +0.000 HD
BRANCH  17  26
ATOM     25  N   UNL     1      48.566   2.589   6.391  0.00  0.00    +0.000 N 
ATOM     26  C   UNL     1      47.491   1.848   6.799  0.00  0.00    +0.000 C 
ATOM     27  O   UNL     1      47.371   0.672   6.485  0.00  0.00    +0.000 OA
ATOM     28  H   UNL     1      49.288   2.094   5.880  0.00  0.00    +0.000 HD
ATOM     29  H   UNL     1      48.824   3.462   6.827  0.00  0.00    +0.000 HD
ENDBRANCH  17  26
ENDBRANCH  16  21
ENDBRANCH   1  16
TORSDOF 5
ENDMDL
MODEL 2
REMARK VINA RESULT:    -8.212      2.871      4.075
REMARK INTER + INTRA:         -11.680
REMARK INTER:                 -10.611
REMARK INTRA:                  -1.069
REMARK UNBOUND:                -1.068
REMARK  Name = 
REMARK  5 active torsions:
REMARK  status: ('A' for Active; 'I' for Inactive)
REMARK    1  A    between atoms: C_2  and  C_4
REMARK    2  A    between atoms: N_8  and  C_9
REMARK    3  A    between atoms: C_9  and  C_10
REMARK    4  A    between atoms: C_10  and  C_13
REMARK    5  A    between atoms: C_16  and  N_17
REMARK                            x       y       z     vdW  Elec       q    Type
REMARK                         _______ _______ _______ _____ _____    ______ ____
ROOT
ATOM      1  C   UNL     1      44.784   6.435  11.529  0.00  0.00    +0.000 C 
ATOM      2  F   UNL     1      45.524   6.969  10.509  0.00  0.00    +0.000 F 
ATOM      3  F   UNL     1      43.987   7.457  11.965  0.00  0.00    +0.000 F 
ENDROOT
BRANCH   1   4
ATOM      4  C   UNL     1      45.661   5.901  12.646  0.00  0.00    +0.000 A 
ATOM      5  C   UNL     1      46.741   6.641  13.132  0.00  0.00    +0.000 A 
ATOM      6  C   UNL     1      47.526   6.151  14.188  0.00  0.00    +0.000 A 
ATOM      7  C   UNL     1      47.274   4.910  14.793  0.00  0.00    +0.000 A 
ATOM      8  C   UNL     1      46.191   4.179  14.283  0.00  0.00    +0.000 A 
ATOM      9  C   UNL     1      45.400   4.657  13.232  0.00  0.00    +0.000 A 
BRANCH   7  10
ATOM     10  N   UNL     1      48.032   4.442  15.852  0.00  0.00    +0.000 N 
ATOM     11  C   UNL     1      48.020   3.037  16.260  0.00  0.00    +0.000 C 
ATOM     12  C   UNL     1      47.416   2.908  17.656  0.00  0.00    +0.000 C 
ATOM     13  C   UNL     1      48.146   3.810  18.652  0.00  0.00    +0.000 C 
ATOM     14  C   UNL     1      48.189   5.256  18.154  0.00  0.00    +0.000 C 
ATOM     15  C   UNL     1      48.757   5.357  16.737  0.00  0.00    +0.000 C 
ENDBRANCH   7  10
ENDBRANCH   1   4
BRANCH   1  16
ATOM     16  C   UNL     1      43.881   5.320  10.934  0.00  0.00    +0.000 C 
BRANCH  16  21
ATOM     17  C   UNL     1      46.285   1.988   7.882  0.00  0.00    +0.000 A 
ATOM     18  C   UNL     1      45.590   1.770   9.065  0.00  0.00    +0.000 A 
ATOM     19  C   UNL     1      44.875   2.821   9.643  0.00  0.00    +0.000 A 
ATOM     20  C   UNL     1      44.866   4.072   9.031  0.00  0.00    +0.000 A 
ATOM     21  N   UNL     1      44.093   5.120   9.491  0.00  0.00    +0.000 N 
ATOM     22  N   UNL     1      45.557   4.302   7.898  0.00  0.00    +0.000 NA
ATOM     23  C   UNL     1      46.259   3.269   7.353  0.00  0.00    +0.000 A 
ATOM     24  H   UNL     1      44.307   5.960   8.955  0.00  0.00    +0.000 HD
BRANCH  17  26
ATOM     25  N   UNL     1      46.761  -0.369   7.553  0.00  0.00    +0.000 N 
ATOM     26  C   UNL     1      47.042   0.921   7.195  0.00  0.00    +0.000 C 
ATOM     27  O   UNL     1      47.861   1.176   6.323  0.00  0.00    +0.000 OA
ATOM     28  H   UNL     1      47.212  -1.097   7.011  0.00  0.00    +0.000 HD
ATOM     29  H   UNL     1      45.933  -0.624   8.070  0.00  0.00    +0.000 HD
ENDBRANCH  17  26
ENDBRANCH  16  21
ENDBRANCH   1  16
TORSDOF 5
ENDMDL
MODEL 3
REMARK VINA RESULT:    -7.265      4.294      7.694
REMARK INTER + INTRA:         -10.456
REMARK INTER:                  -9.710
REMARK INTRA:                  -0.746
REMARK UNBOUND:                -1.068
REMARK  Name = 
REMARK  5 active torsions:
REMARK  status: ('A' for Active; 'I' for Inactive)
REMARK    1  A    between atoms: C_2  and  C_4
REMARK    2  A    between atoms: N_8  and  C_9
REMARK    3  A    between atoms: C_9  and  C_10
REMARK    4  A    between atoms: C_10  and  C_13
REMARK    5  A    between atoms: C_16  and  N_17
REMARK                            x       y       z     vdW  Elec       q    Type
REMARK                         _______ _______ _______ _____ _____    ______ ____
ROOT
ATOM      1  C   UNL     1      44.871   5.794  12.745  0.00  0.00    +0.000 C 
ATOM      2  F   UNL     1      43.820   5.316  13.480  0.00  0.00    +0.000 F 
ATOM      3  F   UNL     1      44.526   7.076  12.422  0.00  0.00    +0.000 F 
ENDROOT
BRANCH   1   4
ATOM      4  C   UNL     1      45.120   4.957  11.504  0.00  0.00    +0.000 A 
ATOM      5  C   UNL     1      44.906   3.578  11.507  0.00  0.00    +0.000 A 
ATOM      6  C   UNL     1      45.110   2.820  10.343  0.00  0.00    +0.000 A 
ATOM      7  C   UNL     1      45.539   3.400   9.140  0.00  0.00    +0.000 A 
ATOM      8  C   UNL     1      45.757   4.785   9.160  0.00  0.00    +0.000 A 
ATOM      9  C   UNL     1      45.557   5.552  10.314  0.00  0.00    +0.000 A 
BRANCH   7  10
ATOM     10  N   UNL     1      45.712   2.654   7.987  0.00  0.00    +0.000 N 
ATOM     11  C   UNL     1      46.203   1.276   8.014  0.00  0.00    +0.000 C 
ATOM     12  C   UNL     1      47.565   1.199   7.330  0.00  0.00    +0.000 C 
ATOM     13  C   UNL     1      47.501   1.779   5.916  0.00  0.00    +0.000 C 
ATOM     14  C   UNL     1      46.923   3.195   5.930  0.00  0.00    +0.000 C 
ATOM     15  C   UNL     1      45.578   3.257   6.658  0.00  0.00    +0.000 C 
ENDBRANCH   7  10
ENDBRANCH   1   4
BRANCH   1  16
ATOM     16  C   UNL     1      46.121   5.832  13.665  0.00  0.00    +0.000 C 
BRANCH  16  21
ATOM     17  C   UNL     1      49.336   3.973  17.188  0.00  0.00    +0.000 A 
ATOM     18  C   UNL     1      49.060   5.289  16.842  0.00  0.00    +0.000 A 
ATOM     19  C   UNL     1      48.017   5.559  15.953  0.00  0.00    +0.000 A 
ATOM     20  C   UNL     1      47.269   4.511  15.423  0.00  0.00    +0.000 A 
ATOM     21  N   UNL     1      46.160   4.717  14.626  0.00  0.00    +0.000 N 
ATOM     22  N   UNL     1      47.544   3.229  15.731  0.00  0.00    +0.000 NA
ATOM     23  C   UNL     1      48.572   2.981  16.591  0.00  0.00    +0.000 A 
ATOM     24  H   UNL     1      45.822   3.821  14.278  0.00  0.00    +0.000 HD
BRANCH  17  26
ATOM     25  N   UNL     1      51.035   2.410  17.937  0.00  0.00    +0.000 N 
ATOM     26  C   UNL     1      50.403   3.606  18.142  0.00  0.00    +0.000 C 
ATOM     27  O   UNL     1      50.729   4.350  19.057  0.00  0.00    +0.000 OA
ATOM     28  H   UNL     1      51.829   2.210  18.536  0.00  0.00    +0.000 HD
ATOM     29  H   UNL     1      50.972   1.901  17.068  0.00  0.00    +0.000 HD
ENDBRANCH  17  26
ENDBRANCH  16  21
ENDBRANCH   1  16
TORSDOF 5
ENDMDL
MODEL 4
REMARK VINA RESULT:    -7.252      2.581      6.617
REMARK INTER + INTRA:         -10.439
REMARK INTER:                  -9.430
REMARK INTRA:                  -1.010
REMARK UNBOUND:                -1.068
REMARK  Name = 
REMARK  5 active torsions:
REMARK  status: ('A' for Active; 'I' for Inactive)
REMARK    1  A    between atoms: C_2  and  C_4
REMARK    2  A    between atoms: N_8  and  C_9
REMARK    3  A    between atoms: C_9  and  C_10
REMARK    4  A    between atoms: C_10  and  C_13
REMARK    5  A    between atoms: C_16  and  N_17
REMARK                            x       y       z     vdW  Elec       q    Type
REMARK                         _______ _______ _______ _____ _____    ______ ____
ROOT
ATOM      1  C   UNL     1      43.614   4.928  12.556  0.00  0.00    +0.000 C 
ATOM      2  F   UNL     1      43.717   4.114  13.651  0.00  0.00    +0.000 F 
ATOM      3  F   UNL     1      42.276   5.175  12.420  0.00  0.00    +0.000 F 
ENDROOT
BRANCH   1   4
ATOM      4  C   UNL     1      44.185   4.276  11.310  0.00  0.00    +0.000 A 
ATOM      5  C   UNL     1      44.075   2.900  11.100  0.00  0.00    +0.000 A 
ATOM      6  C   UNL     1      44.580   2.313   9.928  0.00  0.00    +0.000 A 
ATOM      7  C   UNL     1      45.217   3.066   8.930  0.00  0.00    +0.000 A 
ATOM      8  C   UNL     1      45.326   4.445   9.166  0.00  0.00    +0.000 A 
ATOM      9  C   UNL     1      44.826   5.042  10.328  0.00  0.00    +0.000 A 
BRANCH   7  10
ATOM     10  N   UNL     1      45.688   2.489   7.764  0.00  0.00    +0.000 N 
ATOM     11  C   UNL     1      46.364   1.191   7.753  0.00  0.00    +0.000 C 
ATOM     12  C   UNL     1      47.819   1.369   7.325  0.00  0.00    +0.000 C 
ATOM     13  C   UNL     1      47.909   2.098   5.984  0.00  0.00    +0.000 C 
ATOM     14  C   UNL     1      47.136   3.417   6.023  0.00  0.00    +0.000 C 
ATOM     15  C   UNL     1      45.693   3.221   6.495  0.00  0.00    +0.000 C 
ENDBRANCH   7  10
ENDBRANCH   1   4
BRANCH   1  16
ATOM     16  C   UNL     1      44.336   6.263  12.880  0.00  0.00    +0.000 C 
BRANCH  16  21
ATOM     17  C   UNL     1      49.118   7.936  12.152  0.00  0.00    +0.000 A 
ATOM     18  C   UNL     1      47.911   8.613  12.031  0.00  0.00    +0.000 A 
ATOM     19  C   UNL     1      46.732   7.986  12.441  0.00  0.00    +0.000 A 
ATOM     20  C   UNL     1      46.777   6.696  12.962  0.00  0.00    +0.000 A 
ATOM     21  N   UNL     1      45.664   6.065  13.483  0.00  0.00    +0.000 N 
ATOM     22  N   UNL     1      47.938   6.021  13.059  0.00  0.00    +0.000 NA
ATOM     23  C   UNL     1      49.078   6.641  12.645  0.00  0.00    +0.000 A 
ATOM     24  H   UNL     1      45.902   5.103  13.723  0.00  0.00    +0.000 HD
BRANCH  17  26
ATOM     25  N   UNL     1      51.522   7.747  11.875  0.00  0.00    +0.000 N 
ATOM     26  C   UNL     1      50.411   8.539  11.768  0.00  0.00    +0.000 C 
ATOM     27  O   UNL     1      50.485   9.685  11.345  0.00  0.00    +0.000 OA
ATOM     28  H   UNL     1      52.389   8.134  11.519  0.00  0.00    +0.000 HD
ATOM     29  H   UNL     1      51.469   6.744  11.973  0.00  0.00    +0.000 HD
ENDBRANCH  17  26
ENDBRANCH  16  21
ENDBRANCH   1  16
TORSDOF 5
ENDMDL
MODEL 5
REMARK VINA RESULT:    -7.164      6.204      7.640
REMARK INTER + INTRA:         -10.325
REMARK INTER:                  -9.581
REMARK INTRA:                  -0.744
REMARK UNBOUND:                -1.068
REMARK  Name = 
REMARK  5 active torsions:
REMARK  status: ('A' for Active; 'I' for Inactive)
REMARK    1  A    between atoms: C_2  and  C_4
REMARK    2  A    between atoms: N_8  and  C_9
REMARK    3  A    between atoms: C_9  and  C_10
REMARK    4  A    between atoms: C_10  and  C_13
REMARK    5  A    between atoms: C_16  and  N_17
REMARK                            x       y       z     vdW  Elec       q    Type
REMARK                         _______ _______ _______ _____ _____    ______ ____
ROOT
ATOM      1  C   UNL     1      47.739   3.866  17.259  0.00  0.00    +0.000 C 
ATOM      2  F   UNL     1      47.355   4.722  18.255  0.00  0.00    +0.000 F 
ATOM      3  F   UNL     1      46.872   2.812  17.341  0.00  0.00    +0.000 F 
ENDROOT
BRANCH   1   4
ATOM      4  C   UNL     1      49.178   3.413  17.425  0.00  0.00    +0.000 A 
ATOM      5  C   UNL     1      50.144   4.262  17.968  0.00  0.00    +0.000 A 
ATOM      6  C   UNL     1      51.464   3.821  18.146  0.00  0.00    +0.000 A 
ATOM      7  C   UNL     1      51.875   2.529  17.786  0.00  0.00    +0.000 A 
ATOM      8  C   UNL     1      50.892   1.695  17.234  0.00  0.00    +0.000 A 
ATOM      9  C   UNL     1      49.572   2.122  17.052  0.00  0.00    +0.000 A 
BRANCH   7  10
ATOM     10  N   UNL     1      53.171   2.087  17.989  0.00  0.00    +0.000 N 
ATOM     11  C   UNL     1      54.295   3.011  18.151  0.00  0.00    +0.000 C 
ATOM     12  C   UNL     1      55.261   2.860  16.980  0.00  0.00    +0.000 C 
ATOM     13  C   UNL     1      55.706   1.405  16.821  0.00  0.00    +0.000 C 
ATOM     14  C   UNL     1      54.499   0.471  16.720  0.00  0.00    +0.000 C 
ATOM     15  C   UNL     1      53.523   0.669  17.881  0.00  0.00    +0.000 C 
ENDBRANCH   7  10
ENDBRANCH   1   4
BRANCH   1  16
ATOM     16  C   UNL     1      47.522   4.584  15.899  0.00  0.00    +0.000 C 
BRANCH  16  21
ATOM     17  C   UNL     1      45.102   4.592  11.389  0.00  0.00    +0.000 A 
ATOM     18  C   UNL     1      45.825   5.601  12.012  0.00  0.00    +0.000 A 
ATOM     19  C   UNL     1      46.537   5.312  13.179  0.00  0.00    +0.000 A 
ATOM     20  C   UNL     1      46.515   4.023  13.703  0.00  0.00    +0.000 A 
ATOM     21  N   UNL     1      47.282   3.648  14.789  0.00  0.00    +0.000 N 
ATOM     22  N   UNL     1      45.796   3.043  13.122  0.00  0.00    +0.000 NA
ATOM     23  C   UNL     1      45.098   3.343  11.992  0.00  0.00    +0.000 A 
ATOM     24  H   UNL     1      47.044   2.694  15.058  0.00  0.00    +0.000 HD
BRANCH  17  26
ATOM     25  N   UNL     1      45.039   4.688   8.965  0.00  0.00    +0.000 N 
ATOM     26  C   UNL     1      44.346   4.810  10.138  0.00  0.00    +0.000 C 
ATOM     27  O   UNL     1      43.148   5.059  10.147  0.00  0.00    +0.000 OA
ATOM     28  H   UNL     1      44.496   4.742   8.111  0.00  0.00    +0.000 HD
ATOM     29  H   UNL     1      45.944   4.244   8.909  0.00  0.00    +0.000 HD
ENDBRANCH  17  26
ENDBRANCH  16  21
ENDBRANCH   1  16
TORSDOF 5
ENDMDL
MODEL 6
REMARK VINA RESULT:    -6.395      4.294      7.772
REMARK INTER + INTRA:          -9.331
REMARK INTER:                  -7.919
REMARK INTRA:                  -1.413
REMARK UNBOUND:                -1.068
REMARK  Name = 
REMARK  5 active torsions:
REMARK  status: ('A' for Active; 'I' for Inactive)
REMARK    1  A    between atoms: C_2  and  C_4
REMARK    2  A    between atoms: N_8  and  C_9
REMARK    3  A    between atoms: C_9  and  C_10
REMARK    4  A    between atoms: C_10  and  C_13
REMARK    5  A    between atoms: C_16  and  N_17
REMARK                            x       y       z     vdW  Elec       q    Type
REMARK                         _______ _______ _______ _____ _____    ______ ____
ROOT
ATOM      1  C   UNL     1      48.704   9.199  12.929  0.00  0.00    +0.000 C 
ATOM      2  F   UNL     1      48.419  10.508  12.650  0.00  0.00    +0.000 F 
ATOM      3  F   UNL     1      49.821   8.912  12.194  0.00  0.00    +0.000 F 
ENDROOT
BRANCH   1   4
ATOM      4  C   UNL     1      47.552   8.279  12.568  0.00  0.00    +0.000 A 
ATOM      5  C   UNL     1      47.750   7.156  11.763  0.00  0.00    +0.000 A 
ATOM      6  C   UNL     1      46.683   6.295  11.462  0.00  0.00    +0.000 A 
ATOM      7  C   UNL     1      45.383   6.520  11.941  0.00  0.00    +0.000 A 
ATOM      8  C   UNL     1      45.204   7.659  12.740  0.00  0.00    +0.000 A 
ATOM      9  C   UNL     1      46.260   8.524  13.048  0.00  0.00    +0.000 A 
BRANCH   7  10
ATOM     10  N   UNL     1      44.339   5.654  11.666  0.00  0.00    +0.000 N 
ATOM     11  C   UNL     1      43.325   5.313  12.665  0.00  0.00    +0.000 C 
ATOM     12  C   UNL     1      43.425   3.832  13.018  0.00  0.00    +0.000 C 
ATOM     13  C   UNL     1      43.339   2.963  11.763  0.00  0.00    +0.000 C 
ATOM     14  C   UNL     1      44.375   3.396  10.724  0.00  0.00    +0.000 C 
ATOM     15  C   UNL     1      44.285   4.893  10.416  0.00  0.00    +0.000 C 
ENDBRANCH   7  10
ENDBRANCH   1   4
BRANCH   1  16
ATOM     16  C   UNL     1      49.062   9.097  14.437  0.00  0.00    +0.000 C 
BRANCH  16  21
ATOM     17  C   UNL     1      48.906   4.623  16.918  0.00  0.00    +0.000 A 
ATOM     18  C   UNL     1      47.936   5.243  16.141  0.00  0.00    +0.000 A 
ATOM     19  C   UNL     1      48.267   6.397  15.426  0.00  0.00    +0.000 A 
ATOM     20  C   UNL     1      49.558   6.911  15.499  0.00  0.00    +0.000 A 
ATOM     21  N   UNL     1      49.977   7.983  14.735  0.00  0.00    +0.000 N 
ATOM     22  N   UNL     1      50.500   6.333  16.269  0.00  0.00    +0.000 NA
ATOM     23  C   UNL     1      50.159   5.215  16.969  0.00  0.00    +0.000 A 
ATOM     24  H   UNL     1      50.921   8.248  15.011  0.00  0.00    +0.000 HD
BRANCH  17  26
ATOM     25  N   UNL     1      49.706   2.824  18.337  0.00  0.00    +0.000 N 
ATOM     26  C   UNL     1      48.645   3.384  17.681  0.00  0.00    +0.000 C 
ATOM     27  O   UNL     1      47.524   2.897  17.748  0.00  0.00    +0.000 OA
ATOM     28  H   UNL     1      49.500   2.032  18.936  0.00  0.00    +0.000 HD
ATOM     29  H   UNL     1      50.566   3.323  18.512  0.00  0.00    +0.000 HD
ENDBRANCH  17  26
ENDBRANCH  16  21
ENDBRANCH   1  16
TORSDOF 5
ENDMDL
MODEL 7
REMARK VINA RESULT:    -6.350      4.063      5.692
REMARK INTER + INTRA:          -9.274
REMARK INTER:                  -8.057
REMARK INTRA:                  -1.217
REMARK UNBOUND:                -1.068
REMARK  Name = 
REMARK  5 active torsions:
REMARK  status: ('A' for Active; 'I' for Inactive)
REMARK    1  A    between atoms: C_2  and  C_4
REMARK    2  A    between atoms: N_8  and  C_9
REMARK    3  A    between atoms: C_9  and  C_10
REMARK    4  A    between atoms: C_10  and  C_13
REMARK    5  A    between atoms: C_16  and  N_17
REMARK                            x       y       z     vdW  Elec       q    Type
REMARK                         _______ _______ _______ _____ _____    ______ ____
ROOT
ATOM      1  C   UNL     1      47.463   8.835  13.107  0.00  0.00    +0.000 C 
ATOM      2  F   UNL     1      47.998   8.561  11.879  0.00  0.00    +0.000 F 
ATOM      3  F   UNL     1      47.879  10.103  13.404  0.00  0.00    +0.000 F 
ENDROOT
BRANCH   1   4
ATOM      4  C   UNL     1      47.921   7.841  14.159  0.00  0.00    +0.000 A 
ATOM      5  C   UNL     1      48.462   8.271  15.372  0.00  0.00    +0.000 A 
ATOM      6  C   UNL     1      48.853   7.343  16.350  0.00  0.00    +0.000 A 
ATOM      7  C   UNL     1      48.729   5.959  16.158  0.00  0.00    +0.000 A 
ATOM      8  C   UNL     1      48.193   5.547  14.929  0.00  0.00    +0.000 A 
ATOM      9  C   UNL     1      47.798   6.463  13.946  0.00  0.00    +0.000 A 
BRANCH   7  10
ATOM     10  N   UNL     1      49.089   5.047  17.135  0.00  0.00    +0.000 N 
ATOM     11  C   UNL     1      50.378   5.112  17.826  0.00  0.00    +0.000 C 
ATOM     12  C   UNL     1      51.213   3.883  17.479  0.00  0.00    +0.000 C 
ATOM     13  C   UNL     1      50.443   2.595  17.775  0.00  0.00    +0.000 C 
ATOM     14  C   UNL     1      49.079   2.601  17.084  0.00  0.00    +0.000 C 
ATOM     15  C   UNL     1      48.275   3.861  17.412  0.00  0.00    +0.000 C 
ENDBRANCH   7  10
ENDBRANCH   1   4
BRANCH   1  16
ATOM     16  C   UNL     1      45.916   8.840  12.967  0.00  0.00    +0.000 C 
BRANCH  16  21
ATOM     17  C   UNL     1      44.312   4.270  11.309  0.00  0.00    +0.000 A 
ATOM     18  C   UNL     1      44.088   4.905  12.524  0.00  0.00    +0.000 A 
ATOM     19  C   UNL     1      44.497   6.230  12.690  0.00  0.00    +0.000 A 
ATOM     20  C   UNL     1      45.123   6.898  11.642  0.00  0.00    +0.000 A 
ATOM     21  N   UNL     1      45.454   8.238  11.705  0.00  0.00    +0.000 N 
ATOM     22  N   UNL     1      45.370   6.285  10.468  0.00  0.00    +0.000 NA
ATOM     23  C   UNL     1      44.975   4.989  10.325  0.00  0.00    +0.000 A 
ATOM     24  H   UNL     1      45.981   8.497  10.872  0.00  0.00    +0.000 HD
BRANCH  17  26
ATOM     25  N   UNL     1      44.533   2.212  10.042  0.00  0.00    +0.000 N 
ATOM     26  C   UNL     1      43.885   2.881  11.045  0.00  0.00    +0.000 C 
ATOM     27  O   UNL     1      43.013   2.340  11.710  0.00  0.00    +0.000 OA
ATOM     28  H   UNL     1      44.303   1.231   9.931  0.00  0.00    +0.000 HD
ATOM     29  H   UNL     1      45.408   2.529   9.652  0.00  0.00    +0.000 HD
ENDBRANCH  17  26
ENDBRANCH  16  21
ENDBRANCH   1  16
TORSDOF 5
ENDMDL
