MODEL 1
REMARK VINA RESULT:    -9.125      0.000      0.000
REMARK INTER + INTRA:         -12.363
REMARK INTER:                 -11.793
REMARK INTRA:                  -0.571
REMARK UNBOUND:                -0.571
REMARK  Name = 
REMARK  5 active torsions:
REMARK  status: ('A' for Active; 'I' for Inactive)
REMARK    1  A    between atoms: C_2  and  C_4
REMARK    2  A    between atoms: C_7  and  O_8
REMARK    3  A    between atoms: O_8  and  C_9
REMARK    4  A    between atoms: C_9  and  C_10
REMARK    5  A    between atoms: C_14  and  C_15
REMARK                            x       y       z     vdW  Elec       q    Type
REMARK                         _______ _______ _______ _____ _____    ______ ____
ROOT
ATOM      1  C   UNL     1      43.981   4.865  11.474  0.00  0.00    +0.000 C 
ATOM      2  C   UNL     1      42.708   4.953  12.303  0.00  0.00    +0.000 C 
ATOM      3  C   UNL     1      42.966   5.962  11.235  0.00  0.00    +0.000 C 
ENDROOT
BRANCH   1   4
ATOM      4  C   UNL     1      45.317   5.193  12.121  0.00  0.00    +0.000 A 
ATOM      5  C   UNL     1      46.110   6.254  11.664  0.00  0.00    +0.000 A 
ATOM      6  C   UNL     1      47.277   6.628  12.334  0.00  0.00    +0.000 A 
ATOM      7  C   UNL     1      47.672   5.945  13.485  0.00  0.00    +0.000 A 
ATOM      8  C   UNL     1      46.930   4.861  13.979  0.00  0.00    +0.000 A 
ATOM      9  C   UNL     1      45.770   4.499  13.261  0.00  0.00    +0.000 A 
BRANCH   8  10
ATOM     10  C   UNL     1      47.306   4.153  15.220  0.00  0.00    +0.000 A 
ATOM     11  N   UNL     1      47.861   2.929  15.111  0.00  0.00    +0.000 NA
ATOM     12  C   UNL     1      48.260   2.345  16.256  0.00  0.00    +0.000 A 
ATOM     13  C   UNL     1      48.118   2.923  17.495  0.00  0.00    +0.000 A 
ATOM     14  C   UNL     1      47.532   4.164  17.503  0.00  0.00    +0.000 A 
ATOM     15  N   UNL     1      47.122   4.800  16.391  0.00  0.00    +0.000 NA
ENDBRANCH   8  10
ENDBRANCH   1   4
BRANCH   1  16
ATOM     16  O   UNL     1      43.941   3.667  10.666  0.00  0.00    +0.000 OA
BRANCH  16  20
ATOM     17  C   UNL     1      46.421   2.767   7.581  0.00  0.00    +0.000 A 
ATOM     18  N   UNL     1      46.116   4.088   7.702  0.00  0.00    +0.000 NA
ATOM     19  C   UNL     1      45.312   4.406   8.753  0.00  0.00    +0.000 A 
ATOM     20  C   UNL     1      44.805   3.483   9.636  0.00  0.00    +0.000 A 
ATOM     21  C   UNL     1      45.202   2.180   9.407  0.00  0.00    +0.000 A 
ATOM     22  N   UNL     1      46.003   1.786   8.397  0.00  0.00    +0.000 NA
BRANCH  17  24
ATOM     23  N   UNL     1      47.215   3.205   5.308  0.00  0.00    +0.000 N 
ATOM     24  C   UNL     1      47.263   2.361   6.393  0.00  0.00    +0.000 C 
ATOM     25  O   UNL     1      47.952   1.347   6.355  0.00  0.00    +0.000 OA
ATOM     26  H   UNL     1      47.744   2.966   4.483  0.00  0.00    +0.000 HD
ATOM     27  H   UNL     1      46.637   4.036   5.333  0.00  0.00    +0.000 HD
ENDBRANCH  17  24
ENDBRANCH  16  20
ENDBRANCH   1  16
TORSDOF 5
ENDMDL
MODEL 2
REMARK VINA RESULT:    -8.514      2.107      3.559
REMARK INTER + INTRA:         -11.573
REMARK INTER:                 -10.703
REMARK INTRA:                  -0.870
REMARK UNBOUND:                -0.571
REMARK  Name = 
REMARK  5 active torsions:
REMARK  status: ('A' for Active; 'I' for Inactive)
REMARK    1  A    between atoms: C_2  and  C_4
REMARK    2  A    between atoms: C_7  and  O_8
REMARK    3  A    between atoms: O_8  and  C_9
REMARK    4  A    between atoms: C_9  and  C_10
REMARK    5  A    between atoms: C_14  and  C_15
REMARK                            x       y       z     vdW  Elec       q    Type
REMARK                         _______ _______ _______ _____ _____    ______ ____
ROOT
ATOM      1  C   UNL     1      43.836   4.915  11.349  0.00  0.00    +0.000 C 
ATOM      2  C   UNL     1      42.498   5.084  12.055  0.00  0.00    +0.000 C 
ATOM      3  C   UNL     1      42.951   6.111  11.071  0.00  0.00    +0.000 C 
ENDROOT
BRANCH   1   4
ATOM      4  C   UNL     1      45.122   5.089  12.141  0.00  0.00    +0.000 A 
ATOM      5  C   UNL     1      45.573   4.103  13.029  0.00  0.00    +0.000 A 
ATOM      6  C   UNL     1      46.812   4.211  13.663  0.00  0.00    +0.000 A 
ATOM      7  C   UNL     1      47.632   5.313  13.416  0.00  0.00    +0.000 A 
ATOM      8  C   UNL     1      47.225   6.342  12.552  0.00  0.00    +0.000 A 
ATOM      9  C   UNL     1      45.957   6.208  11.948  0.00  0.00    +0.000 A 
BRANCH   8  10
ATOM     10  C   UNL     1      48.095   7.496  12.242  0.00  0.00    +0.000 A 
ATOM     11  N   UNL     1      49.410   7.267  12.051  0.00  0.00    +0.000 NA
ATOM     12  C   UNL     1      50.160   8.327  11.696  0.00  0.00    +0.000 A 
ATOM     13  C   UNL     1      49.657   9.595  11.535  0.00  0.00    +0.000 A 
ATOM     14  C   UNL     1      48.309   9.729  11.763  0.00  0.00    +0.000 A 
ATOM     15  N   UNL     1      47.509   8.705  12.111  0.00  0.00    +0.000 NA
ENDBRANCH   8  10
ENDBRANCH   1   4
BRANCH   1  16
ATOM     16  O   UNL     1      43.773   3.763  10.480  0.00  0.00    +0.000 OA
BRANCH  16  20
ATOM     17  C   UNL     1      46.457   2.797   7.591  0.00  0.00    +0.000 A 
ATOM     18  N   UNL     1      46.146   4.120   7.664  0.00  0.00    +0.000 NA
ATOM     19  C   UNL     1      45.273   4.461   8.650  0.00  0.00    +0.000 A 
ATOM     20  C   UNL     1      44.705   3.556   9.515  0.00  0.00    +0.000 A 
ATOM     21  C   UNL     1      45.115   2.249   9.341  0.00  0.00    +0.000 A 
ATOM     22  N   UNL     1      45.982   1.833   8.397  0.00  0.00    +0.000 NA
BRANCH  17  24
ATOM     23  N   UNL     1      47.223   3.032   5.279  0.00  0.00    +0.000 N 
ATOM     24  C   UNL     1      47.377   2.366   6.472  0.00  0.00    +0.000 C 
ATOM     25  O   UNL     1      48.215   1.476   6.577  0.00  0.00    +0.000 OA
ATOM     26  H   UNL     1      47.800   2.767   4.496  0.00  0.00    +0.000 HD
ATOM     27  H   UNL     1      46.523   3.758   5.187  0.00  0.00    +0.000 HD
ENDBRANCH  17  24
ENDBRANCH  16  20
ENDBRANCH   1  16
TORSDOF 5
ENDMDL
MODEL 3
REMARK VINA RESULT:    -8.062      2.444      7.497
REMARK INTER + INTRA:         -10.989
REMARK INTER:                 -10.420
REMARK INTRA:                  -0.569
REMARK UNBOUND:                -0.571
REMARK  Name = 
REMARK  5 active torsions:
REMARK  status: ('A' for Active; 'I' for Inactive)
REMARK    1  A    between atoms: C_2  and  C_4
REMARK    2  A    between atoms: C_7  and  O_8
REMARK    3  A    between atoms: O_8  and  C_9
REMARK    4  A    between atoms: C_9  and  C_10
REMARK    5  A    between atoms: C_14  and  C_15
REMARK                            x       y       z     vdW  Elec       q    Type
REMARK                         _______ _______ _______ _____ _____    ______ ____
ROOT
ATOM      1  C   UNL     1      46.209   7.264  12.385  0.00  0.00    +0.000 C 
ATOM      2  C   UNL     1      46.434   8.643  11.784  0.00  0.00    +0.000 C 
ATOM      3  C   UNL     1      45.612   8.501  13.021  0.00  0.00    +0.000 C 
ENDROOT
BRANCH   1   4
ATOM      4  C   UNL     1      45.311   6.273  11.662  0.00  0.00    +0.000 A 
ATOM      5  C   UNL     1      43.925   6.250  11.876  0.00  0.00    +0.000 A 
ATOM      6  C   UNL     1      43.089   5.423  11.124  0.00  0.00    +0.000 A 
ATOM      7  C   UNL     1      43.626   4.600  10.133  0.00  0.00    +0.000 A 
ATOM      8  C   UNL     1      45.007   4.565   9.887  0.00  0.00    +0.000 A 
ATOM      9  C   UNL     1      45.822   5.398  10.683  0.00  0.00    +0.000 A 
BRANCH   8  10
ATOM     10  C   UNL     1      45.592   3.735   8.813  0.00  0.00    +0.000 A 
ATOM     11  N   UNL     1      46.114   4.360   7.739  0.00  0.00    +0.000 NA
ATOM     12  C   UNL     1      46.705   3.578   6.816  0.00  0.00    +0.000 A 
ATOM     13  C   UNL     1      46.786   2.211   6.915  0.00  0.00    +0.000 A 
ATOM     14  C   UNL     1      46.215   1.666   8.039  0.00  0.00    +0.000 A 
ATOM     15  N   UNL     1      45.619   2.397   8.999  0.00  0.00    +0.000 NA
ENDBRANCH   8  10
ENDBRANCH   1   4
BRANCH   1  16
ATOM     16  O   UNL     1      47.466   6.746  12.873  0.00  0.00    +0.000 OA
BRANCH  16  20
ATOM     17  C   UNL     1      47.750   4.445  16.206  0.00  0.00    +0.000 A 
ATOM     18  N   UNL     1      46.871   3.991  15.271  0.00  0.00    +0.000 NA
ATOM     19  C   UNL     1      46.791   4.736  14.135  0.00  0.00    +0.000 A 
ATOM     20  C   UNL     1      47.515   5.885  13.921  0.00  0.00    +0.000 A 
ATOM     21  C   UNL     1      48.379   6.227  14.943  0.00  0.00    +0.000 A 
ATOM     22  N   UNL     1      48.522   5.537  16.092  0.00  0.00    +0.000 NA
BRANCH  17  24
ATOM     23  N   UNL     1      46.845   2.737  17.707  0.00  0.00    +0.000 N 
ATOM     24  C   UNL     1      47.826   3.681  17.508  0.00  0.00    +0.000 C 
ATOM     25  O   UNL     1      48.685   3.866  18.362  0.00  0.00    +0.000 OA
ATOM     26  H   UNL     1      46.841   2.215  18.570  0.00  0.00    +0.000 HD
ATOM     27  H   UNL     1      46.127   2.592  17.008  0.00  0.00    +0.000 HD
ENDBRANCH  17  24
ENDBRANCH  16  20
ENDBRANCH   1  16
TORSDOF 5
ENDMDL
MODEL 4
REMARK VINA RESULT:    -7.429      2.522      7.566
REMARK INTER + INTRA:         -10.171
REMARK INTER:                  -9.562
REMARK INTRA:                  -0.609
REMARK UNBOUND:                -0.571
REMARK  Name = 
REMARK  5 active torsions:
REMARK  status: ('A' for Active; 'I' for Inactive)
REMARK    1  A    between atoms: C_2  and  C_4
REMARK    2  A    between atoms: C_7  and  O_8
REMARK    3  A    between atoms: O_8  and  C_9
REMARK    4  A    between atoms: C_9  and  C_10
REMARK    5  A    between atoms: C_14  and  C_15
REMARK                            x       y       z     vdW  Elec       q    Type
REMARK                         _______ _______ _______ _____ _____    ______ ____
ROOT
ATOM      1  C   UNL     1      46.563   7.393  12.639  0.00  0.00    +0.000 C 
ATOM      2  C   UNL     1      46.948   8.746  12.059  0.00  0.00    +0.000 C 
ATOM      3  C   UNL     1      46.117   8.681  13.297  0.00  0.00    +0.000 C 
ENDROOT
BRANCH   1   4
ATOM      4  C   UNL     1      45.553   6.526  11.903  0.00  0.00    +0.000 A 
ATOM      5  C   UNL     1      44.174   6.688  12.094  0.00  0.00    +0.000 A 
ATOM      6  C   UNL     1      43.248   5.975  11.330  0.00  0.00    +0.000 A 
ATOM      7  C   UNL     1      43.687   5.083  10.351  0.00  0.00    +0.000 A 
ATOM      8  C   UNL     1      45.056   4.864  10.128  0.00  0.00    +0.000 A 
ATOM      9  C   UNL     1      45.960   5.586  10.935  0.00  0.00    +0.000 A 
BRANCH   8  10
ATOM     10  C   UNL     1      45.543   3.958   9.067  0.00  0.00    +0.000 A 
ATOM     11  N   UNL     1      45.365   2.632   9.231  0.00  0.00    +0.000 NA
ATOM     12  C   UNL     1      45.752   1.842   8.212  0.00  0.00    +0.000 A 
ATOM     13  C   UNL     1      46.314   2.317   7.052  0.00  0.00    +0.000 A 
ATOM     14  C   UNL     1      46.465   3.680   6.984  0.00  0.00    +0.000 A 
ATOM     15  N   UNL     1      46.089   4.520   7.966  0.00  0.00    +0.000 NA
ENDBRANCH   8  10
ENDBRANCH   1   4
BRANCH   1  16
ATOM     16  O   UNL     1      47.752   6.723  13.114  0.00  0.00    +0.000 OA
BRANCH  16  20
ATOM     17  C   UNL     1      47.726   4.553  16.545  0.00  0.00    +0.000 A 
ATOM     18  N   UNL     1      48.464   5.696  16.597  0.00  0.00    +0.000 NA
ATOM     19  C   UNL     1      48.453   6.449  15.463  0.00  0.00    +0.000 A 
ATOM     20  C   UNL     1      47.776   6.099  14.319  0.00  0.00    +0.000 A 
ATOM     21  C   UNL     1      47.057   4.923  14.405  0.00  0.00    +0.000 A 
ATOM     22  N   UNL     1      47.009   4.128  15.493  0.00  0.00    +0.000 NA
BRANCH  17  24
ATOM     23  N   UNL     1      46.771   2.702  17.829  0.00  0.00    +0.000 N 
ATOM     24  C   UNL     1      47.758   3.657  17.762  0.00  0.00    +0.000 C 
ATOM     25  O   UNL     1      48.589   3.749  18.660  0.00  0.00    +0.000 OA
ATOM     26  H   UNL     1      46.738   2.093  18.633  0.00  0.00    +0.000 HD
ATOM     27  H   UNL     1      46.077   2.633  17.095  0.00  0.00    +0.000 HD
ENDBRANCH  17  24
ENDBRANCH  16  20
ENDBRANCH   1  16
TORSDOF 5
ENDMDL
MODEL 5
REMARK VINA RESULT:    -7.397      2.455      3.205
REMARK INTER + INTRA:         -10.130
REMARK INTER:                 -10.204
REMARK INTRA:                   0.074
REMARK UNBOUND:                -0.571
REMARK  Name = 
REMARK  5 active torsions:
REMARK  status: ('A' for Active; 'I' for Inactive)
REMARK    1  A    between atoms: C_2  and  C_4
REMARK    2  A    between atoms: C_7  and  O_8
REMARK    3  A    between atoms: O_8  and  C_9
REMARK    4  A    between atoms: C_9  and  C_10
REMARK    5  A    between atoms: C_14  and  C_15
REMARK                            x       y       z     vdW  Elec       q    Type
REMARK                         _______ _______ _______ _____ _____    ______ ____
ROOT
ATOM      1  C   UNL     1      44.110   4.306  11.625  0.00  0.00    +0.000 C 
ATOM      2  C   UNL     1      44.755   3.249  12.509  0.00  0.00    +0.000 C 
ATOM      3  C   UNL     1      43.416   3.799  12.870  0.00  0.00    +0.000 C 
ENDROOT
BRANCH   1   4
ATOM      4  C   UNL     1      44.692   5.711  11.599  0.00  0.00    +0.000 A 
ATOM      5  C   UNL     1      43.894   6.827  11.313  0.00  0.00    +0.000 A 
ATOM      6  C   UNL     1      44.402   8.125  11.406  0.00  0.00    +0.000 A 
ATOM      7  C   UNL     1      45.726   8.332  11.795  0.00  0.00    +0.000 A 
ATOM      8  C   UNL     1      46.578   7.252  12.075  0.00  0.00    +0.000 A 
ATOM      9  C   UNL     1      46.035   5.957  11.947  0.00  0.00    +0.000 A 
BRANCH   8  10
ATOM     10  C   UNL     1      47.970   7.450  12.532  0.00  0.00    +0.000 A 
ATOM     11  N   UNL     1      48.841   8.030  11.683  0.00  0.00    +0.000 NA
ATOM     12  C   UNL     1      50.080   8.263  12.158  0.00  0.00    +0.000 A 
ATOM     13  C   UNL     1      50.482   7.933  13.429  0.00  0.00    +0.000 A 
ATOM     14  C   UNL     1      49.526   7.336  14.214  0.00  0.00    +0.000 A 
ATOM     15  N   UNL     1      48.271   7.086  13.797  0.00  0.00    +0.000 NA
ENDBRANCH   8  10
ENDBRANCH   1   4
BRANCH   1  16
ATOM     16  O   UNL     1      43.792   3.724  10.342  0.00  0.00    +0.000 OA
BRANCH  16  20
ATOM     17  C   UNL     1      46.549   2.781   7.516  0.00  0.00    +0.000 A 
ATOM     18  N   UNL     1      46.247   4.105   7.599  0.00  0.00    +0.000 NA
ATOM     19  C   UNL     1      45.348   4.438   8.565  0.00  0.00    +0.000 A 
ATOM     20  C   UNL     1      44.749   3.525   9.401  0.00  0.00    +0.000 A 
ATOM     21  C   UNL     1      45.155   2.217   9.219  0.00  0.00    +0.000 A 
ATOM     22  N   UNL     1      46.045   1.809   8.294  0.00  0.00    +0.000 NA
BRANCH  17  24
ATOM     23  N   UNL     1      47.419   3.080   5.248  0.00  0.00    +0.000 N 
ATOM     24  C   UNL     1      47.498   2.359   6.417  0.00  0.00    +0.000 C 
ATOM     25  O   UNL     1      48.296   1.433   6.518  0.00  0.00    +0.000 OA
ATOM     26  H   UNL     1      48.018   2.823   4.478  0.00  0.00    +0.000 HD
ATOM     27  H   UNL     1      46.753   3.836   5.159  0.00  0.00    +0.000 HD
ENDBRANCH  17  24
ENDBRANCH  16  20
ENDBRANCH   1  16
TORSDOF 5
ENDMDL
MODEL 6
REMARK VINA RESULT:    -7.370      2.218      7.429
REMARK INTER + INTRA:         -10.095
REMARK INTER:                  -9.600
REMARK INTRA:                  -0.495
REMARK UNBOUND:                -0.571
REMARK  Name = 
REMARK  5 active torsions:
REMARK  status: ('A' for Active; 'I' for Inactive)
REMARK    1  A    between atoms: C_2  and  C_4
REMARK    2  A    between atoms: C_7  and  O_8
REMARK    3  A    between atoms: O_8  and  C_9
REMARK    4  A    between atoms: C_9  and  C_10
REMARK    5  A    between atoms: C_14  and  C_15
REMARK                            x       y       z     vdW  Elec       q    Type
REMARK                         _______ _______ _______ _____ _____    ______ ____
ROOT
ATOM      1  C   UNL     1      45.297   5.686  12.129  0.00  0.00    +0.000 C 
ATOM      2  C   UNL     1      44.804   7.038  11.633  0.00  0.00    +0.000 C 
ATOM      3  C   UNL     1      44.198   6.431  12.855  0.00  0.00    +0.000 C 
ENDROOT
BRANCH   1   4
ATOM      4  C   UNL     1      44.969   4.435  11.331  0.00  0.00    +0.000 A 
ATOM      5  C   UNL     1      43.891   3.608  11.678  0.00  0.00    +0.000 A 
ATOM      6  C   UNL     1      43.519   2.528  10.876  0.00  0.00    +0.000 A 
ATOM      7  C   UNL     1      44.219   2.254   9.700  0.00  0.00    +0.000 A 
ATOM      8  C   UNL     1      45.320   3.034   9.312  0.00  0.00    +0.000 A 
ATOM      9  C   UNL     1      45.679   4.103  10.160  0.00  0.00    +0.000 A 
BRANCH   8  10
ATOM     10  C   UNL     1      46.048   2.790   8.050  0.00  0.00    +0.000 A 
ATOM     11  N   UNL     1      46.630   1.587   7.874  0.00  0.00    +0.000 NA
ATOM     12  C   UNL     1      47.220   1.372   6.683  0.00  0.00    +0.000 A 
ATOM     13  C   UNL     1      47.262   2.304   5.675  0.00  0.00    +0.000 A 
ATOM     14  C   UNL     1      46.652   3.503   5.954  0.00  0.00    +0.000 A 
ATOM     15  N   UNL     1      46.040   3.771   7.121  0.00  0.00    +0.000 NA
ENDBRANCH   8  10
ENDBRANCH   1   4
BRANCH   1  16
ATOM     16  O   UNL     1      46.664   5.814  12.580  0.00  0.00    +0.000 OA
BRANCH  16  20
ATOM     17  C   UNL     1      48.009   3.621  15.720  0.00  0.00    +0.000 A 
ATOM     18  N   UNL     1      48.120   4.968  15.875  0.00  0.00    +0.000 NA
ATOM     19  C   UNL     1      47.642   5.715  14.843  0.00  0.00    +0.000 A 
ATOM     20  C   UNL     1      47.100   5.181  13.698  0.00  0.00    +0.000 A 
ATOM     21  C   UNL     1      47.036   3.801  13.674  0.00  0.00    +0.000 A 
ATOM     22  N   UNL     1      47.477   2.993  14.658  0.00  0.00    +0.000 NA
BRANCH  17  24
ATOM     23  N   UNL     1      49.324   1.672  16.398  0.00  0.00    +0.000 N 
ATOM     24  C   UNL     1      48.582   2.752  16.816  0.00  0.00    +0.000 C 
ATOM     25  O   UNL     1      48.412   2.957  18.013  0.00  0.00    +0.000 OA
ATOM     26  H   UNL     1      49.711   1.050  17.093  0.00  0.00    +0.000 HD
ATOM     27  H   UNL     1      49.455   1.494  15.410  0.00  0.00    +0.000 HD
ENDBRANCH  17  24
ENDBRANCH  16  20
ENDBRANCH   1  16
TORSDOF 5
ENDMDL
MODEL 7
REMARK VINA RESULT:    -6.817      2.923      4.635
REMARK INTER + INTRA:          -9.380
REMARK INTER:                  -8.770
REMARK INTRA:                  -0.610
REMARK UNBOUND:                -0.571
REMARK  Name = 
REMARK  5 active torsions:
REMARK  status: ('A' for Active; 'I' for Inactive)
REMARK    1  A    between atoms: C_2  and  C_4
REMARK    2  A    between atoms: C_7  and  O_8
REMARK    3  A    between atoms: O_8  and  C_9
REMARK    4  A    between atoms: C_9  and  C_10
REMARK    5  A    between atoms: C_14  and  C_15
REMARK                            x       y       z     vdW  Elec       q    Type
REMARK                         _______ _______ _______ _____ _____    ______ ____
ROOT
ATOM      1  C   UNL     1      47.544   7.968  12.985  0.00  0.00    +0.000 C 
ATOM      2  C   UNL     1      48.001   9.114  12.094  0.00  0.00    +0.000 C 
ATOM      3  C   UNL     1      48.428   7.719  11.782  0.00  0.00    +0.000 C 
ENDROOT
BRANCH   1   4
ATOM      4  C   UNL     1      48.116   7.841  14.388  0.00  0.00    +0.000 A 
ATOM      5  C   UNL     1      48.131   8.928  15.272  0.00  0.00    +0.000 A 
ATOM      6  C   UNL     1      48.546   8.780  16.597  0.00  0.00    +0.000 A 
ATOM      7  C   UNL     1      48.951   7.530  17.067  0.00  0.00    +0.000 A 
ATOM      8  C   UNL     1      48.977   6.409  16.223  0.00  0.00    +0.000 A 
ATOM      9  C   UNL     1      48.572   6.604  14.886  0.00  0.00    +0.000 A 
BRANCH   8  10
ATOM     10  C   UNL     1      49.360   5.067  16.711  0.00  0.00    +0.000 A 
ATOM     11  N   UNL     1      48.441   4.083  16.652  0.00  0.00    +0.000 NA
ATOM     12  C   UNL     1      48.847   2.857  17.034  0.00  0.00    +0.000 A 
ATOM     13  C   UNL     1      50.116   2.580  17.479  0.00  0.00    +0.000 A 
ATOM     14  C   UNL     1      50.976   3.651  17.515  0.00  0.00    +0.000 A 
ATOM     15  N   UNL     1      50.630   4.895  17.137  0.00  0.00    +0.000 NA
ENDBRANCH   8  10
ENDBRANCH   1   4
BRANCH   1  16
ATOM     16  O   UNL     1      46.113   7.811  12.863  0.00  0.00    +0.000 OA
BRANCH  16  20
ATOM     17  C   UNL     1      44.486   4.288  11.672  0.00  0.00    +0.000 A 
ATOM     18  N   UNL     1      44.973   4.292  12.943  0.00  0.00    +0.000 NA
ATOM     19  C   UNL     1      45.491   5.477  13.365  0.00  0.00    +0.000 A 
ATOM     20  C   UNL     1      45.556   6.606  12.583  0.00  0.00    +0.000 A 
ATOM     21  C   UNL     1      45.016   6.470  11.319  0.00  0.00    +0.000 A 
ATOM     22  N   UNL     1      44.476   5.335  10.831  0.00  0.00    +0.000 NA
BRANCH  17  24
ATOM     23  N   UNL     1      44.658   2.424  10.096  0.00  0.00    +0.000 N 
ATOM     24  C   UNL     1      43.956   2.975  11.142  0.00  0.00    +0.000 C 
ATOM     25  O   UNL     1      42.961   2.410  11.582  0.00  0.00    +0.000 OA
ATOM     26  H   UNL     1      44.331   1.558   9.694  0.00  0.00    +0.000 HD
ATOM     27  H   UNL     1      45.473   2.896   9.723  0.00  0.00    +0.000 HD
ENDBRANCH  17  24
ENDBRANCH  16  20
ENDBRANCH   1  16
TORSDOF 5
ENDMDL
MODEL 8
REMARK VINA RESULT:    -6.662      2.670      7.321
REMARK INTER + INTRA:          -9.180
REMARK INTER:                  -8.594
REMARK INTRA:                  -0.586
REMARK UNBOUND:                -0.571
REMARK  Name = 
REMARK  5 active torsions:
REMARK  status: ('A' for Active; 'I' for Inactive)
REMARK    1  A    between atoms: C_2  and  C_4
REMARK    2  A    between atoms: C_7  and  O_8
REMARK    3  A    between atoms: O_8  and  C_9
REMARK    4  A    between atoms: C_9  and  C_10
REMARK    5  A    between atoms: C_14  and  C_15
REMARK                            x       y       z     vdW  Elec       q    Type
REMARK                         _______ _______ _______ _____ _____    ______ ____
ROOT
ATOM      1  C   UNL     1      44.298   5.752  11.466  0.00  0.00    +0.000 C 
ATOM      2  C   UNL     1      43.027   6.561  11.251  0.00  0.00    +0.000 C 
ATOM      3  C   UNL     1      43.321   5.989  12.597  0.00  0.00    +0.000 C 
ENDROOT
BRANCH   1   4
ATOM      4  C   UNL     1      44.418   4.371  10.842  0.00  0.00    +0.000 A 
ATOM      5  C   UNL     1      43.626   3.300  11.280  0.00  0.00    +0.000 A 
ATOM      6  C   UNL     1      43.652   2.066  10.628  0.00  0.00    +0.000 A 
ATOM      7  C   UNL     1      44.472   1.880   9.513  0.00  0.00    +0.000 A 
ATOM      8  C   UNL     1      45.301   2.909   9.041  0.00  0.00    +0.000 A 
ATOM      9  C   UNL     1      45.264   4.134   9.741  0.00  0.00    +0.000 A 
BRANCH   8  10
ATOM     10  C   UNL     1      46.144   2.748   7.838  0.00  0.00    +0.000 A 
ATOM     11  N   UNL     1      46.827   1.596   7.689  0.00  0.00    +0.000 NA
ATOM     12  C   UNL     1      47.524   1.453   6.546  0.00  0.00    +0.000 A 
ATOM     13  C   UNL     1      47.574   2.408   5.560  0.00  0.00    +0.000 A 
ATOM     14  C   UNL     1      46.855   3.551   5.809  0.00  0.00    +0.000 A 
ATOM     15  N   UNL     1      46.133   3.746   6.928  0.00  0.00    +0.000 NA
ENDBRANCH   8  10
ENDBRANCH   1   4
BRANCH   1  16
ATOM     16  O   UNL     1      45.445   6.619  11.320  0.00  0.00    +0.000 OA
BRANCH  16  20
ATOM     17  C   UNL     1      48.260   6.811  14.239  0.00  0.00    +0.000 A 
ATOM     18  N   UNL     1      47.682   8.002  13.923  0.00  0.00    +0.000 NA
ATOM     19  C   UNL     1      46.713   7.945  12.968  0.00  0.00    +0.000 A 
ATOM     20  C   UNL     1      46.335   6.788  12.330  0.00  0.00    +0.000 A 
ATOM     21  C   UNL     1      46.991   5.649  12.754  0.00  0.00    +0.000 A 
ATOM     22  N   UNL     1      47.952   5.621  13.698  0.00  0.00    +0.000 NA
BRANCH  17  24
ATOM     23  N   UNL     1      50.199   7.943  15.211  0.00  0.00    +0.000 N 
ATOM     24  C   UNL     1      49.382   6.837  15.251  0.00  0.00    +0.000 C 
ATOM     25  O   UNL     1      49.591   5.945  16.066  0.00  0.00    +0.000 OA
ATOM     26  H   UNL     1      50.975   7.997  15.853  0.00  0.00    +0.000 HD
ATOM     27  H   UNL     1      50.035   8.674  14.530  0.00  0.00    +0.000 HD
ENDBRANCH  17  24
ENDBRANCH  16  20
ENDBRANCH   1  16
TORSDOF 5
ENDMDL
