MODEL 1
REMARK VINA RESULT:    -9.128      0.000      0.000
REMARK INTER + INTRA:         -11.604
REMARK INTER:                 -11.263
REMARK INTRA:                  -0.342
REMARK UNBOUND:                -0.342
REMARK  Name = 
REMARK  6 active torsions:
REMARK  status: ('A' for Active; 'I' for Inactive)
REMARK    1  A    between atoms: C_1  and  C_2
REMARK    2  A    between atoms: N_4  and  C_5
REMARK    3  A    between atoms: C_10  and  C_11
REMARK    4  A    between atoms: C_11  and  N_12
REMARK    5  A    between atoms: C_16  and  C_17
REMARK    6  A    between atoms: C_26  and  C_27
REMARK                            x       y       z     vdW  Elec       q    Type
REMARK                         _______ _______ _______ _____ _____    ______ ____
ROOT
ATOM      1  C   UNL     1      46.984   6.851  13.217  0.00  0.00    +0.000 A 
ATOM      2  C   UNL     1      47.365   5.779  14.029  0.00  0.00    +0.000 A 
ATOM      3  C   UNL     1      46.745   4.536  13.916  0.00  0.00    +0.000 A 
ATOM      4 CL   UNL     1      47.221   3.251  14.959  0.00  0.00    +0.000 Cl
ATOM      5  C   UNL     1      45.729   4.333  12.994  0.00  0.00    +0.000 A 
ATOM      6  C   UNL     1      45.266   5.381  12.195  0.00  0.00    +0.000 A 
ATOM      7  C   UNL     1      45.927   6.621  12.320  0.00  0.00    +0.000 A 
ENDROOT
BRANCH   1  11
ATOM      8  C   UNL     1      50.183   8.008  11.538  0.00  0.00    +0.000 C 
ATOM      9  C   UNL     1      49.869   8.938  12.715  0.00  0.00    +0.000 C 
ATOM     10  C   UNL     1      48.995   8.230  13.781  0.00  0.00    +0.000 C 
ATOM     11  N   UNL     1      47.612   8.078  13.311  0.00  0.00    +0.000 N 
ATOM     12  C   UNL     1      46.976   9.305  12.806  0.00  0.00    +0.000 C 
ATOM     13  C   UNL     1      47.892  10.008  11.766  0.00  0.00    +0.000 C 
ATOM     14  C   UNL     1      47.295  11.358  11.369  0.00  0.00    +0.000 C 
ATOM     15  N   UNL     1      49.280  10.220  12.249  0.00  0.00    +0.000 NA
ATOM     16  H   UNL     1      49.231  10.844  13.057  0.00  0.00    +0.000 HD
ENDBRANCH   1  11
BRANCH   6  17
ATOM     17  C   UNL     1      44.073   5.187  11.260  0.00  0.00    +0.000 C 
ATOM     18  C   UNL     1      42.695   5.573  11.759  0.00  0.00    +0.000 C 
ATOM     19  C   UNL     1      43.046   4.127  11.684  0.00  0.00    +0.000 C 
BRANCH  17  20
ATOM     20  N   UNL     1      44.416   5.138   9.843  0.00  0.00    +0.000 N 
ATOM     21  C   UNL     1      45.098   4.152   9.148  0.00  0.00    +0.000 A 
ATOM     22  C   UNL     1      45.220   2.831   9.537  0.00  0.00    +0.000 A 
ATOM     23  C   UNL     1      45.929   1.936   8.720  0.00  0.00    +0.000 A 
ATOM     24  C   UNL     1      46.495   2.385   7.529  0.00  0.00    +0.000 A 
ATOM     25  C   UNL     1      46.296   3.714   7.207  0.00  0.00    +0.000 A 
ATOM     26  N   UNL     1      45.625   4.596   7.989  0.00  0.00    +0.000 NA
ATOM     27  H   UNL     1      44.577   6.014   9.349  0.00  0.00    +0.000 HD
BRANCH  24  28
ATOM     28  C   UNL     1      47.258   1.447   6.673  0.00  0.00    +0.000 C 
ATOM     29  N   UNL     1      48.222   1.947   5.836  0.00  0.00    +0.000 N 
ATOM     30  O   UNL     1      47.055   0.246   6.714  0.00  0.00    +0.000 OA
ATOM     31  H   UNL     1      48.487   2.914   5.737  0.00  0.00    +0.000 HD
ATOM     32  H   UNL     1      48.729   1.268   5.280  0.00  0.00    +0.000 HD
ENDBRANCH  24  28
ENDBRANCH  17  20
ENDBRANCH   6  17
TORSDOF 4
ENDMDL
MODEL 2
REMARK VINA RESULT:    -8.872      2.338      3.631
REMARK INTER + INTRA:         -11.288
REMARK INTER:                 -11.363
REMARK INTRA:                   0.074
REMARK UNBOUND:                -0.342
REMARK  Name = 
REMARK  6 active torsions:
REMARK  status: ('A' for Active; 'I' for Inactive)
REMARK    1  A    between atoms: C_1  and  C_2
REMARK    2  A    between atoms: N_4  and  C_5
REMARK    3  A    between atoms: C_10  and  C_11
REMARK    4  A    between atoms: C_11  and  N_12
REMARK    5  A    between atoms: C_16  and  C_17
REMARK    6  A    between atoms: C_26  and  C_27
REMARK                            x       y       z     vdW  Elec       q    Type
REMARK                         _______ _______ _______ _____ _____    ______ ____
ROOT
ATOM      1  C   UNL     1      46.733   6.529  13.263  0.00  0.00    +0.000 A 
ATOM      2  C   UNL     1      46.695   7.910  13.063  0.00  0.00    +0.000 A 
ATOM      3  C   UNL     1      45.684   8.499  12.303  0.00  0.00    +0.000 A 
ATOM      4 CL   UNL     1      45.694  10.203  12.052  0.00  0.00    +0.000 Cl
ATOM      5  C   UNL     1      44.692   7.724  11.724  0.00  0.00    +0.000 A 
ATOM      6  C   UNL     1      44.710   6.331  11.841  0.00  0.00    +0.000 A 
ATOM      7  C   UNL     1      45.734   5.769  12.632  0.00  0.00    +0.000 A 
ENDROOT
BRANCH   1  11
ATOM      8  C   UNL     1      48.455   7.909  16.349  0.00  0.00    +0.000 C 
ATOM      9  C   UNL     1      49.299   6.768  15.772  0.00  0.00    +0.000 C 
ATOM     10  C   UNL     1      49.029   6.572  14.258  0.00  0.00    +0.000 C 
ATOM     11  N   UNL     1      47.720   5.945  14.034  0.00  0.00    +0.000 N 
ATOM     12  C   UNL     1      47.467   4.715  14.801  0.00  0.00    +0.000 C 
ATOM     13  C   UNL     1      47.779   4.935  16.308  0.00  0.00    +0.000 C 
ATOM     14  C   UNL     1      47.666   3.612  17.066  0.00  0.00    +0.000 C 
ATOM     15  N   UNL     1      49.123   5.516  16.553  0.00  0.00    +0.000 NA
ATOM     16  H   UNL     1      49.813   4.844  16.212  0.00  0.00    +0.000 HD
ENDBRANCH   1  11
BRANCH   6  17
ATOM     17  C   UNL     1      43.682   5.469  11.110  0.00  0.00    +0.000 C 
ATOM     18  C   UNL     1      42.258   5.447  11.630  0.00  0.00    +0.000 C 
ATOM     19  C   UNL     1      43.130   4.267  11.888  0.00  0.00    +0.000 C 
BRANCH  17  20
ATOM     20  N   UNL     1      44.023   5.165   9.724  0.00  0.00    +0.000 N 
ATOM     21  C   UNL     1      44.745   4.093   9.223  0.00  0.00    +0.000 A 
ATOM     22  C   UNL     1      44.926   2.878   9.855  0.00  0.00    +0.000 A 
ATOM     23  C   UNL     1      45.671   1.874   9.217  0.00  0.00    +0.000 A 
ATOM     24  C   UNL     1      46.214   2.111   7.956  0.00  0.00    +0.000 A 
ATOM     25  C   UNL     1      45.956   3.343   7.388  0.00  0.00    +0.000 A 
ATOM     26  N   UNL     1      45.250   4.330   7.995  0.00  0.00    +0.000 NA
ATOM     27  H   UNL     1      44.144   5.936   9.071  0.00  0.00    +0.000 HD
BRANCH  24  28
ATOM     28  C   UNL     1      47.015   1.059   7.286  0.00  0.00    +0.000 C 
ATOM     29  N   UNL     1      46.796  -0.253   7.616  0.00  0.00    +0.000 N 
ATOM     30  O   UNL     1      47.847   1.340   6.441  0.00  0.00    +0.000 OA
ATOM     31  H   UNL     1      46.122  -0.600   8.281  0.00  0.00    +0.000 HD
ATOM     32  H   UNL     1      47.355  -0.939   7.123  0.00  0.00    +0.000 HD
ENDBRANCH  24  28
ENDBRANCH  17  20
ENDBRANCH   6  17
TORSDOF 4
ENDMDL
MODEL 3
REMARK VINA RESULT:    -8.667      2.374      3.709
REMARK INTER + INTRA:         -11.035
REMARK INTER:                 -10.006
REMARK INTRA:                  -1.029
REMARK UNBOUND:                -0.342
REMARK  Name = 
REMARK  6 active torsions:
REMARK  status: ('A' for Active; 'I' for Inactive)
REMARK    1  A    between atoms: C_1  and  C_2
REMARK    2  A    between atoms: N_4  and  C_5
REMARK    3  A    between atoms: C_10  and  C_11
REMARK    4  A    between atoms: C_11  and  N_12
REMARK    5  A    between atoms: C_16  and  C_17
REMARK    6  A    between atoms: C_26  and  C_27
REMARK                            x       y       z     vdW  Elec       q    Type
REMARK                         _______ _______ _______ _____ _____    ______ ____
ROOT
ATOM      1  C   UNL     1      47.099   6.716  13.614  0.00  0.00    +0.000 A 
ATOM      2  C   UNL     1      47.051   8.037  13.162  0.00  0.00    +0.000 A 
ATOM      3  C   UNL     1      46.025   8.474  12.326  0.00  0.00    +0.000 A 
ATOM      4 CL   UNL     1      46.023  10.102  11.764  0.00  0.00    +0.000 Cl
ATOM      5  C   UNL     1      45.024   7.605  11.920  0.00  0.00    +0.000 A 
ATOM      6  C   UNL     1      45.049   6.258  12.293  0.00  0.00    +0.000 A 
ATOM      7  C   UNL     1      46.091   5.852  13.154  0.00  0.00    +0.000 A 
ENDROOT
BRANCH   1  11
ATOM      8  C   UNL     1      48.598   8.498  16.609  0.00  0.00    +0.000 C 
ATOM      9  C   UNL     1      49.549   7.385  16.160  0.00  0.00    +0.000 C 
ATOM     10  C   UNL     1      49.349   7.036  14.663  0.00  0.00    +0.000 C 
ATOM     11  N   UNL     1      48.103   6.286  14.460  0.00  0.00    +0.000 N 
ATOM     12  C   UNL     1      47.923   5.110  15.327  0.00  0.00    +0.000 C 
ATOM     13  C   UNL     1      48.165   5.486  16.816  0.00  0.00    +0.000 C 
ATOM     14  C   UNL     1      48.132   4.229  17.686  0.00  0.00    +0.000 C 
ATOM     15  N   UNL     1      49.448   6.196  17.044  0.00  0.00    +0.000 NA
ATOM     16  H   UNL     1      50.202   5.557  16.783  0.00  0.00    +0.000 HD
ENDBRANCH   1  11
BRANCH   6  17
ATOM     17  C   UNL     1      44.011   5.276  11.754  0.00  0.00    +0.000 C 
ATOM     18  C   UNL     1      42.676   5.821  11.286  0.00  0.00    +0.000 C 
ATOM     19  C   UNL     1      42.736   5.110  12.594  0.00  0.00    +0.000 C 
BRANCH  17  20
ATOM     20  N   UNL     1      44.564   4.014  11.272  0.00  0.00    +0.000 N 
ATOM     21  C   UNL     1      45.130   3.730  10.039  0.00  0.00    +0.000 A 
ATOM     22  C   UNL     1      45.682   4.655   9.174  0.00  0.00    +0.000 A 
ATOM     23  C   UNL     1      46.239   4.218   7.962  0.00  0.00    +0.000 A 
ATOM     24  C   UNL     1      46.234   2.861   7.648  0.00  0.00    +0.000 A 
ATOM     25  C   UNL     1      45.688   2.006   8.586  0.00  0.00    +0.000 A 
ATOM     26  N   UNL     1      45.135   2.411   9.757  0.00  0.00    +0.000 NA
ATOM     27  H   UNL     1      44.175   3.144  11.628  0.00  0.00    +0.000 HD
BRANCH  24  28
ATOM     28  C   UNL     1      46.805   2.397   6.361  0.00  0.00    +0.000 C 
ATOM     29  N   UNL     1      46.965   3.300   5.343  0.00  0.00    +0.000 N 
ATOM     30  O   UNL     1      47.148   1.238   6.203  0.00  0.00    +0.000 OA
ATOM     31  H   UNL     1      46.738   4.282   5.370  0.00  0.00    +0.000 HD
ATOM     32  H   UNL     1      47.374   2.943   4.487  0.00  0.00    +0.000 HD
ENDBRANCH  24  28
ENDBRANCH  17  20
ENDBRANCH   6  17
TORSDOF 4
ENDMDL
MODEL 4
REMARK VINA RESULT:    -8.122      2.254      2.866
REMARK INTER + INTRA:         -10.363
REMARK INTER:                  -9.402
REMARK INTRA:                  -0.961
REMARK UNBOUND:                -0.342
REMARK  Name = 
REMARK  6 active torsions:
REMARK  status: ('A' for Active; 'I' for Inactive)
REMARK    1  A    between atoms: C_1  and  C_2
REMARK    2  A    between atoms: N_4  and  C_5
REMARK    3  A    between atoms: C_10  and  C_11
REMARK    4  A    between atoms: C_11  and  N_12
REMARK    5  A    between atoms: C_16  and  C_17
REMARK    6  A    between atoms: C_26  and  C_27
REMARK                            x       y       z     vdW  Elec       q    Type
REMARK                         _______ _______ _______ _____ _____    ______ ____
ROOT
ATOM      1  C   UNL     1      46.734   7.558  12.703  0.00  0.00    +0.000 A 
ATOM      2  C   UNL     1      46.304   8.733  12.084  0.00  0.00    +0.000 A 
ATOM      3  C   UNL     1      45.068   8.798  11.443  0.00  0.00    +0.000 A 
ATOM      4 CL   UNL     1      44.591  10.257  10.662  0.00  0.00    +0.000 Cl
ATOM      5  C   UNL     1      44.233   7.692  11.402  0.00  0.00    +0.000 A 
ATOM      6  C   UNL     1      44.633   6.471  11.953  0.00  0.00    +0.000 A 
ATOM      7  C   UNL     1      45.881   6.445  12.611  0.00  0.00    +0.000 A 
ENDROOT
BRANCH   1  11
ATOM      8  C   UNL     1      50.119   8.813  11.535  0.00  0.00    +0.000 C 
ATOM      9  C   UNL     1      50.321   7.810  12.676  0.00  0.00    +0.000 C 
ATOM     10  C   UNL     1      49.127   6.829  12.789  0.00  0.00    +0.000 C 
ATOM     11  N   UNL     1      47.949   7.497  13.358  0.00  0.00    +0.000 N 
ATOM     12  C   UNL     1      48.181   8.228  14.614  0.00  0.00    +0.000 C 
ATOM     13  C   UNL     1      49.405   9.176  14.478  0.00  0.00    +0.000 C 
ATOM     14  C   UNL     1      49.731   9.808  15.831  0.00  0.00    +0.000 C 
ATOM     15  N   UNL     1      50.619   8.501  13.957  0.00  0.00    +0.000 NA
ATOM     16  H   UNL     1      50.885   7.784  14.635  0.00  0.00    +0.000 HD
ENDBRANCH   1  11
BRANCH   6  17
ATOM     17  C   UNL     1      43.764   5.223  11.810  0.00  0.00    +0.000 C 
ATOM     18  C   UNL     1      42.272   5.402  11.610  0.00  0.00    +0.000 C 
ATOM     19  C   UNL     1      42.764   4.960  12.945  0.00  0.00    +0.000 C 
BRANCH  17  20
ATOM     20  N   UNL     1      44.483   4.031  11.373  0.00  0.00    +0.000 N 
ATOM     21  C   UNL     1      45.072   3.774  10.145  0.00  0.00    +0.000 A 
ATOM     22  C   UNL     1      45.482   4.728   9.232  0.00  0.00    +0.000 A 
ATOM     23  C   UNL     1      46.083   4.318   8.032  0.00  0.00    +0.000 A 
ATOM     24  C   UNL     1      46.264   2.961   7.776  0.00  0.00    +0.000 A 
ATOM     25  C   UNL     1      45.852   2.081   8.759  0.00  0.00    +0.000 A 
ATOM     26  N   UNL     1      45.259   2.457   9.919  0.00  0.00    +0.000 NA
ATOM     27  H   UNL     1      44.223   3.132  11.772  0.00  0.00    +0.000 HD
BRANCH  24  28
ATOM     28  C   UNL     1      46.883   2.524   6.502  0.00  0.00    +0.000 C 
ATOM     29  N   UNL     1      46.965   3.416   5.465  0.00  0.00    +0.000 N 
ATOM     30  O   UNL     1      47.331   1.398   6.370  0.00  0.00    +0.000 OA
ATOM     31  H   UNL     1      46.648   4.373   5.470  0.00  0.00    +0.000 HD
ATOM     32  H   UNL     1      47.409   3.080   4.619  0.00  0.00    +0.000 HD
ENDBRANCH  24  28
ENDBRANCH  17  20
ENDBRANCH   6  17
TORSDOF 4
ENDMDL
MODEL 5
REMARK VINA RESULT:    -8.050      5.304      8.541
REMARK INTER + INTRA:         -10.274
REMARK INTER:                  -9.569
REMARK INTRA:                  -0.705
REMARK UNBOUND:                -0.342
REMARK  Name = 
REMARK  6 active torsions:
REMARK  status: ('A' for Active; 'I' for Inactive)
REMARK    1  A    between atoms: C_1  and  C_2
REMARK    2  A    between atoms: N_4  and  C_5
REMARK    3  A    between atoms: C_10  and  C_11
REMARK    4  A    between atoms: C_11  and  N_12
REMARK    5  A    between atoms: C_16  and  C_17
REMARK    6  A    between atoms: C_26  and  C_27
REMARK                            x       y       z     vdW  Elec       q    Type
REMARK                         _______ _______ _______ _____ _____    ______ ____
ROOT
ATOM      1  C   UNL     1      46.097   4.820  13.594  0.00  0.00    +0.000 A 
ATOM      2  C   UNL     1      46.721   5.927  13.016  0.00  0.00    +0.000 A 
ATOM      3  C   UNL     1      47.800   6.552  13.641  0.00  0.00    +0.000 A 
ATOM      4 CL   UNL     1      48.519   7.936  12.911  0.00  0.00    +0.000 Cl
ATOM      5  C   UNL     1      48.277   6.089  14.858  0.00  0.00    +0.000 A 
ATOM      6  C   UNL     1      47.657   5.022  15.513  0.00  0.00    +0.000 A 
ATOM      7  C   UNL     1      46.582   4.400  14.844  0.00  0.00    +0.000 A 
ENDROOT
BRANCH   1  11
ATOM      8  C   UNL     1      43.395   6.325  11.396  0.00  0.00    +0.000 C 
ATOM      9  C   UNL     1      42.937   4.946  11.883  0.00  0.00    +0.000 C 
ATOM     10  C   UNL     1      43.639   4.547  13.205  0.00  0.00    +0.000 C 
ATOM     11  N   UNL     1      45.043   4.184  12.966  0.00  0.00    +0.000 N 
ATOM     12  C   UNL     1      45.269   3.193  11.903  0.00  0.00    +0.000 C 
ATOM     13  C   UNL     1      44.523   3.604  10.603  0.00  0.00    +0.000 C 
ATOM     14  C   UNL     1      44.634   2.492   9.560  0.00  0.00    +0.000 C 
ATOM     15  N   UNL     1      43.089   3.919  10.820  0.00  0.00    +0.000 NA
ATOM     16  H   UNL     1      42.635   3.066  11.153  0.00  0.00    +0.000 HD
ENDBRANCH   1  11
BRANCH   6  17
ATOM     17  C   UNL     1      48.112   4.584  16.904  0.00  0.00    +0.000 C 
ATOM     18  C   UNL     1      47.212   3.660  17.700  0.00  0.00    +0.000 C 
ATOM     19  C   UNL     1      47.274   5.099  18.083  0.00  0.00    +0.000 C 
BRANCH  17  20
ATOM     20  N   UNL     1      49.552   4.671  17.125  0.00  0.00    +0.000 N 
ATOM     21  C   UNL     1      50.459   3.647  17.347  0.00  0.00    +0.000 A 
ATOM     22  C   UNL     1      50.286   2.325  16.986  0.00  0.00    +0.000 A 
ATOM     23  C   UNL     1      51.303   1.397  17.260  0.00  0.00    +0.000 A 
ATOM     24  C   UNL     1      52.474   1.819  17.887  0.00  0.00    +0.000 A 
ATOM     25  C   UNL     1      52.571   3.164  18.185  0.00  0.00    +0.000 A 
ATOM     26  N   UNL     1      51.594   4.073  17.939  0.00  0.00    +0.000 NA
ATOM     27  H   UNL     1      49.927   5.503  17.576  0.00  0.00    +0.000 HD
BRANCH  24  28
ATOM     28  C   UNL     1      53.543   0.839  18.194  0.00  0.00    +0.000 C 
ATOM     29  N   UNL     1      53.196  -0.461  18.455  0.00  0.00    +0.000 N 
ATOM     30  O   UNL     1      54.717   1.166  18.201  0.00  0.00    +0.000 OA
ATOM     31  H   UNL     1      52.264  -0.845  18.455  0.00  0.00    +0.000 HD
ATOM     32  H   UNL     1      53.959  -1.099  18.644  0.00  0.00    +0.000 HD
ENDBRANCH  24  28
ENDBRANCH  17  20
ENDBRANCH   6  17
TORSDOF 4
ENDMDL
MODEL 6
REMARK VINA RESULT:    -7.769      3.842      6.532
REMARK INTER + INTRA:          -9.927
REMARK INTER:                  -8.879
REMARK INTRA:                  -1.048
REMARK UNBOUND:                -0.342
REMARK  Name = 
REMARK  6 active torsions:
REMARK  status: ('A' for Active; 'I' for Inactive)
REMARK    1  A    between atoms: C_1  and  C_2
REMARK    2  A    between atoms: N_4  and  C_5
REMARK    3  A    between atoms: C_10  and  C_11
REMARK    4  A    between atoms: C_11  and  N_12
REMARK    5  A    between atoms: C_16  and  C_17
REMARK    6  A    between atoms: C_26  and  C_27
REMARK                            x       y       z     vdW  Elec       q    Type
REMARK                         _______ _______ _______ _____ _____    ______ ____
ROOT
ATOM      1  C   UNL     1      48.833   6.885  17.115  0.00  0.00    +0.000 A 
ATOM      2  C   UNL     1      48.615   8.144  17.678  0.00  0.00    +0.000 A 
ATOM      3  C   UNL     1      48.316   9.247  16.878  0.00  0.00    +0.000 A 
ATOM      4 CL   UNL     1      48.088  10.789  17.609  0.00  0.00    +0.000 Cl
ATOM      5  C   UNL     1      48.232   9.119  15.500  0.00  0.00    +0.000 A 
ATOM      6  C   UNL     1      48.497   7.898  14.875  0.00  0.00    +0.000 A 
ATOM      7  C   UNL     1      48.777   6.798  15.714  0.00  0.00    +0.000 A 
ENDROOT
BRANCH   1  11
ATOM      8  C   UNL     1      47.529   3.339  16.774  0.00  0.00    +0.000 C 
ATOM      9  C   UNL     1      48.083   3.536  18.189  0.00  0.00    +0.000 C 
ATOM     10  C   UNL     1      48.060   5.028  18.606  0.00  0.00    +0.000 C 
ATOM     11  N   UNL     1      49.107   5.785  17.907  0.00  0.00    +0.000 N 
ATOM     12  C   UNL     1      50.461   5.214  17.984  0.00  0.00    +0.000 C 
ATOM     13  C   UNL     1      50.443   3.710  17.594  0.00  0.00    +0.000 C 
ATOM     14  C   UNL     1      51.821   3.091  17.831  0.00  0.00    +0.000 C 
ATOM     15  N   UNL     1      49.428   2.920  18.335  0.00  0.00    +0.000 NA
ATOM     16  H   UNL     1      49.674   2.957  19.325  0.00  0.00    +0.000 HD
ENDBRANCH   1  11
BRANCH   6  17
ATOM     17  C   UNL     1      48.515   7.784  13.352  0.00  0.00    +0.000 C 
ATOM     18  C   UNL     1      49.789   7.314  12.678  0.00  0.00    +0.000 C 
ATOM     19  C   UNL     1      49.439   8.760  12.611  0.00  0.00    +0.000 C 
BRANCH  17  20
ATOM     20  N   UNL     1      47.198   7.643  12.740  0.00  0.00    +0.000 N 
ATOM     21  C   UNL     1      46.455   6.491  12.535  0.00  0.00    +0.000 A 
ATOM     22  C   UNL     1      46.594   5.307  13.234  0.00  0.00    +0.000 A 
ATOM     23  C   UNL     1      45.755   4.224  12.928  0.00  0.00    +0.000 A 
ATOM     24  C   UNL     1      44.793   4.354  11.929  0.00  0.00    +0.000 A 
ATOM     25  C   UNL     1      44.707   5.583  11.304  0.00  0.00    +0.000 A 
ATOM     26  N   UNL     1      45.516   6.637  11.578  0.00  0.00    +0.000 NA
ATOM     27  H   UNL     1      46.921   8.307  12.020  0.00  0.00    +0.000 HD
BRANCH  24  28
ATOM     28  C   UNL     1      43.917   3.207  11.591  0.00  0.00    +0.000 C 
ATOM     29  N   UNL     1      43.697   2.240  12.537  0.00  0.00    +0.000 N 
ATOM     30  O   UNL     1      43.382   3.121  10.499  0.00  0.00    +0.000 OA
ATOM     31  H   UNL     1      44.069   2.221  13.473  0.00  0.00    +0.000 HD
ATOM     32  H   UNL     1      43.080   1.483  12.268  0.00  0.00    +0.000 HD
ENDBRANCH  24  28
ENDBRANCH  17  20
ENDBRANCH   6  17
TORSDOF 4
ENDMDL
MODEL 7
REMARK VINA RESULT:    -7.452      3.956      6.646
REMARK INTER + INTRA:          -9.536
REMARK INTER:                  -8.842
REMARK INTRA:                  -0.694
REMARK UNBOUND:                -0.342
REMARK  Name = 
REMARK  6 active torsions:
REMARK  status: ('A' for Active; 'I' for Inactive)
REMARK    1  A    between atoms: C_1  and  C_2
REMARK    2  A    between atoms: N_4  and  C_5
REMARK    3  A    between atoms: C_10  and  C_11
REMARK    4  A    between atoms: C_11  and  N_12
REMARK    5  A    between atoms: C_16  and  C_17
REMARK    6  A    between atoms: C_26  and  C_27
REMARK                            x       y       z     vdW  Elec       q    Type
REMARK                         _______ _______ _______ _____ _____    ______ ____
ROOT
ATOM      1  C   UNL     1      49.358   6.465  16.493  0.00  0.00    +0.000 A 
ATOM      2  C   UNL     1      50.740   6.664  16.444  0.00  0.00    +0.000 A 
ATOM      3  C   UNL     1      51.330   7.361  15.390  0.00  0.00    +0.000 A 
ATOM      4 CL   UNL     1      53.040   7.553  15.351  0.00  0.00    +0.000 Cl
ATOM      5  C   UNL     1      50.556   7.873  14.360  0.00  0.00    +0.000 A 
ATOM      6  C   UNL     1      49.176   7.657  14.323  0.00  0.00    +0.000 A 
ATOM      7  C   UNL     1      48.608   6.965  15.414  0.00  0.00    +0.000 A 
ENDROOT
BRANCH   1  11
ATOM      8  C   UNL     1      49.549   2.776  17.354  0.00  0.00    +0.000 C 
ATOM      9  C   UNL     1      48.356   3.401  18.085  0.00  0.00    +0.000 C 
ATOM     10  C   UNL     1      47.844   4.669  17.355  0.00  0.00    +0.000 C 
ATOM     11  N   UNL     1      48.768   5.794  17.546  0.00  0.00    +0.000 N 
ATOM     12  C   UNL     1      49.144   6.076  18.941  0.00  0.00    +0.000 C 
ATOM     13  C   UNL     1      49.619   4.779  19.653  0.00  0.00    +0.000 C 
ATOM     14  C   UNL     1      49.853   5.052  21.139  0.00  0.00    +0.000 C 
ATOM     15  N   UNL     1      48.666   3.649  19.516  0.00  0.00    +0.000 NA
ATOM     16  H   UNL     1      47.796   3.925  19.974  0.00  0.00    +0.000 HD
ENDBRANCH   1  11
BRANCH   6  17
ATOM     17  C   UNL     1      48.340   8.123  13.133  0.00  0.00    +0.000 C 
ATOM     18  C   UNL     1      49.030   8.311  11.796  0.00  0.00    +0.000 C 
ATOM     19  C   UNL     1      48.662   9.521  12.585  0.00  0.00    +0.000 C 
BRANCH  17  20
ATOM     20  N   UNL     1      46.911   7.856  13.255  0.00  0.00    +0.000 N 
ATOM     21  C   UNL     1      46.211   6.706  12.924  0.00  0.00    +0.000 A 
ATOM     22  C   UNL     1      46.749   5.438  12.818  0.00  0.00    +0.000 A 
ATOM     23  C   UNL     1      45.912   4.359  12.492  0.00  0.00    +0.000 A 
ATOM     24  C   UNL     1      44.552   4.577  12.283  0.00  0.00    +0.000 A 
ATOM     25  C   UNL     1      44.097   5.872  12.440  0.00  0.00    +0.000 A 
ATOM     26  N   UNL     1      44.893   6.929  12.743  0.00  0.00    +0.000 NA
ATOM     27  H   UNL     1      46.260   8.634  13.170  0.00  0.00    +0.000 HD
BRANCH  24  28
ATOM     28  C   UNL     1      43.668   3.444  11.922  0.00  0.00    +0.000 C 
ATOM     29  N   UNL     1      43.750   2.282  12.645  0.00  0.00    +0.000 N 
ATOM     30  O   UNL     1      42.865   3.535  11.009  0.00  0.00    +0.000 OA
ATOM     31  H   UNL     1      44.358   2.105  13.429  0.00  0.00    +0.000 HD
ATOM     32  H   UNL     1      43.117   1.540  12.372  0.00  0.00    +0.000 HD
ENDBRANCH  24  28
ENDBRANCH  17  20
ENDBRANCH   6  17
TORSDOF 4
ENDMDL
MODEL 8
REMARK VINA RESULT:    -7.364      3.767      6.470
REMARK INTER + INTRA:          -9.428
REMARK INTER:                  -8.579
REMARK INTRA:                  -0.849
REMARK UNBOUND:                -0.342
REMARK  Name = 
REMARK  6 active torsions:
REMARK  status: ('A' for Active; 'I' for Inactive)
REMARK    1  A    between atoms: C_1  and  C_2
REMARK    2  A    between atoms: N_4  and  C_5
REMARK    3  A    between atoms: C_10  and  C_11
REMARK    4  A    between atoms: C_11  and  N_12
REMARK    5  A    between atoms: C_16  and  C_17
REMARK    6  A    between atoms: C_26  and  C_27
REMARK                            x       y       z     vdW  Elec       q    Type
REMARK                         _______ _______ _______ _____ _____    ______ ____
ROOT
ATOM      1  C   UNL     1      48.951   7.181  16.654  0.00  0.00    +0.000 A 
ATOM      2  C   UNL     1      48.874   8.469  17.186  0.00  0.00    +0.000 A 
ATOM      3  C   UNL     1      48.637   9.573  16.368  0.00  0.00    +0.000 A 
ATOM      4 CL   UNL     1      48.584  11.149  17.062  0.00  0.00    +0.000 Cl
ATOM      5  C   UNL     1      48.476   9.418  15.000  0.00  0.00    +0.000 A 
ATOM      6  C   UNL     1      48.601   8.161  14.401  0.00  0.00    +0.000 A 
ATOM      7  C   UNL     1      48.820   7.063  15.259  0.00  0.00    +0.000 A 
ENDROOT
BRANCH   1  11
ATOM      8  C   UNL     1      47.355   6.364  19.997  0.00  0.00    +0.000 C 
ATOM      9  C   UNL     1      48.626   5.525  19.829  0.00  0.00    +0.000 C 
ATOM     10  C   UNL     1      49.626   6.197  18.854  0.00  0.00    +0.000 C 
ATOM     11  N   UNL     1      49.162   6.082  17.465  0.00  0.00    +0.000 N 
ATOM     12  C   UNL     1      48.796   4.726  17.028  0.00  0.00    +0.000 C 
ATOM     13  C   UNL     1      47.822   4.068  18.045  0.00  0.00    +0.000 C 
ATOM     14  C   UNL     1      47.576   2.607  17.666  0.00  0.00    +0.000 C 
ATOM     15  N   UNL     1      48.304   4.126  19.447  0.00  0.00    +0.000 NA
ATOM     16  H   UNL     1      49.173   3.590  19.494  0.00  0.00    +0.000 HD
ENDBRANCH   1  11
BRANCH   6  17
ATOM     17  C   UNL     1      48.535   8.006  12.883  0.00  0.00    +0.000 C 
ATOM     18  C   UNL     1      49.781   7.548  12.150  0.00  0.00    +0.000 C 
ATOM     19  C   UNL     1      49.391   8.983  12.065  0.00  0.00    +0.000 C 
BRANCH  17  20
ATOM     20  N   UNL     1      47.190   7.818  12.351  0.00  0.00    +0.000 N 
ATOM     21  C   UNL     1      46.462   6.645  12.225  0.00  0.00    +0.000 A 
ATOM     22  C   UNL     1      46.665   5.489  12.954  0.00  0.00    +0.000 A 
ATOM     23  C   UNL     1      45.835   4.379  12.731  0.00  0.00    +0.000 A 
ATOM     24  C   UNL     1      44.816   4.456  11.784  0.00  0.00    +0.000 A 
ATOM     25  C   UNL     1      44.668   5.661  11.125  0.00  0.00    +0.000 A 
ATOM     26  N   UNL     1      45.468   6.740  11.319  0.00  0.00    +0.000 NA
ATOM     27  H   UNL     1      46.859   8.452  11.627  0.00  0.00    +0.000 HD
BRANCH  24  28
ATOM     28  C   UNL     1      43.949   3.281  11.534  0.00  0.00    +0.000 C 
ATOM     29  N   UNL     1      43.718   2.397  12.556  0.00  0.00    +0.000 N 
ATOM     30  O   UNL     1      43.428   3.100  10.447  0.00  0.00    +0.000 OA
ATOM     31  H   UNL     1      44.078   2.459  13.495  0.00  0.00    +0.000 HD
ATOM     32  H   UNL     1      43.107   1.617  12.344  0.00  0.00    +0.000 HD
ENDBRANCH  24  28
ENDBRANCH  17  20
ENDBRANCH   6  17
TORSDOF 4
ENDMDL
MODEL 9
REMARK VINA RESULT:    -7.240      4.500      8.660
REMARK INTER + INTRA:          -9.274
REMARK INTER:                  -8.522
REMARK INTRA:                  -0.752
REMARK UNBOUND:                -0.342
REMARK  Name = 
REMARK  6 active torsions:
REMARK  status: ('A' for Active; 'I' for Inactive)
REMARK    1  A    between atoms: C_1  and  C_2
REMARK    2  A    between atoms: N_4  and  C_5
REMARK    3  A    between atoms: C_10  and  C_11
REMARK    4  A    between atoms: C_11  and  N_12
REMARK    5  A    between atoms: C_16  and  C_17
REMARK    6  A    between atoms: C_26  and  C_27
REMARK                            x       y       z     vdW  Elec       q    Type
REMARK                         _______ _______ _______ _____ _____    ______ ____
ROOT
ATOM      1  C   UNL     1      45.919   6.569  12.232  0.00  0.00    +0.000 A 
ATOM      2  C   UNL     1      45.251   7.751  11.907  0.00  0.00    +0.000 A 
ATOM      3  C   UNL     1      45.777   8.995  12.256  0.00  0.00    +0.000 A 
ATOM      4 CL   UNL     1      44.903  10.426  11.865  0.00  0.00    +0.000 Cl
ATOM      5  C   UNL     1      46.979   9.087  12.940  0.00  0.00    +0.000 A 
ATOM      6  C   UNL     1      47.665   7.938  13.344  0.00  0.00    +0.000 A 
ATOM      7  C   UNL     1      47.116   6.697  12.958  0.00  0.00    +0.000 A 
ENDROOT
BRANCH   1  11
ATOM      8  C   UNL     1      42.294   5.523  11.843  0.00  0.00    +0.000 C 
ATOM      9  C   UNL     1      43.167   4.270  11.971  0.00  0.00    +0.000 C 
ATOM     10  C   UNL     1      44.490   4.573  12.719  0.00  0.00    +0.000 C 
ATOM     11  N   UNL     1      45.412   5.337  11.868  0.00  0.00    +0.000 N 
ATOM     12  C   UNL     1      45.654   4.772  10.531  0.00  0.00    +0.000 C 
ATOM     13  C   UNL     1      44.310   4.448   9.822  0.00  0.00    +0.000 C 
ATOM     14  C   UNL     1      44.574   3.718   8.505  0.00  0.00    +0.000 C 
ATOM     15  N   UNL     1      43.390   3.628  10.649  0.00  0.00    +0.000 NA
ATOM     16  H   UNL     1      43.848   2.731  10.820  0.00  0.00    +0.000 HD
ENDBRANCH   1  11
BRANCH   6  17
ATOM     17  C   UNL     1      48.930   8.038  14.194  0.00  0.00    +0.000 C 
ATOM     18  C   UNL     1      49.352   9.402  14.703  0.00  0.00    +0.000 C 
ATOM     19  C   UNL     1      50.108   8.799  13.570  0.00  0.00    +0.000 C 
BRANCH  17  20
ATOM     20  N   UNL     1      49.318   6.794  14.851  0.00  0.00    +0.000 N 
ATOM     21  C   UNL     1      49.213   6.450  16.190  0.00  0.00    +0.000 A 
ATOM     22  C   UNL     1      48.343   7.017  17.102  0.00  0.00    +0.000 A 
ATOM     23  C   UNL     1      48.335   6.553  18.427  0.00  0.00    +0.000 A 
ATOM     24  C   UNL     1      49.197   5.526  18.805  0.00  0.00    +0.000 A 
ATOM     25  C   UNL     1      50.009   4.999  17.820  0.00  0.00    +0.000 A 
ATOM     26  N   UNL     1      50.039   5.443  16.538  0.00  0.00    +0.000 NA
ATOM     27  H   UNL     1      50.096   6.263  14.468  0.00  0.00    +0.000 HD
BRANCH  24  28
ATOM     28  C   UNL     1      49.203   5.045  20.207  0.00  0.00    +0.000 C 
ATOM     29  N   UNL     1      48.612   3.844  20.499  0.00  0.00    +0.000 N 
ATOM     30  O   UNL     1      49.737   5.689  21.094  0.00  0.00    +0.000 OA
ATOM     31  H   UNL     1      48.163   3.221  19.845  0.00  0.00    +0.000 HD
ATOM     32  H   UNL     1      48.653   3.547  21.466  0.00  0.00    +0.000 HD
ENDBRANCH  24  28
ENDBRANCH  17  20
ENDBRANCH   6  17
TORSDOF 4
ENDMDL
