MODEL 1
REMARK VINA RESULT:    -9.054      0.000      0.000
REMARK INTER + INTRA:         -12.250
REMARK INTER:                 -11.700
REMARK INTRA:                  -0.549
REMARK UNBOUND:                -0.549
REMARK  Name = 
REMARK  5 active torsions:
REMARK  status: ('A' for Active; 'I' for Inactive)
REMARK    1  A    between atoms: C_2  and  C_18
REMARK    2  A    between atoms: N_3  and  C_4
REMARK    3  A    between atoms: C_4  and  C_5
REMARK    4  A    between atoms: C_8  and  O_9
REMARK    5  A    between atoms: O_9  and  C_10
REMARK                            x       y       z     vdW  Elec       q    Type
REMARK                         _______ _______ _______ _____ _____    ______ ____
ROOT
ATOM      1  O   UNL     1      46.306   3.536  13.840  0.00  0.00    +0.000 OA
ATOM      2  C   UNL     1      46.299   4.752  14.014  0.00  0.00    +0.000 C 
ATOM      3  N   UNL     1      45.239   5.540  13.647  0.00  0.00    +0.000 N 
ATOM      4  H   UNL     1      45.342   6.547  13.651  0.00  0.00    +0.000 HD
ENDROOT
BRANCH   2   5
ATOM      5  C   UNL     1      47.416   5.434  14.676  0.00  0.00    +0.000 A 
ATOM      6  C   UNL     1      48.120   6.415  13.992  0.00  0.00    +0.000 A 
ATOM      7  S   UNL     1      49.381   7.116  14.905  0.00  0.00    +0.000 S 
ATOM      8  C   UNL     1      48.999   6.160  16.261  0.00  0.00    +0.000 A 
ATOM      9  N   UNL     1      49.685   6.301  17.427  0.00  0.00    +0.000 NA
ATOM     10  C   UNL     1      49.262   5.549  18.388  0.00  0.00    +0.000 A 
ATOM     11  N   UNL     1      48.229   4.655  18.283  0.00  0.00    +0.000 N 
ATOM     12  C   UNL     1      47.567   4.415  17.098  0.00  0.00    +0.000 A 
ATOM     13  O   UNL     1      46.758   3.500  17.000  0.00  0.00    +0.000 OA
ATOM     14  C   UNL     1      47.957   5.288  16.008  0.00  0.00    +0.000 A 
ATOM     15  H   UNL     1      47.976   4.065  19.062  0.00  0.00    +0.000 HD
ENDBRANCH   2   5
BRANCH   3  16
ATOM     16  C   UNL     1      44.096   5.020  12.943  0.00  0.00    +0.000 C 
BRANCH  16  17
ATOM     17  C   UNL     1      44.433   4.674  11.517  0.00  0.00    +0.000 A 
ATOM     18  C   UNL     1      43.883   3.529  10.927  0.00  0.00    +0.000 A 
ATOM     19  C   UNL     1      44.149   3.223   9.593  0.00  0.00    +0.000 A 
ATOM     20  C   UNL     1      44.920   4.089   8.814  0.00  0.00    +0.000 A 
ATOM     21  C   UNL     1      45.541   5.185   9.415  0.00  0.00    +0.000 A 
ATOM     22  C   UNL     1      45.305   5.473  10.762  0.00  0.00    +0.000 A 
BRANCH  20  23
ATOM     23  O   UNL     1      45.153   3.911   7.469  0.00  0.00    +0.000 OA
BRANCH  23  24
ATOM     24  C   UNL     1      46.147   3.045   7.062  0.00  0.00    +0.000 A 
ATOM     25  C   UNL     1      46.549   1.916   7.775  0.00  0.00    +0.000 A 
ATOM     26  C   UNL     1      47.606   1.175   7.278  0.00  0.00    +0.000 A 
ATOM     27  N   UNL     1      48.231   1.446   6.113  0.00  0.00    +0.000 NA
ATOM     28  C   UNL     1      47.770   2.502   5.409  0.00  0.00    +0.000 A 
ATOM     29  C   UNL     1      46.741   3.323   5.835  0.00  0.00    +0.000 A 
ENDBRANCH  23  24
ENDBRANCH  20  23
ENDBRANCH  16  17
ENDBRANCH   3  16
TORSDOF 5
ENDMDL
MODEL 2
REMARK VINA RESULT:    -8.757      1.440      2.003
REMARK INTER + INTRA:         -11.866
REMARK INTER:                 -11.102
REMARK INTRA:                  -0.763
REMARK UNBOUND:                -0.549
REMARK  Name = 
REMARK  5 active torsions:
REMARK  status: ('A' for Active; 'I' for Inactive)
REMARK    1  A    between atoms: C_2  and  C_18
REMARK    2  A    between atoms: N_3  and  C_4
REMARK    3  A    between atoms: C_4  and  C_5
REMARK    4  A    between atoms: C_8  and  O_9
REMARK    5  A    between atoms: O_9  and  C_10
REMARK                            x       y       z     vdW  Elec       q    Type
REMARK                         _______ _______ _______ _____ _____    ______ ____
ROOT
ATOM      1  O   UNL     1      48.137   7.516  12.707  0.00  0.00    +0.000 OA
ATOM      2  C   UNL     1      47.538   6.948  13.617  0.00  0.00    +0.000 C 
ATOM      3  N   UNL     1      46.194   6.681  13.556  0.00  0.00    +0.000 N 
ATOM      4  H   UNL     1      45.710   6.368  14.389  0.00  0.00    +0.000 HD
ENDROOT
BRANCH   2   5
ATOM      5  C   UNL     1      48.240   6.473  14.814  0.00  0.00    +0.000 A 
ATOM      6  C   UNL     1      49.280   7.227  15.341  0.00  0.00    +0.000 A 
ATOM      7  S   UNL     1      49.984   6.541  16.737  0.00  0.00    +0.000 S 
ATOM      8  C   UNL     1      48.893   5.235  16.707  0.00  0.00    +0.000 A 
ATOM      9  N   UNL     1      48.923   4.281  17.678  0.00  0.00    +0.000 NA
ATOM     10  C   UNL     1      48.011   3.375  17.561  0.00  0.00    +0.000 A 
ATOM     11  N   UNL     1      47.086   3.322  16.551  0.00  0.00    +0.000 N 
ATOM     12  C   UNL     1      47.077   4.213  15.500  0.00  0.00    +0.000 A 
ATOM     13  O   UNL     1      46.340   4.046  14.535  0.00  0.00    +0.000 OA
ATOM     14  C   UNL     1      48.035   5.294  15.626  0.00  0.00    +0.000 A 
ATOM     15  H   UNL     1      46.426   2.560  16.495  0.00  0.00    +0.000 HD
ENDBRANCH   2   5
BRANCH   3  16
ATOM     16  C   UNL     1      45.365   7.130  12.469  0.00  0.00    +0.000 C 
BRANCH  16  17
ATOM     17  C   UNL     1      45.224   6.073  11.407  0.00  0.00    +0.000 A 
ATOM     18  C   UNL     1      44.325   5.014  11.590  0.00  0.00    +0.000 A 
ATOM     19  C   UNL     1      44.149   4.054  10.594  0.00  0.00    +0.000 A 
ATOM     20  C   UNL     1      44.826   4.172   9.379  0.00  0.00    +0.000 A 
ATOM     21  C   UNL     1      45.785   5.174   9.220  0.00  0.00    +0.000 A 
ATOM     22  C   UNL     1      45.990   6.116  10.232  0.00  0.00    +0.000 A 
BRANCH  20  23
ATOM     23  O   UNL     1      44.641   3.323   8.310  0.00  0.00    +0.000 OA
BRANCH  23  24
ATOM     24  C   UNL     1      45.737   2.731   7.718  0.00  0.00    +0.000 A 
ATOM     25  C   UNL     1      46.510   3.322   6.720  0.00  0.00    +0.000 A 
ATOM     26  C   UNL     1      47.542   2.582   6.171  0.00  0.00    +0.000 A 
ATOM     27  N   UNL     1      47.882   1.344   6.587  0.00  0.00    +0.000 NA
ATOM     28  C   UNL     1      47.161   0.828   7.606  0.00  0.00    +0.000 A 
ATOM     29  C   UNL     1      46.091   1.475   8.200  0.00  0.00    +0.000 A 
ENDBRANCH  23  24
ENDBRANCH  20  23
ENDBRANCH  16  17
ENDBRANCH   3  16
TORSDOF 5
ENDMDL
MODEL 3
REMARK VINA RESULT:    -8.661      1.829      2.737
REMARK INTER + INTRA:         -11.742
REMARK INTER:                 -10.924
REMARK INTRA:                  -0.818
REMARK UNBOUND:                -0.549
REMARK  Name = 
REMARK  5 active torsions:
REMARK  status: ('A' for Active; 'I' for Inactive)
REMARK    1  A    between atoms: C_2  and  C_18
REMARK    2  A    between atoms: N_3  and  C_4
REMARK    3  A    between atoms: C_4  and  C_5
REMARK    4  A    between atoms: C_8  and  O_9
REMARK    5  A    between atoms: O_9  and  C_10
REMARK                            x       y       z     vdW  Elec       q    Type
REMARK                         _______ _______ _______ _____ _____    ______ ____
ROOT
ATOM      1  O   UNL     1      46.749   3.912  14.311  0.00  0.00    +0.000 OA
ATOM      2  C   UNL     1      46.791   5.132  14.174  0.00  0.00    +0.000 C 
ATOM      3  N   UNL     1      45.740   5.850  13.666  0.00  0.00    +0.000 N 
ATOM      4  H   UNL     1      45.876   6.822  13.413  0.00  0.00    +0.000 HD
ENDROOT
BRANCH   2   5
ATOM      5  C   UNL     1      47.964   5.907  14.595  0.00  0.00    +0.000 A 
ATOM      6  C   UNL     1      48.423   5.797  15.901  0.00  0.00    +0.000 A 
ATOM      7  S   UNL     1      49.798   6.755  16.225  0.00  0.00    +0.000 S 
ATOM      8  C   UNL     1      49.850   7.316  14.619  0.00  0.00    +0.000 A 
ATOM      9  N   UNL     1      50.839   8.155  14.206  0.00  0.00    +0.000 NA
ATOM     10  C   UNL     1      50.785   8.465  12.954  0.00  0.00    +0.000 A 
ATOM     11  N   UNL     1      49.822   8.029  12.082  0.00  0.00    +0.000 N 
ATOM     12  C   UNL     1      48.754   7.254  12.476  0.00  0.00    +0.000 A 
ATOM     13  O   UNL     1      47.829   7.013  11.709  0.00  0.00    +0.000 OA
ATOM     14  C   UNL     1      48.809   6.818  13.858  0.00  0.00    +0.000 A 
ATOM     15  H   UNL     1      49.815   8.344  11.123  0.00  0.00    +0.000 HD
ENDBRANCH   2   5
BRANCH   3  16
ATOM     16  C   UNL     1      44.545   5.223  13.165  0.00  0.00    +0.000 C 
BRANCH  16  17
ATOM     17  C   UNL     1      44.717   4.761  11.743  0.00  0.00    +0.000 A 
ATOM     18  C   UNL     1      44.218   3.512  11.349  0.00  0.00    +0.000 A 
ATOM     19  C   UNL     1      44.328   3.091  10.025  0.00  0.00    +0.000 A 
ATOM     20  C   UNL     1      44.886   3.937   9.064  0.00  0.00    +0.000 A 
ATOM     21  C   UNL     1      45.460   5.146   9.462  0.00  0.00    +0.000 A 
ATOM     22  C   UNL     1      45.384   5.553  10.796  0.00  0.00    +0.000 A 
BRANCH  20  23
ATOM     23  O   UNL     1      44.948   3.639   7.720  0.00  0.00    +0.000 OA
BRANCH  23  24
ATOM     24  C   UNL     1      45.983   2.861   7.247  0.00  0.00    +0.000 A 
ATOM     25  C   UNL     1      46.409   1.672   7.836  0.00  0.00    +0.000 A 
ATOM     26  C   UNL     1      47.506   1.030   7.290  0.00  0.00    +0.000 A 
ATOM     27  N   UNL     1      48.150   1.456   6.182  0.00  0.00    +0.000 NA
ATOM     28  C   UNL     1      47.668   2.571   5.591  0.00  0.00    +0.000 A 
ATOM     29  C   UNL     1      46.598   3.301   6.079  0.00  0.00    +0.000 A 
ENDBRANCH  23  24
ENDBRANCH  20  23
ENDBRANCH  16  17
ENDBRANCH   3  16
TORSDOF 5
ENDMDL
MODEL 4
REMARK VINA RESULT:    -8.607      0.950      1.459
REMARK INTER + INTRA:         -11.671
REMARK INTER:                 -10.983
REMARK INTRA:                  -0.689
REMARK UNBOUND:                -0.549
REMARK  Name = 
REMARK  5 active torsions:
REMARK  status: ('A' for Active; 'I' for Inactive)
REMARK    1  A    between atoms: C_2  and  C_18
REMARK    2  A    between atoms: N_3  and  C_4
REMARK    3  A    between atoms: C_4  and  C_5
REMARK    4  A    between atoms: C_8  and  O_9
REMARK    5  A    between atoms: O_9  and  C_10
REMARK                            x       y       z     vdW  Elec       q    Type
REMARK                         _______ _______ _______ _____ _____    ______ ____
ROOT
ATOM      1  O   UNL     1      47.346   4.014  13.871  0.00  0.00    +0.000 OA
ATOM      2  C   UNL     1      47.151   5.227  13.901  0.00  0.00    +0.000 C 
ATOM      3  N   UNL     1      45.925   5.781  13.637  0.00  0.00    +0.000 N 
ATOM      4  H   UNL     1      45.849   6.782  13.506  0.00  0.00    +0.000 HD
ENDROOT
BRANCH   2   5
ATOM      5  C   UNL     1      48.220   6.162  14.272  0.00  0.00    +0.000 A 
ATOM      6  C   UNL     1      48.757   7.004  13.308  0.00  0.00    +0.000 A 
ATOM      7  S   UNL     1      49.981   8.033  13.903  0.00  0.00    +0.000 S 
ATOM      8  C   UNL     1      49.803   7.418  15.480  0.00  0.00    +0.000 A 
ATOM      9  N   UNL     1      50.540   7.916  16.510  0.00  0.00    +0.000 NA
ATOM     10  C   UNL     1      50.270   7.394  17.660  0.00  0.00    +0.000 A 
ATOM     11  N   UNL     1      49.347   6.403  17.870  0.00  0.00    +0.000 N 
ATOM     12  C   UNL     1      48.644   5.808  16.846  0.00  0.00    +0.000 A 
ATOM     13  O   UNL     1      47.945   4.822  17.047  0.00  0.00    +0.000 OA
ATOM     14  C   UNL     1      48.858   6.411  15.545  0.00  0.00    +0.000 A 
ATOM     15  H   UNL     1      49.216   6.008  18.790  0.00  0.00    +0.000 HD
ENDBRANCH   2   5
BRANCH   3  16
ATOM     16  C   UNL     1      44.797   4.995  13.211  0.00  0.00    +0.000 C 
BRANCH  16  17
ATOM     17  C   UNL     1      44.810   4.768  11.723  0.00  0.00    +0.000 A 
ATOM     18  C   UNL     1      45.569   5.605  10.895  0.00  0.00    +0.000 A 
ATOM     19  C   UNL     1      45.628   5.377   9.520  0.00  0.00    +0.000 A 
ATOM     20  C   UNL     1      44.976   4.274   8.964  0.00  0.00    +0.000 A 
ATOM     21  C   UNL     1      44.151   3.486   9.767  0.00  0.00    +0.000 A 
ATOM     22  C   UNL     1      44.061   3.735  11.139  0.00  0.00    +0.000 A 
BRANCH  20  23
ATOM     23  O   UNL     1      45.059   3.923   7.634  0.00  0.00    +0.000 OA
BRANCH  23  24
ATOM     24  C   UNL     1      46.027   3.027   7.230  0.00  0.00    +0.000 A 
ATOM     25  C   UNL     1      46.322   1.835   7.889  0.00  0.00    +0.000 A 
ATOM     26  C   UNL     1      47.366   1.065   7.408  0.00  0.00    +0.000 A 
ATOM     27  N   UNL     1      48.075   1.371   6.300  0.00  0.00    +0.000 NA
ATOM     28  C   UNL     1      47.716   2.494   5.641  0.00  0.00    +0.000 A 
ATOM     29  C   UNL     1      46.709   3.346   6.060  0.00  0.00    +0.000 A 
ENDBRANCH  23  24
ENDBRANCH  20  23
ENDBRANCH  16  17
ENDBRANCH   3  16
TORSDOF 5
ENDMDL
MODEL 5
REMARK VINA RESULT:    -8.419      1.700      2.231
REMARK INTER + INTRA:         -11.429
REMARK INTER:                 -10.614
REMARK INTRA:                  -0.815
REMARK UNBOUND:                -0.549
REMARK  Name = 
REMARK  5 active torsions:
REMARK  status: ('A' for Active; 'I' for Inactive)
REMARK    1  A    between atoms: C_2  and  C_18
REMARK    2  A    between atoms: N_3  and  C_4
REMARK    3  A    between atoms: C_4  and  C_5
REMARK    4  A    between atoms: C_8  and  O_9
REMARK    5  A    between atoms: O_9  and  C_10
REMARK                            x       y       z     vdW  Elec       q    Type
REMARK                         _______ _______ _______ _____ _____    ______ ____
ROOT
ATOM      1  O   UNL     1      48.298   5.903  13.402  0.00  0.00    +0.000 OA
ATOM      2  C   UNL     1      47.436   5.579  14.215  0.00  0.00    +0.000 C 
ATOM      3  N   UNL     1      46.100   5.792  13.992  0.00  0.00    +0.000 N 
ATOM      4  H   UNL     1      45.442   5.667  14.751  0.00  0.00    +0.000 HD
ENDROOT
BRANCH   2   5
ATOM      5  C   UNL     1      47.784   4.896  15.466  0.00  0.00    +0.000 A 
ATOM      6  C   UNL     1      47.444   3.560  15.633  0.00  0.00    +0.000 A 
ATOM      7  S   UNL     1      47.928   2.914  17.136  0.00  0.00    +0.000 S 
ATOM      8  C   UNL     1      48.646   4.387  17.596  0.00  0.00    +0.000 A 
ATOM      9  N   UNL     1      49.297   4.502  18.786  0.00  0.00    +0.000 NA
ATOM     10  C   UNL     1      49.835   5.659  18.988  0.00  0.00    +0.000 A 
ATOM     11  N   UNL     1      49.765   6.716  18.119  0.00  0.00    +0.000 N 
ATOM     12  C   UNL     1      49.042   6.671  16.947  0.00  0.00    +0.000 A 
ATOM     13  O   UNL     1      48.870   7.679  16.271  0.00  0.00    +0.000 OA
ATOM     14  C   UNL     1      48.481   5.370  16.640  0.00  0.00    +0.000 A 
ATOM     15  H   UNL     1      50.173   7.608  18.358  0.00  0.00    +0.000 HD
ENDBRANCH   2   5
BRANCH   3  16
ATOM     16  C   UNL     1      45.611   6.495  12.835  0.00  0.00    +0.000 C 
BRANCH  16  17
ATOM     17  C   UNL     1      45.448   5.574  11.655  0.00  0.00    +0.000 A 
ATOM     18  C   UNL     1      44.851   4.319  11.825  0.00  0.00    +0.000 A 
ATOM     19  C   UNL     1      44.650   3.475  10.733  0.00  0.00    +0.000 A 
ATOM     20  C   UNL     1      44.990   3.901   9.447  0.00  0.00    +0.000 A 
ATOM     21  C   UNL     1      45.662   5.113   9.279  0.00  0.00    +0.000 A 
ATOM     22  C   UNL     1      45.897   5.943  10.378  0.00  0.00    +0.000 A 
BRANCH  20  23
ATOM     23  O   UNL     1      44.741   3.171   8.306  0.00  0.00    +0.000 OA
BRANCH  23  24
ATOM     24  C   UNL     1      45.799   2.645   7.594  0.00  0.00    +0.000 A 
ATOM     25  C   UNL     1      46.396   3.261   6.496  0.00  0.00    +0.000 A 
ATOM     26  C   UNL     1      47.407   2.584   5.838  0.00  0.00    +0.000 A 
ATOM     27  N   UNL     1      47.890   1.387   6.235  0.00  0.00    +0.000 NA
ATOM     28  C   UNL     1      47.342   0.850   7.346  0.00  0.00    +0.000 A 
ATOM     29  C   UNL     1      46.306   1.434   8.055  0.00  0.00    +0.000 A 
ENDBRANCH  23  24
ENDBRANCH  20  23
ENDBRANCH  16  17
ENDBRANCH   3  16
TORSDOF 5
ENDMDL
MODEL 6
REMARK VINA RESULT:    -8.053      2.909      3.672
REMARK INTER + INTRA:         -10.956
REMARK INTER:                 -10.028
REMARK INTRA:                  -0.928
REMARK UNBOUND:                -0.549
REMARK  Name = 
REMARK  5 active torsions:
REMARK  status: ('A' for Active; 'I' for Inactive)
REMARK    1  A    between atoms: C_2  and  C_18
REMARK    2  A    between atoms: N_3  and  C_4
REMARK    3  A    between atoms: C_4  and  C_5
REMARK    4  A    between atoms: C_8  and  O_9
REMARK    5  A    between atoms: O_9  and  C_10
REMARK                            x       y       z     vdW  Elec       q    Type
REMARK                         _______ _______ _______ _____ _____    ______ ____
ROOT
ATOM      1  O   UNL     1      45.734   8.719  13.243  0.00  0.00    +0.000 OA
ATOM      2  C   UNL     1      46.635   7.923  13.495  0.00  0.00    +0.000 C 
ATOM      3  N   UNL     1      46.455   6.566  13.428  0.00  0.00    +0.000 N 
ATOM      4  H   UNL     1      47.165   5.950  13.804  0.00  0.00    +0.000 HD
ENDROOT
BRANCH   2   5
ATOM      5  C   UNL     1      47.985   8.383  13.841  0.00  0.00    +0.000 A 
ATOM      6  C   UNL     1      48.204   9.002  15.063  0.00  0.00    +0.000 A 
ATOM      7  S   UNL     1      49.827   9.468  15.313  0.00  0.00    +0.000 S 
ATOM      8  C   UNL     1      50.298   8.817  13.813  0.00  0.00    +0.000 A 
ATOM      9  N   UNL     1      51.602   8.842  13.421  0.00  0.00    +0.000 NA
ATOM     10  C   UNL     1      51.827   8.273  12.285  0.00  0.00    +0.000 A 
ATOM     11  N   UNL     1      50.866   7.699  11.494  0.00  0.00    +0.000 N 
ATOM     12  C   UNL     1      49.525   7.731  11.808  0.00  0.00    +0.000 A 
ATOM     13  O   UNL     1      48.678   7.350  11.008  0.00  0.00    +0.000 OA
ATOM     14  C   UNL     1      49.229   8.294  13.111  0.00  0.00    +0.000 A 
ATOM     15  H   UNL     1      51.104   7.308  10.594  0.00  0.00    +0.000 HD
ENDBRANCH   2   5
BRANCH   3  16
ATOM     16  C   UNL     1      45.175   5.968  13.152  0.00  0.00    +0.000 C 
BRANCH  16  17
ATOM     17  C   UNL     1      45.152   5.309  11.798  0.00  0.00    +0.000 A 
ATOM     18  C   UNL     1      44.458   4.106  11.618  0.00  0.00    +0.000 A 
ATOM     19  C   UNL     1      44.388   3.509  10.360  0.00  0.00    +0.000 A 
ATOM     20  C   UNL     1      44.961   4.139   9.253  0.00  0.00    +0.000 A 
ATOM     21  C   UNL     1      45.725   5.293   9.437  0.00  0.00    +0.000 A 
ATOM     22  C   UNL     1      45.828   5.871  10.705  0.00  0.00    +0.000 A 
BRANCH  20  23
ATOM     23  O   UNL     1      44.859   3.668   7.962  0.00  0.00    +0.000 OA
BRANCH  23  24
ATOM     24  C   UNL     1      45.899   2.940   7.423  0.00  0.00    +0.000 A 
ATOM     25  C   UNL     1      46.679   3.359   6.346  0.00  0.00    +0.000 A 
ATOM     26  C   UNL     1      47.647   2.494   5.867  0.00  0.00    +0.000 A 
ATOM     27  N   UNL     1      47.921   1.294   6.422  0.00  0.00    +0.000 NA
ATOM     28  C   UNL     1      47.198   0.949   7.510  0.00  0.00    +0.000 A 
ATOM     29  C   UNL     1      46.188   1.729   8.044  0.00  0.00    +0.000 A 
ENDBRANCH  23  24
ENDBRANCH  20  23
ENDBRANCH  16  17
ENDBRANCH   3  16
TORSDOF 5
ENDMDL
MODEL 7
REMARK VINA RESULT:    -8.030      2.023      2.582
REMARK INTER + INTRA:         -10.927
REMARK INTER:                  -9.920
REMARK INTRA:                  -1.006
REMARK UNBOUND:                -0.549
REMARK  Name = 
REMARK  5 active torsions:
REMARK  status: ('A' for Active; 'I' for Inactive)
REMARK    1  A    between atoms: C_2  and  C_18
REMARK    2  A    between atoms: N_3  and  C_4
REMARK    3  A    between atoms: C_4  and  C_5
REMARK    4  A    between atoms: C_8  and  O_9
REMARK    5  A    between atoms: O_9  and  C_10
REMARK                            x       y       z     vdW  Elec       q    Type
REMARK                         _______ _______ _______ _____ _____    ______ ____
ROOT
ATOM      1  O   UNL     1      46.424   8.349  13.493  0.00  0.00    +0.000 OA
ATOM      2  C   UNL     1      47.313   7.500  13.502  0.00  0.00    +0.000 C 
ATOM      3  N   UNL     1      47.051   6.162  13.358  0.00  0.00    +0.000 N 
ATOM      4  H   UNL     1      47.785   5.489  13.540  0.00  0.00    +0.000 HD
ENDROOT
BRANCH   2   5
ATOM      5  C   UNL     1      48.726   7.876  13.621  0.00  0.00    +0.000 A 
ATOM      6  C   UNL     1      49.264   8.802  12.737  0.00  0.00    +0.000 A 
ATOM      7  S   UNL     1      50.914   9.136  13.016  0.00  0.00    +0.000 S 
ATOM      8  C   UNL     1      50.953   8.086  14.355  0.00  0.00    +0.000 A 
ATOM      9  N   UNL     1      52.086   7.942  15.094  0.00  0.00    +0.000 NA
ATOM     10  C   UNL     1      51.964   7.153  16.109  0.00  0.00    +0.000 A 
ATOM     11  N   UNL     1      50.818   6.479  16.440  0.00  0.00    +0.000 N 
ATOM     12  C   UNL     1      49.676   6.524  15.670  0.00  0.00    +0.000 A 
ATOM     13  O   UNL     1      48.724   5.789  15.905  0.00  0.00    +0.000 OA
ATOM     14  C   UNL     1      49.740   7.455  14.560  0.00  0.00    +0.000 A 
ATOM     15  H   UNL     1      50.802   5.842  17.223  0.00  0.00    +0.000 HD
ENDBRANCH   2   5
BRANCH   3  16
ATOM     16  C   UNL     1      45.712   5.639  13.282  0.00  0.00    +0.000 C 
BRANCH  16  17
ATOM     17  C   UNL     1      45.407   5.094  11.913  0.00  0.00    +0.000 A 
ATOM     18  C   UNL     1      45.754   5.832  10.773  0.00  0.00    +0.000 A 
ATOM     19  C   UNL     1      45.520   5.318   9.499  0.00  0.00    +0.000 A 
ATOM     20  C   UNL     1      44.991   4.035   9.346  0.00  0.00    +0.000 A 
ATOM     21  C   UNL     1      44.565   3.328  10.472  0.00  0.00    +0.000 A 
ATOM     22  C   UNL     1      44.764   3.858  11.750  0.00  0.00    +0.000 A 
BRANCH  20  23
ATOM     23  O   UNL     1      44.816   3.415   8.128  0.00  0.00    +0.000 OA
BRANCH  23  24
ATOM     24  C   UNL     1      45.855   2.691   7.582  0.00  0.00    +0.000 A 
ATOM     25  C   UNL     1      46.260   1.434   8.028  0.00  0.00    +0.000 A 
ATOM     26  C   UNL     1      47.363   0.854   7.427  0.00  0.00    +0.000 A 
ATOM     27  N   UNL     1      48.032   1.407   6.394  0.00  0.00    +0.000 NA
ATOM     28  C   UNL     1      47.570   2.591   5.936  0.00  0.00    +0.000 A 
ATOM     29  C   UNL     1      46.496   3.265   6.489  0.00  0.00    +0.000 A 
ENDBRANCH  23  24
ENDBRANCH  20  23
ENDBRANCH  16  17
ENDBRANCH   3  16
TORSDOF 5
ENDMDL
MODEL 8
REMARK VINA RESULT:    -7.740      1.979      2.900
REMARK INTER + INTRA:         -10.552
REMARK INTER:                  -9.621
REMARK INTRA:                  -0.931
REMARK UNBOUND:                -0.549
REMARK  Name = 
REMARK  5 active torsions:
REMARK  status: ('A' for Active; 'I' for Inactive)
REMARK    1  A    between atoms: C_2  and  C_18
REMARK    2  A    between atoms: N_3  and  C_4
REMARK    3  A    between atoms: C_4  and  C_5
REMARK    4  A    between atoms: C_8  and  O_9
REMARK    5  A    between atoms: O_9  and  C_10
REMARK                            x       y       z     vdW  Elec       q    Type
REMARK                         _______ _______ _______ _____ _____    ______ ____
ROOT
ATOM      1  O   UNL     1      49.637   7.012  13.771  0.00  0.00    +0.000 OA
ATOM      2  C   UNL     1      48.849   6.986  14.713  0.00  0.00    +0.000 C 
ATOM      3  N   UNL     1      47.545   7.392  14.590  0.00  0.00    +0.000 N 
ATOM      4  H   UNL     1      46.981   7.514  15.422  0.00  0.00    +0.000 HD
ENDROOT
BRANCH   2   5
ATOM      5  C   UNL     1      49.247   6.470  16.027  0.00  0.00    +0.000 A 
ATOM      6  C   UNL     1      50.158   7.184  16.795  0.00  0.00    +0.000 A 
ATOM      7  S   UNL     1      50.507   6.453  18.297  0.00  0.00    +0.000 S 
ATOM      8  C   UNL     1      49.420   5.180  17.989  0.00  0.00    +0.000 A 
ATOM      9  N   UNL     1      49.203   4.210  18.918  0.00  0.00    +0.000 NA
ATOM     10  C   UNL     1      48.319   3.332  18.575  0.00  0.00    +0.000 A 
ATOM     11  N   UNL     1      47.649   3.325  17.380  0.00  0.00    +0.000 N 
ATOM     12  C   UNL     1      47.902   4.234  16.376  0.00  0.00    +0.000 A 
ATOM     13  O   UNL     1      47.401   4.106  15.265  0.00  0.00    +0.000 OA
ATOM     14  C   UNL     1      48.833   5.284  16.742  0.00  0.00    +0.000 A 
ATOM     15  H   UNL     1      47.001   2.584  17.157  0.00  0.00    +0.000 HD
ENDBRANCH   2   5
BRANCH   3  16
ATOM     16  C   UNL     1      47.025   7.967  13.378  0.00  0.00    +0.000 C 
BRANCH  16  17
ATOM     17  C   UNL     1      46.184   6.981  12.612  0.00  0.00    +0.000 A 
ATOM     18  C   UNL     1      45.114   7.434  11.829  0.00  0.00    +0.000 A 
ATOM     19  C   UNL     1      44.357   6.537  11.078  0.00  0.00    +0.000 A 
ATOM     20  C   UNL     1      44.695   5.182  11.053  0.00  0.00    +0.000 A 
ATOM     21  C   UNL     1      45.703   4.710  11.895  0.00  0.00    +0.000 A 
ATOM     22  C   UNL     1      46.439   5.603  12.677  0.00  0.00    +0.000 A 
BRANCH  20  23
ATOM     23  O   UNL     1      44.060   4.246  10.268  0.00  0.00    +0.000 OA
BRANCH  23  24
ATOM     24  C   UNL     1      44.796   3.515   9.358  0.00  0.00    +0.000 A 
ATOM     25  C   UNL     1      44.894   2.125   9.359  0.00  0.00    +0.000 A 
ATOM     26  C   UNL     1      45.723   1.530   8.425  0.00  0.00    +0.000 A 
ATOM     27  N   UNL     1      46.395   2.214   7.474  0.00  0.00    +0.000 NA
ATOM     28  C   UNL     1      46.221   3.553   7.453  0.00  0.00    +0.000 A 
ATOM     29  C   UNL     1      45.439   4.243   8.363  0.00  0.00    +0.000 A 
ENDBRANCH  23  24
ENDBRANCH  20  23
ENDBRANCH  16  17
ENDBRANCH   3  16
TORSDOF 5
ENDMDL
MODEL 9
REMARK VINA RESULT:    -7.508      4.262      9.427
REMARK INTER + INTRA:         -10.251
REMARK INTER:                  -9.394
REMARK INTRA:                  -0.857
REMARK UNBOUND:                -0.549
REMARK  Name = 
REMARK  5 active torsions:
REMARK  status: ('A' for Active; 'I' for Inactive)
REMARK    1  A    between atoms: C_2  and  C_18
REMARK    2  A    between atoms: N_3  and  C_4
REMARK    3  A    between atoms: C_4  and  C_5
REMARK    4  A    between atoms: C_8  and  O_9
REMARK    5  A    between atoms: O_9  and  C_10
REMARK                            x       y       z     vdW  Elec       q    Type
REMARK                         _______ _______ _______ _____ _____    ______ ____
ROOT
ATOM      1  O   UNL     1      47.189   3.084  14.026  0.00  0.00    +0.000 OA
ATOM      2  C   UNL     1      46.792   4.150  14.491  0.00  0.00    +0.000 C 
ATOM      3  N   UNL     1      46.823   4.422  15.834  0.00  0.00    +0.000 N 
ATOM      4  H   UNL     1      46.335   5.234  16.190  0.00  0.00    +0.000 HD
ENDROOT
BRANCH   2   5
ATOM      5  C   UNL     1      46.301   5.225  13.622  0.00  0.00    +0.000 A 
ATOM      6  C   UNL     1      47.126   6.305  13.337  0.00  0.00    +0.000 A 
ATOM      7  S   UNL     1      46.408   7.461  12.307  0.00  0.00    +0.000 S 
ATOM      8  C   UNL     1      44.986   6.535  12.174  0.00  0.00    +0.000 A 
ATOM      9  N   UNL     1      43.960   6.946  11.381  0.00  0.00    +0.000 NA
ATOM     10  C   UNL     1      42.962   6.127  11.334  0.00  0.00    +0.000 A 
ATOM     11  N   UNL     1      42.889   4.946  12.024  0.00  0.00    +0.000 N 
ATOM     12  C   UNL     1      43.863   4.535  12.908  0.00  0.00    +0.000 A 
ATOM     13  O   UNL     1      43.695   3.556  13.625  0.00  0.00    +0.000 OA
ATOM     14  C   UNL     1      45.038   5.385  12.939  0.00  0.00    +0.000 A 
ATOM     15  H   UNL     1      42.060   4.372  11.977  0.00  0.00    +0.000 HD
ENDBRANCH   2   5
BRANCH   3  16
ATOM     16  C   UNL     1      47.231   3.447  16.811  0.00  0.00    +0.000 C 
BRANCH  16  17
ATOM     17  C   UNL     1      48.698   3.562  17.130  0.00  0.00    +0.000 A 
ATOM     18  C   UNL     1      49.477   2.405  17.264  0.00  0.00    +0.000 A 
ATOM     19  C   UNL     1      50.846   2.498  17.512  0.00  0.00    +0.000 A 
ATOM     20  C   UNL     1      51.465   3.749  17.571  0.00  0.00    +0.000 A 
ATOM     21  C   UNL     1      50.685   4.905  17.523  0.00  0.00    +0.000 A 
ATOM     22  C   UNL     1      49.307   4.813  17.311  0.00  0.00    +0.000 A 
BRANCH  20  23
ATOM     23  O   UNL     1      52.823   3.928  17.718  0.00  0.00    +0.000 OA
BRANCH  23  24
ATOM     24  C   UNL     1      53.484   3.278  18.739  0.00  0.00    +0.000 A 
ATOM     25  C   UNL     1      53.422   3.650  20.081  0.00  0.00    +0.000 A 
ATOM     26  C   UNL     1      54.192   2.946  20.989  0.00  0.00    +0.000 A 
ATOM     27  N   UNL     1      54.954   1.882  20.660  0.00  0.00    +0.000 NA
ATOM     28  C   UNL     1      54.936   1.500  19.365  0.00  0.00    +0.000 A 
ATOM     29  C   UNL     1      54.224   2.157  18.377  0.00  0.00    +0.000 A 
ENDBRANCH  23  24
ENDBRANCH  20  23
ENDBRANCH  16  17
ENDBRANCH   3  16
TORSDOF 5
ENDMDL
