MODEL 1
REMARK VINA RESULT:    -9.392      0.000      0.000
REMARK INTER + INTRA:         -12.759
REMARK INTER:                 -12.137
REMARK INTRA:                  -0.622
REMARK UNBOUND:                -0.622
REMARK  Name = 
REMARK  6 active torsions:
REMARK  status: ('A' for Active; 'I' for Inactive)
REMARK    1  A    between atoms: C_1  and  C_2
REMARK    2  A    between atoms: C_2  and  N_3
REMARK    3  A    between atoms: C_2  and  C_16
REMARK    4  A    between atoms: C_4  and  C_6
REMARK    5  A    between atoms: C_19  and  O_20
REMARK    6  A    between atoms: O_20  and  C_21
REMARK                            x       y       z     vdW  Elec       q    Type
REMARK                         _______ _______ _______ _____ _____    ______ ____
ROOT
ATOM      1  C   UNL     1      42.850   5.172  13.256  0.00  0.00    +0.000 C 
ATOM      2  C   UNL     1      44.168   4.429  13.006  0.00  0.00    +0.000 C 
ENDROOT
BRANCH   2   3
ATOM      3  C   UNL     1      44.523   4.293  11.537  0.00  0.00    +0.000 A 
ATOM      4  C   UNL     1      44.107   3.151  10.835  0.00  0.00    +0.000 A 
ATOM      5  C   UNL     1      44.409   2.998   9.482  0.00  0.00    +0.000 A 
ATOM      6  C   UNL     1      45.072   4.017   8.791  0.00  0.00    +0.000 A 
ATOM      7  C   UNL     1      45.562   5.114   9.490  0.00  0.00    +0.000 A 
ATOM      8  C   UNL     1      45.303   5.244  10.856  0.00  0.00    +0.000 A 
BRANCH   6   9
ATOM      9  O   UNL     1      45.310   4.002   7.434  0.00  0.00    +0.000 OA
BRANCH   9  10
ATOM     10  C   UNL     1      46.259   3.136   6.934  0.00  0.00    +0.000 A 
ATOM     11  C   UNL     1      46.785   2.055   7.639  0.00  0.00    +0.000 A 
ATOM     12  C   UNL     1      47.817   1.340   7.064  0.00  0.00    +0.000 A 
ATOM     13  N   UNL     1      48.288   1.579   5.823  0.00  0.00    +0.000 NA
ATOM     14  C   UNL     1      47.698   2.576   5.128  0.00  0.00    +0.000 A 
ATOM     15  C   UNL     1      46.687   3.375   5.634  0.00  0.00    +0.000 A 
ENDBRANCH   9  10
ENDBRANCH   6   9
ENDBRANCH   2   3
BRANCH   2  16
ATOM     16  N   UNL     1      45.264   5.082  13.691  0.00  0.00    +0.000 N 
ATOM     17  C   UNL     1      46.397   4.414  14.080  0.00  0.00    +0.000 C 
ATOM     18  O   UNL     1      46.609   3.245  13.786  0.00  0.00    +0.000 OA
ATOM     19  H   UNL     1      45.069   6.000  14.076  0.00  0.00    +0.000 HD
BRANCH  17  20
ATOM     20  C   UNL     1      47.372   5.210  14.833  0.00  0.00    +0.000 A 
ATOM     21  C   UNL     1      48.020   6.272  14.221  0.00  0.00    +0.000 A 
ATOM     22  S   UNL     1      49.124   7.077  15.244  0.00  0.00    +0.000 S 
ATOM     23  C   UNL     1      48.806   6.000  16.524  0.00  0.00    +0.000 A 
ATOM     24  N   UNL     1      49.468   6.105  17.706  0.00  0.00    +0.000 NA
ATOM     25  C   UNL     1      49.155   5.201  18.575  0.00  0.00    +0.000 A 
ATOM     26  N   UNL     1      48.229   4.211  18.372  0.00  0.00    +0.000 N 
ATOM     27  C   UNL     1      47.493   4.104  17.218  0.00  0.00    +0.000 A 
ATOM     28  O   UNL     1      46.593   3.271  17.109  0.00  0.00    +0.000 OA
ATOM     29  C   UNL     1      47.842   5.067  16.188  0.00  0.00    +0.000 A 
ATOM     30  H   UNL     1      48.009   3.554  19.106  0.00  0.00    +0.000 HD
ENDBRANCH  17  20
ENDBRANCH   2  16
TORSDOF 5
ENDMDL
MODEL 2
REMARK VINA RESULT:    -8.788      1.602      2.720
REMARK INTER + INTRA:         -11.979
REMARK INTER:                 -11.263
REMARK INTRA:                  -0.715
REMARK UNBOUND:                -0.622
REMARK  Name = 
REMARK  6 active torsions:
REMARK  status: ('A' for Active; 'I' for Inactive)
REMARK    1  A    between atoms: C_1  and  C_2
REMARK    2  A    between atoms: C_2  and  N_3
REMARK    3  A    between atoms: C_2  and  C_16
REMARK    4  A    between atoms: C_4  and  C_6
REMARK    5  A    between atoms: C_19  and  O_20
REMARK    6  A    between atoms: O_20  and  C_21
REMARK                            x       y       z     vdW  Elec       q    Type
REMARK                         _______ _______ _______ _____ _____    ______ ____
ROOT
ATOM      1  C   UNL     1      42.926   5.303  13.213  0.00  0.00    +0.000 C 
ATOM      2  C   UNL     1      44.222   4.531  12.938  0.00  0.00    +0.000 C 
ENDROOT
BRANCH   2   3
ATOM      3  C   UNL     1      44.495   4.304  11.462  0.00  0.00    +0.000 A 
ATOM      4  C   UNL     1      44.114   3.088  10.875  0.00  0.00    +0.000 A 
ATOM      5  C   UNL     1      44.343   2.850   9.519  0.00  0.00    +0.000 A 
ATOM      6  C   UNL     1      44.893   3.851   8.714  0.00  0.00    +0.000 A 
ATOM      7  C   UNL     1      45.351   5.027   9.298  0.00  0.00    +0.000 A 
ATOM      8  C   UNL     1      45.168   5.245  10.665  0.00  0.00    +0.000 A 
BRANCH   6   9
ATOM      9  O   UNL     1      45.050   3.747   7.349  0.00  0.00    +0.000 OA
BRANCH   9  10
ATOM     10  C   UNL     1      46.152   3.083   6.854  0.00  0.00    +0.000 A 
ATOM     11  C   UNL     1      46.794   3.409   5.661  0.00  0.00    +0.000 A 
ATOM     12  C   UNL     1      47.813   2.586   5.221  0.00  0.00    +0.000 A 
ATOM     13  N   UNL     1      48.276   1.532   5.925  0.00  0.00    +0.000 NA
ATOM     14  C   UNL     1      47.694   1.295   7.120  0.00  0.00    +0.000 A 
ATOM     15  C   UNL     1      46.639   2.036   7.626  0.00  0.00    +0.000 A 
ENDBRANCH   9  10
ENDBRANCH   6   9
ENDBRANCH   2   3
BRANCH   2  16
ATOM     16  N   UNL     1      45.360   5.209  13.523  0.00  0.00    +0.000 N 
ATOM     17  C   UNL     1      46.468   4.540  13.976  0.00  0.00    +0.000 C 
ATOM     18  O   UNL     1      46.619   3.334  13.826  0.00  0.00    +0.000 OA
ATOM     19  H   UNL     1      45.215   6.175  13.794  0.00  0.00    +0.000 HD
BRANCH  17  20
ATOM     20  C   UNL     1      47.493   5.373  14.613  0.00  0.00    +0.000 A 
ATOM     21  C   UNL     1      47.861   5.132  15.929  0.00  0.00    +0.000 A 
ATOM     22  S   UNL     1      49.058   6.203  16.507  0.00  0.00    +0.000 S 
ATOM     23  C   UNL     1      49.087   7.053  15.032  0.00  0.00    +0.000 A 
ATOM     24  N   UNL     1      49.885   8.141  14.868  0.00  0.00    +0.000 NA
ATOM     25  C   UNL     1      49.779   8.711  13.713  0.00  0.00    +0.000 A 
ATOM     26  N   UNL     1      48.959   8.281  12.703  0.00  0.00    +0.000 N 
ATOM     27  C   UNL     1      48.183   7.152  12.801  0.00  0.00    +0.000 A 
ATOM     28  O   UNL     1      47.540   6.732  11.839  0.00  0.00    +0.000 OA
ATOM     29  C   UNL     1      48.227   6.502  14.100  0.00  0.00    +0.000 A 
ATOM     30  H   UNL     1      48.948   8.755  11.812  0.00  0.00    +0.000 HD
ENDBRANCH  17  20
ENDBRANCH   2  16
TORSDOF 5
ENDMDL
MODEL 3
REMARK VINA RESULT:    -7.807      1.721      2.348
REMARK INTER + INTRA:         -10.711
REMARK INTER:                 -10.826
REMARK INTRA:                   0.115
REMARK UNBOUND:                -0.622
REMARK  Name = 
REMARK  6 active torsions:
REMARK  status: ('A' for Active; 'I' for Inactive)
REMARK    1  A    between atoms: C_1  and  C_2
REMARK    2  A    between atoms: C_2  and  N_3
REMARK    3  A    between atoms: C_2  and  C_16
REMARK    4  A    between atoms: C_4  and  C_6
REMARK    5  A    between atoms: C_19  and  O_20
REMARK    6  A    between atoms: O_20  and  C_21
REMARK                            x       y       z     vdW  Elec       q    Type
REMARK                         _______ _______ _______ _____ _____    ______ ____
ROOT
ATOM      1  C   UNL     1      45.977   8.744  11.786  0.00  0.00    +0.000 C 
ATOM      2  C   UNL     1      45.433   7.495  12.488  0.00  0.00    +0.000 C 
ENDROOT
BRANCH   2   3
ATOM      3  C   UNL     1      45.287   6.295  11.570  0.00  0.00    +0.000 A 
ATOM      4  C   UNL     1      44.595   5.163  12.028  0.00  0.00    +0.000 A 
ATOM      5  C   UNL     1      44.435   4.046  11.207  0.00  0.00    +0.000 A 
ATOM      6  C   UNL     1      44.907   4.069   9.892  0.00  0.00    +0.000 A 
ATOM      7  C   UNL     1      45.666   5.148   9.453  0.00  0.00    +0.000 A 
ATOM      8  C   UNL     1      45.868   6.246  10.292  0.00  0.00    +0.000 A 
BRANCH   6   9
ATOM      9  O   UNL     1      44.696   3.060   8.978  0.00  0.00    +0.000 OA
BRANCH   9  10
ATOM     10  C   UNL     1      45.764   2.593   8.243  0.00  0.00    +0.000 A 
ATOM     11  C   UNL     1      46.573   3.393   7.437  0.00  0.00    +0.000 A 
ATOM     12  C   UNL     1      47.535   2.776   6.661  0.00  0.00    +0.000 A 
ATOM     13  N   UNL     1      47.790   1.453   6.701  0.00  0.00    +0.000 NA
ATOM     14  C   UNL     1      47.050   0.715   7.558  0.00  0.00    +0.000 A 
ATOM     15  C   UNL     1      46.036   1.234   8.345  0.00  0.00    +0.000 A 
ENDBRANCH   9  10
ENDBRANCH   6   9
ENDBRANCH   2   3
BRANCH   2  16
ATOM     16  N   UNL     1      46.274   7.125  13.608  0.00  0.00    +0.000 N 
ATOM     17  C   UNL     1      47.608   6.838  13.468  0.00  0.00    +0.000 C 
ATOM     18  O   UNL     1      48.205   6.972  12.408  0.00  0.00    +0.000 OA
ATOM     19  H   UNL     1      45.794   6.865  14.462  0.00  0.00    +0.000 HD
BRANCH  17  20
ATOM     20  C   UNL     1      48.291   6.403  14.691  0.00  0.00    +0.000 A 
ATOM     21  C   UNL     1      49.375   7.124  15.171  0.00  0.00    +0.000 A 
ATOM     22  S   UNL     1      50.049   6.469  16.595  0.00  0.00    +0.000 S 
ATOM     23  C   UNL     1      48.944   5.174  16.589  0.00  0.00    +0.000 A 
ATOM     24  N   UNL     1      49.003   4.200  17.534  0.00  0.00    +0.000 NA
ATOM     25  C   UNL     1      48.128   3.259  17.387  0.00  0.00    +0.000 A 
ATOM     26  N   UNL     1      47.192   3.214  16.387  0.00  0.00    +0.000 N 
ATOM     27  C   UNL     1      47.056   4.206  15.447  0.00  0.00    +0.000 A 
ATOM     28  O   UNL     1      46.137   4.190  14.629  0.00  0.00    +0.000 OA
ATOM     29  C   UNL     1      48.048   5.263  15.538  0.00  0.00    +0.000 A 
ATOM     30  H   UNL     1      46.516   2.465  16.348  0.00  0.00    +0.000 HD
ENDBRANCH  17  20
ENDBRANCH   2  16
TORSDOF 5
ENDMDL
MODEL 4
REMARK VINA RESULT:    -7.695      1.932      2.729
REMARK INTER + INTRA:         -10.566
REMARK INTER:                 -10.375
REMARK INTRA:                  -0.192
REMARK UNBOUND:                -0.622
REMARK  Name = 
REMARK  6 active torsions:
REMARK  status: ('A' for Active; 'I' for Inactive)
REMARK    1  A    between atoms: C_1  and  C_2
REMARK    2  A    between atoms: C_2  and  N_3
REMARK    3  A    between atoms: C_2  and  C_16
REMARK    4  A    between atoms: C_4  and  C_6
REMARK    5  A    between atoms: C_19  and  O_20
REMARK    6  A    between atoms: O_20  and  C_21
REMARK                            x       y       z     vdW  Elec       q    Type
REMARK                         _______ _______ _______ _____ _____    ______ ____
ROOT
ATOM      1  C   UNL     1      47.040   8.161  12.119  0.00  0.00    +0.000 C 
ATOM      2  C   UNL     1      45.945   7.209  12.615  0.00  0.00    +0.000 C 
ENDROOT
BRANCH   2   3
ATOM      3  C   UNL     1      45.530   6.170  11.589  0.00  0.00    +0.000 A 
ATOM      4  C   UNL     1      46.087   6.218  10.302  0.00  0.00    +0.000 A 
ATOM      5  C   UNL     1      45.734   5.274   9.337  0.00  0.00    +0.000 A 
ATOM      6  C   UNL     1      44.870   4.226   9.665  0.00  0.00    +0.000 A 
ATOM      7  C   UNL     1      44.246   4.213  10.908  0.00  0.00    +0.000 A 
ATOM      8  C   UNL     1      44.562   5.187  11.857  0.00  0.00    +0.000 A 
BRANCH   6   9
ATOM      9  O   UNL     1      44.555   3.189   8.815  0.00  0.00    +0.000 OA
BRANCH   9  10
ATOM     10  C   UNL     1      45.552   2.639   8.037  0.00  0.00    +0.000 A 
ATOM     11  C   UNL     1      46.120   3.267   6.931  0.00  0.00    +0.000 A 
ATOM     12  C   UNL     1      47.026   2.554   6.168  0.00  0.00    +0.000 A 
ATOM     13  N   UNL     1      47.451   1.314   6.483  0.00  0.00    +0.000 NA
ATOM     14  C   UNL     1      46.950   0.766   7.611  0.00  0.00    +0.000 A 
ATOM     15  C   UNL     1      46.008   1.383   8.417  0.00  0.00    +0.000 A 
ENDBRANCH   9  10
ENDBRANCH   6   9
ENDBRANCH   2   3
BRANCH   2  16
ATOM     16  N   UNL     1      46.363   6.529  13.823  0.00  0.00    +0.000 N 
ATOM     17  C   UNL     1      47.575   5.897  13.936  0.00  0.00    +0.000 C 
ATOM     18  O   UNL     1      48.431   5.950  13.062  0.00  0.00    +0.000 OA
ATOM     19  H   UNL     1      45.636   6.340  14.505  0.00  0.00    +0.000 HD
BRANCH  17  20
ATOM     20  C   UNL     1      47.803   5.189  15.200  0.00  0.00    +0.000 A 
ATOM     21  C   UNL     1      47.161   3.985  15.445  0.00  0.00    +0.000 A 
ATOM     22  S   UNL     1      47.537   3.310  16.966  0.00  0.00    +0.000 S 
ATOM     23  C   UNL     1      48.535   4.630  17.366  0.00  0.00    +0.000 A 
ATOM     24  N   UNL     1      49.146   4.703  18.577  0.00  0.00    +0.000 NA
ATOM     25  C   UNL     1      49.843   5.776  18.760  0.00  0.00    +0.000 A 
ATOM     26  N   UNL     1      49.994   6.775  17.834  0.00  0.00    +0.000 N 
ATOM     27  C   UNL     1      49.447   6.716  16.576  0.00  0.00    +0.000 A 
ATOM     28  O   UNL     1      49.691   7.577  15.732  0.00  0.00    +0.000 OA
ATOM     29  C   UNL     1      48.612   5.552  16.337  0.00  0.00    +0.000 A 
ATOM     30  H   UNL     1      50.580   7.574  18.030  0.00  0.00    +0.000 HD
ENDBRANCH  17  20
ENDBRANCH   2  16
TORSDOF 5
ENDMDL
MODEL 5
REMARK VINA RESULT:    -7.660      2.326      3.539
REMARK INTER + INTRA:         -10.521
REMARK INTER:                  -9.220
REMARK INTRA:                  -1.301
REMARK UNBOUND:                -0.622
REMARK  Name = 
REMARK  6 active torsions:
REMARK  status: ('A' for Active; 'I' for Inactive)
REMARK    1  A    between atoms: C_1  and  C_2
REMARK    2  A    between atoms: C_2  and  N_3
REMARK    3  A    between atoms: C_2  and  C_16
REMARK    4  A    between atoms: C_4  and  C_6
REMARK    5  A    between atoms: C_19  and  O_20
REMARK    6  A    between atoms: O_20  and  C_21
REMARK                            x       y       z     vdW  Elec       q    Type
REMARK                         _______ _______ _______ _____ _____    ______ ____
ROOT
ATOM      1  C   UNL     1      48.197   8.822  12.841  0.00  0.00    +0.000 C 
ATOM      2  C   UNL     1      47.362   7.876  13.711  0.00  0.00    +0.000 C 
ENDROOT
BRANCH   2   3
ATOM      3  C   UNL     1      46.427   6.982  12.916  0.00  0.00    +0.000 A 
ATOM      4  C   UNL     1      45.426   7.569  12.128  0.00  0.00    +0.000 A 
ATOM      5  C   UNL     1      44.555   6.778  11.378  0.00  0.00    +0.000 A 
ATOM      6  C   UNL     1      44.715   5.389  11.351  0.00  0.00    +0.000 A 
ATOM      7  C   UNL     1      45.648   4.789  12.191  0.00  0.00    +0.000 A 
ATOM      8  C   UNL     1      46.487   5.580  12.979  0.00  0.00    +0.000 A 
BRANCH   6   9
ATOM      9  O   UNL     1      43.978   4.541  10.555  0.00  0.00    +0.000 OA
BRANCH   9  10
ATOM     10  C   UNL     1      44.634   3.751   9.636  0.00  0.00    +0.000 A 
ATOM     11  C   UNL     1      44.610   2.358   9.640  0.00  0.00    +0.000 A 
ATOM     12  C   UNL     1      45.410   1.688   8.734  0.00  0.00    +0.000 A 
ATOM     13  N   UNL     1      46.150   2.308   7.792  0.00  0.00    +0.000 NA
ATOM     14  C   UNL     1      46.083   3.657   7.755  0.00  0.00    +0.000 A 
ATOM     15  C   UNL     1      45.345   4.418   8.646  0.00  0.00    +0.000 A 
ENDBRANCH   9  10
ENDBRANCH   6   9
ENDBRANCH   2   3
BRANCH   2  16
ATOM     16  N   UNL     1      48.217   7.042  14.532  0.00  0.00    +0.000 N 
ATOM     17  C   UNL     1      48.684   7.443  15.757  0.00  0.00    +0.000 C 
ATOM     18  O   UNL     1      48.333   8.487  16.290  0.00  0.00    +0.000 OA
ATOM     19  H   UNL     1      48.642   6.246  14.070  0.00  0.00    +0.000 HD
BRANCH  17  20
ATOM     20  C   UNL     1      49.603   6.510  16.418  0.00  0.00    +0.000 A 
ATOM     21  C   UNL     1      50.889   6.917  16.741  0.00  0.00    +0.000 A 
ATOM     22  S   UNL     1      51.818   5.700  17.495  0.00  0.00    +0.000 S 
ATOM     23  C   UNL     1      50.546   4.575  17.370  0.00  0.00    +0.000 A 
ATOM     24  N   UNL     1      50.702   3.294  17.798  0.00  0.00    +0.000 NA
ATOM     25  C   UNL     1      49.669   2.540  17.608  0.00  0.00    +0.000 A 
ATOM     26  N   UNL     1      48.492   2.956  17.043  0.00  0.00    +0.000 N 
ATOM     27  C   UNL     1      48.269   4.254  16.654  0.00  0.00    +0.000 A 
ATOM     28  O   UNL     1      47.165   4.620  16.251  0.00  0.00    +0.000 OA
ATOM     29  C   UNL     1      49.416   5.132  16.799  0.00  0.00    +0.000 A 
ATOM     30  H   UNL     1      47.712   2.321  16.953  0.00  0.00    +0.000 HD
ENDBRANCH  17  20
ENDBRANCH   2  16
TORSDOF 5
ENDMDL
MODEL 6
REMARK VINA RESULT:    -7.351      3.612      6.176
REMARK INTER + INTRA:         -10.121
REMARK INTER:                  -8.844
REMARK INTRA:                  -1.277
REMARK UNBOUND:                -0.622
REMARK  Name = 
REMARK  6 active torsions:
REMARK  status: ('A' for Active; 'I' for Inactive)
REMARK    1  A    between atoms: C_1  and  C_2
REMARK    2  A    between atoms: C_2  and  N_3
REMARK    3  A    between atoms: C_2  and  C_16
REMARK    4  A    between atoms: C_4  and  C_6
REMARK    5  A    between atoms: C_19  and  O_20
REMARK    6  A    between atoms: O_20  and  C_21
REMARK                            x       y       z     vdW  Elec       q    Type
REMARK                         _______ _______ _______ _____ _____    ______ ____
ROOT
ATOM      1  C   UNL     1      49.984   7.811  15.601  0.00  0.00    +0.000 C 
ATOM      2  C   UNL     1      49.317   6.636  16.326  0.00  0.00    +0.000 C 
ENDROOT
BRANCH   2   3
ATOM      3  C   UNL     1      48.349   5.854  15.458  0.00  0.00    +0.000 A 
ATOM      4  C   UNL     1      48.103   6.288  14.146  0.00  0.00    +0.000 A 
ATOM      5  C   UNL     1      47.225   5.588  13.317  0.00  0.00    +0.000 A 
ATOM      6  C   UNL     1      46.632   4.404  13.765  0.00  0.00    +0.000 A 
ATOM      7  C   UNL     1      46.801   4.008  15.087  0.00  0.00    +0.000 A 
ATOM      8  C   UNL     1      47.641   4.737  15.932  0.00  0.00    +0.000 A 
BRANCH   6   9
ATOM      9  O   UNL     1      45.844   3.589  12.981  0.00  0.00    +0.000 OA
BRANCH   9  10
ATOM     10  C   UNL     1      44.794   4.148  12.285  0.00  0.00    +0.000 A 
ATOM     11  C   UNL     1      44.736   4.249  10.897  0.00  0.00    +0.000 A 
ATOM     12  C   UNL     1      43.680   4.941  10.335  0.00  0.00    +0.000 A 
ATOM     13  N   UNL     1      42.659   5.452  11.051  0.00  0.00    +0.000 NA
ATOM     14  C   UNL     1      42.696   5.261  12.388  0.00  0.00    +0.000 A 
ATOM     15  C   UNL     1      43.731   4.619  13.047  0.00  0.00    +0.000 A 
ENDBRANCH   9  10
ENDBRANCH   6   9
ENDBRANCH   2   3
BRANCH   2  16
ATOM     16  N   UNL     1      50.312   5.724  16.851  0.00  0.00    +0.000 N 
ATOM     17  C   UNL     1      50.356   5.357  18.172  0.00  0.00    +0.000 C 
ATOM     18  O   UNL     1      49.499   5.692  18.980  0.00  0.00    +0.000 OA
ATOM     19  H   UNL     1      51.113   5.543  16.256  0.00  0.00    +0.000 HD
BRANCH  17  20
ATOM     20  C   UNL     1      51.477   4.490  18.550  0.00  0.00    +0.000 A 
ATOM     21  C   UNL     1      52.482   4.977  19.372  0.00  0.00    +0.000 A 
ATOM     22  S   UNL     1      53.707   3.834  19.698  0.00  0.00    +0.000 S 
ATOM     23  C   UNL     1      52.955   2.666  18.714  0.00  0.00    +0.000 A 
ATOM     24  N   UNL     1      53.522   1.446  18.520  0.00  0.00    +0.000 NA
ATOM     25  C   UNL     1      52.863   0.673  17.720  0.00  0.00    +0.000 A 
ATOM     26  N   UNL     1      51.682   1.006  17.110  0.00  0.00    +0.000 N 
ATOM     27  C   UNL     1      51.043   2.202  17.324  0.00  0.00    +0.000 A 
ATOM     28  O   UNL     1      49.931   2.427  16.847  0.00  0.00    +0.000 OA
ATOM     29  C   UNL     1      51.767   3.128  18.177  0.00  0.00    +0.000 A 
ATOM     30  H   UNL     1      51.203   0.341  16.520  0.00  0.00    +0.000 HD
ENDBRANCH  17  20
ENDBRANCH   2  16
TORSDOF 5
ENDMDL
MODEL 7
REMARK VINA RESULT:    -7.272      2.559      3.899
REMARK INTER + INTRA:         -10.020
REMARK INTER:                  -8.985
REMARK INTRA:                  -1.035
REMARK UNBOUND:                -0.622
REMARK  Name = 
REMARK  6 active torsions:
REMARK  status: ('A' for Active; 'I' for Inactive)
REMARK    1  A    between atoms: C_1  and  C_2
REMARK    2  A    between atoms: C_2  and  N_3
REMARK    3  A    between atoms: C_2  and  C_16
REMARK    4  A    between atoms: C_4  and  C_6
REMARK    5  A    between atoms: C_19  and  O_20
REMARK    6  A    between atoms: O_20  and  C_21
REMARK                            x       y       z     vdW  Elec       q    Type
REMARK                         _______ _______ _______ _____ _____    ______ ____
ROOT
ATOM      1  C   UNL     1      49.517   7.481  13.212  0.00  0.00    +0.000 C 
ATOM      2  C   UNL     1      48.083   7.769  13.672  0.00  0.00    +0.000 C 
ENDROOT
BRANCH   2   3
ATOM      3  C   UNL     1      47.033   6.962  12.931  0.00  0.00    +0.000 A 
ATOM      4  C   UNL     1      46.155   7.621  12.056  0.00  0.00    +0.000 A 
ATOM      5  C   UNL     1      45.182   6.909  11.353  0.00  0.00    +0.000 A 
ATOM      6  C   UNL     1      45.117   5.517  11.461  0.00  0.00    +0.000 A 
ATOM      7  C   UNL     1      45.924   4.861  12.386  0.00  0.00    +0.000 A 
ATOM      8  C   UNL     1      46.863   5.581  13.126  0.00  0.00    +0.000 A 
BRANCH   6   9
ATOM      9  O   UNL     1      44.268   4.723  10.722  0.00  0.00    +0.000 OA
BRANCH   9  10
ATOM     10  C   UNL     1      44.802   3.887   9.765  0.00  0.00    +0.000 A 
ATOM     11  C   UNL     1      44.677   2.500   9.776  0.00  0.00    +0.000 A 
ATOM     12  C   UNL     1      45.364   1.774   8.821  0.00  0.00    +0.000 A 
ATOM     13  N   UNL     1      46.082   2.339   7.830  0.00  0.00    +0.000 NA
ATOM     14  C   UNL     1      46.112   3.689   7.792  0.00  0.00    +0.000 A 
ATOM     15  C   UNL     1      45.492   4.501   8.726  0.00  0.00    +0.000 A 
ENDBRANCH   9  10
ENDBRANCH   6   9
ENDBRANCH   2   3
BRANCH   2  16
ATOM     16  N   UNL     1      47.939   7.528  15.092  0.00  0.00    +0.000 N 
ATOM     17  C   UNL     1      48.541   8.314  16.041  0.00  0.00    +0.000 C 
ATOM     18  O   UNL     1      49.157   9.334  15.761  0.00  0.00    +0.000 OA
ATOM     19  H   UNL     1      47.564   6.623  15.358  0.00  0.00    +0.000 HD
BRANCH  17  20
ATOM     20  C   UNL     1      48.356   7.881  17.430  0.00  0.00    +0.000 A 
ATOM     21  C   UNL     1      48.018   8.807  18.405  0.00  0.00    +0.000 A 
ATOM     22  S   UNL     1      47.853   8.127  19.962  0.00  0.00    +0.000 S 
ATOM     23  C   UNL     1      48.276   6.580  19.390  0.00  0.00    +0.000 A 
ATOM     24  N   UNL     1      48.370   5.523  20.239  0.00  0.00    +0.000 NA
ATOM     25  C   UNL     1      48.736   4.418  19.676  0.00  0.00    +0.000 A 
ATOM     26  N   UNL     1      49.002   4.273  18.339  0.00  0.00    +0.000 N 
ATOM     27  C   UNL     1      48.860   5.298  17.436  0.00  0.00    +0.000 A 
ATOM     28  O   UNL     1      49.001   5.109  16.228  0.00  0.00    +0.000 OA
ATOM     29  C   UNL     1      48.499   6.576  18.025  0.00  0.00    +0.000 A 
ATOM     30  H   UNL     1      49.253   3.373  17.959  0.00  0.00    +0.000 HD
ENDBRANCH  17  20
ENDBRANCH   2  16
TORSDOF 5
ENDMDL
MODEL 8
REMARK VINA RESULT:    -7.244      2.675      3.873
REMARK INTER + INTRA:          -9.984
REMARK INTER:                  -9.053
REMARK INTRA:                  -0.931
REMARK UNBOUND:                -0.622
REMARK  Name = 
REMARK  6 active torsions:
REMARK  status: ('A' for Active; 'I' for Inactive)
REMARK    1  A    between atoms: C_1  and  C_2
REMARK    2  A    between atoms: C_2  and  N_3
REMARK    3  A    between atoms: C_2  and  C_16
REMARK    4  A    between atoms: C_4  and  C_6
REMARK    5  A    between atoms: C_19  and  O_20
REMARK    6  A    between atoms: O_20  and  C_21
REMARK                            x       y       z     vdW  Elec       q    Type
REMARK                         _______ _______ _______ _____ _____    ______ ____
ROOT
ATOM      1  C   UNL     1      48.748   7.985  13.023  0.00  0.00    +0.000 C 
ATOM      2  C   UNL     1      47.612   7.281  13.775  0.00  0.00    +0.000 C 
ENDROOT
BRANCH   2   3
ATOM      3  C   UNL     1      46.675   6.500  12.872  0.00  0.00    +0.000 A 
ATOM      4  C   UNL     1      46.058   7.155  11.795  0.00  0.00    +0.000 A 
ATOM      5  C   UNL     1      45.199   6.465  10.940  0.00  0.00    +0.000 A 
ATOM      6  C   UNL     1      44.995   5.092  11.107  0.00  0.00    +0.000 A 
ATOM      7  C   UNL     1      45.533   4.449  12.217  0.00  0.00    +0.000 A 
ATOM      8  C   UNL     1      46.354   5.151  13.102  0.00  0.00    +0.000 A 
BRANCH   6   9
ATOM      9  O   UNL     1      44.256   4.310  10.248  0.00  0.00    +0.000 OA
BRANCH   9  10
ATOM     10  C   UNL     1      44.917   3.516   9.335  0.00  0.00    +0.000 A 
ATOM     11  C   UNL     1      44.910   2.123   9.356  0.00  0.00    +0.000 A 
ATOM     12  C   UNL     1      45.713   1.451   8.454  0.00  0.00    +0.000 A 
ATOM     13  N   UNL     1      46.439   2.068   7.501  0.00  0.00    +0.000 NA
ATOM     14  C   UNL     1      46.356   3.415   7.447  0.00  0.00    +0.000 A 
ATOM     15  C   UNL     1      45.614   4.178   8.332  0.00  0.00    +0.000 A 
ENDBRANCH   9  10
ENDBRANCH   6   9
ENDBRANCH   2   3
BRANCH   2  16
ATOM     16  N   UNL     1      48.139   6.386  14.785  0.00  0.00    +0.000 N 
ATOM     17  C   UNL     1      48.656   6.834  15.973  0.00  0.00    +0.000 C 
ATOM     18  O   UNL     1      48.616   8.010  16.311  0.00  0.00    +0.000 OA
ATOM     19  H   UNL     1      48.322   5.434  14.488  0.00  0.00    +0.000 HD
BRANCH  17  20
ATOM     20  C   UNL     1      49.221   5.799  16.846  0.00  0.00    +0.000 A 
ATOM     21  C   UNL     1      48.378   4.956  17.555  0.00  0.00    +0.000 A 
ATOM     22  S   UNL     1      49.208   3.822  18.523  0.00  0.00    +0.000 S 
ATOM     23  C   UNL     1      50.720   4.453  18.062  0.00  0.00    +0.000 A 
ATOM     24  N   UNL     1      51.873   3.951  18.577  0.00  0.00    +0.000 NA
ATOM     25  C   UNL     1      52.944   4.549  18.169  0.00  0.00    +0.000 A 
ATOM     26  N   UNL     1      52.965   5.592  17.280  0.00  0.00    +0.000 N 
ATOM     27  C   UNL     1      51.831   6.090  16.688  0.00  0.00    +0.000 A 
ATOM     28  O   UNL     1      51.894   6.954  15.814  0.00  0.00    +0.000 OA
ATOM     29  C   UNL     1      50.594   5.486  17.151  0.00  0.00    +0.000 A 
ATOM     30  H   UNL     1      53.841   5.993  16.978  0.00  0.00    +0.000 HD
ENDBRANCH  17  20
ENDBRANCH   2  16
TORSDOF 5
ENDMDL
MODEL 9
REMARK VINA RESULT:    -7.229      3.874      8.704
REMARK INTER + INTRA:          -9.963
REMARK INTER:                  -9.536
REMARK INTRA:                  -0.428
REMARK UNBOUND:                -0.622
REMARK  Name = 
REMARK  6 active torsions:
REMARK  status: ('A' for Active; 'I' for Inactive)
REMARK    1  A    between atoms: C_1  and  C_2
REMARK    2  A    between atoms: C_2  and  N_3
REMARK    3  A    between atoms: C_2  and  C_16
REMARK    4  A    between atoms: C_4  and  C_6
REMARK    5  A    between atoms: C_19  and  O_20
REMARK    6  A    between atoms: O_20  and  C_21
REMARK                            x       y       z     vdW  Elec       q    Type
REMARK                         _______ _______ _______ _____ _____    ______ ____
ROOT
ATOM      1  C   UNL     1      48.264   6.697  18.159  0.00  0.00    +0.000 C 
ATOM      2  C   UNL     1      48.933   6.134  16.900  0.00  0.00    +0.000 C 
ENDROOT
BRANCH   2   3
ATOM      3  C   UNL     1      49.590   4.782  17.111  0.00  0.00    +0.000 A 
ATOM      4  C   UNL     1      48.801   3.622  17.056  0.00  0.00    +0.000 A 
ATOM      5  C   UNL     1      49.374   2.363  17.237  0.00  0.00    +0.000 A 
ATOM      6  C   UNL     1      50.756   2.239  17.408  0.00  0.00    +0.000 A 
ATOM      7  C   UNL     1      51.536   3.382  17.548  0.00  0.00    +0.000 A 
ATOM      8  C   UNL     1      50.954   4.644  17.416  0.00  0.00    +0.000 A 
BRANCH   6   9
ATOM      9  O   UNL     1      51.420   1.034  17.481  0.00  0.00    +0.000 OA
BRANCH   9  10
ATOM     10  C   UNL     1      52.790   1.037  17.635  0.00  0.00    +0.000 A 
ATOM     11  C   UNL     1      53.466   1.737  18.633  0.00  0.00    +0.000 A 
ATOM     12  C   UNL     1      54.847   1.750  18.600  0.00  0.00    +0.000 A 
ATOM     13  N   UNL     1      55.578   1.057  17.703  0.00  0.00    +0.000 NA
ATOM     14  C   UNL     1      54.896   0.316  16.803  0.00  0.00    +0.000 A 
ATOM     15  C   UNL     1      53.514   0.271  16.730  0.00  0.00    +0.000 A 
ENDBRANCH   9  10
ENDBRANCH   6   9
ENDBRANCH   2   3
BRANCH   2  16
ATOM     16  N   UNL     1      47.979   6.024  15.815  0.00  0.00    +0.000 N 
ATOM     17  C   UNL     1      48.280   6.382  14.526  0.00  0.00    +0.000 C 
ATOM     18  O   UNL     1      49.404   6.722  14.180  0.00  0.00    +0.000 OA
ATOM     19  H   UNL     1      47.011   5.887  16.083  0.00  0.00    +0.000 HD
BRANCH  17  20
ATOM     20  C   UNL     1      47.174   6.283  13.569  0.00  0.00    +0.000 A 
ATOM     21  C   UNL     1      46.655   7.431  12.988  0.00  0.00    +0.000 A 
ATOM     22  S   UNL     1      45.369   7.127  11.909  0.00  0.00    +0.000 S 
ATOM     23  C   UNL     1      45.433   5.454  12.219  0.00  0.00    +0.000 A 
ATOM     24  N   UNL     1      44.551   4.601  11.634  0.00  0.00    +0.000 NA
ATOM     25  C   UNL     1      44.690   3.365  11.988  0.00  0.00    +0.000 A 
ATOM     26  N   UNL     1      45.641   2.906  12.861  0.00  0.00    +0.000 N 
ATOM     27  C   UNL     1      46.590   3.720  13.427  0.00  0.00    +0.000 A 
ATOM     28  O   UNL     1      47.496   3.260  14.121  0.00  0.00    +0.000 OA
ATOM     29  C   UNL     1      46.447   5.129  13.101  0.00  0.00    +0.000 A 
ATOM     30  H   UNL     1      45.715   1.921  13.070  0.00  0.00    +0.000 HD
ENDBRANCH  17  20
ENDBRANCH   2  16
TORSDOF 5
ENDMDL
