MODEL 1
REMARK VINA RESULT:    -9.381      0.000      0.000
REMARK INTER + INTRA:         -12.508
REMARK INTER:                 -11.575
REMARK INTRA:                  -0.933
REMARK UNBOUND:                -0.933
REMARK  Name = 
REMARK  4 active torsions:
REMARK  status: ('A' for Active; 'I' for Inactive)
REMARK    1  A    between atoms: C_2  and  C_4
REMARK    2  A    between atoms: N_8  and  C_9
REMARK    3  A    between atoms: C_9  and  C_10
REMARK    4  A    between atoms: C_14  and  C_15
REMARK                            x       y       z     vdW  Elec       q    Type
REMARK                         _______ _______ _______ _____ _____    ______ ____
ROOT
ATOM      1  C   UNL     1      43.971   4.871  11.441  0.00  0.00    +0.000 C 
ATOM      2  C   UNL     1      42.664   5.056  12.212  0.00  0.00    +0.000 C 
ATOM      3  C   UNL     1      43.045   6.043  11.164  0.00  0.00    +0.000 C 
ENDROOT
BRANCH   1   8
ATOM      4  C   UNL     1      46.580   2.762   7.448  0.00  0.00    +0.000 A 
ATOM      5  C   UNL     1      46.301   4.102   7.699  0.00  0.00    +0.000 A 
ATOM      6  C   UNL     1      45.473   4.438   8.774  0.00  0.00    +0.000 A 
ATOM      7  C   UNL     1      44.931   3.433   9.568  0.00  0.00    +0.000 A 
ATOM      8  N   UNL     1      44.024   3.671  10.600  0.00  0.00    +0.000 N 
ATOM      9  N   UNL     1      45.191   2.129   9.326  0.00  0.00    +0.000 NA
ATOM     10  C   UNL     1      45.997   1.819   8.278  0.00  0.00    +0.000 A 
ATOM     11  H   UNL     1      43.855   2.774  11.049  0.00  0.00    +0.000 HD
BRANCH   4  13
ATOM     12  N   UNL     1      47.328   2.996   5.148  0.00  0.00    +0.000 N 
ATOM     13  C   UNL     1      47.427   2.308   6.327  0.00  0.00    +0.000 C 
ATOM     14  O   UNL     1      48.209   1.378   6.451  0.00  0.00    +0.000 OA
ATOM     15  H   UNL     1      47.985   2.737   4.421  0.00  0.00    +0.000 HD
ATOM     16  H   UNL     1      46.886   3.900   5.075  0.00  0.00    +0.000 HD
ENDBRANCH   4  13
ENDBRANCH   1   8
BRANCH   1  17
ATOM     17  C   UNL     1      45.266   5.170  12.189  0.00  0.00    +0.000 A 
ATOM     18  C   UNL     1      45.730   4.346  13.218  0.00  0.00    +0.000 A 
ATOM     19  C   UNL     1      46.956   4.619  13.802  0.00  0.00    +0.000 A 
ATOM     20  N   UNL     1      47.746   5.652  13.446  0.00  0.00    +0.000 NA
ATOM     21  C   UNL     1      47.292   6.486  12.480  0.00  0.00    +0.000 A 
ATOM     22  C   UNL     1      46.067   6.273  11.850  0.00  0.00    +0.000 A 
BRANCH  21  23
ATOM     23  C   UNL     1      48.182   7.611  12.123  0.00  0.00    +0.000 A 
ATOM     24  C   UNL     1      47.695   8.933  12.093  0.00  0.00    +0.000 A 
ATOM     25  C   UNL     1      48.526  10.006  11.754  0.00  0.00    +0.000 A 
ATOM     26  C   UNL     1      49.855   9.768  11.437  0.00  0.00    +0.000 A 
ATOM     27  F   UNL     1      50.650  10.793  11.103  0.00  0.00    +0.000 F 
ATOM     28  C   UNL     1      50.370   8.480  11.456  0.00  0.00    +0.000 A 
ATOM     29  C   UNL     1      49.539   7.409  11.798  0.00  0.00    +0.000 A 
ENDBRANCH  21  23
ENDBRANCH   1  17
TORSDOF 4
ENDMDL
MODEL 2
REMARK VINA RESULT:    -9.071      2.612      3.963
REMARK INTER + INTRA:         -12.126
REMARK INTER:                 -11.484
REMARK INTRA:                  -0.641
REMARK UNBOUND:                -0.933
REMARK  Name = 
REMARK  4 active torsions:
REMARK  status: ('A' for Active; 'I' for Inactive)
REMARK    1  A    between atoms: C_2  and  C_4
REMARK    2  A    between atoms: N_8  and  C_9
REMARK    3  A    between atoms: C_9  and  C_10
REMARK    4  A    between atoms: C_14  and  C_15
REMARK                            x       y       z     vdW  Elec       q    Type
REMARK                         _______ _______ _______ _____ _____    ______ ____
ROOT
ATOM      1  C   UNL     1      44.023   4.951  11.497  0.00  0.00    +0.000 C 
ATOM      2  C   UNL     1      42.785   5.092  12.382  0.00  0.00    +0.000 C 
ATOM      3  C   UNL     1      42.980   6.023  11.236  0.00  0.00    +0.000 C 
ENDROOT
BRANCH   1   8
ATOM      4  C   UNL     1      46.468   2.724   7.464  0.00  0.00    +0.000 A 
ATOM      5  C   UNL     1      46.117   4.058   7.645  0.00  0.00    +0.000 A 
ATOM      6  C   UNL     1      45.351   4.419   8.756  0.00  0.00    +0.000 A 
ATOM      7  C   UNL     1      44.939   3.443   9.657  0.00  0.00    +0.000 A 
ATOM      8  N   UNL     1      44.096   3.698  10.739  0.00  0.00    +0.000 N 
ATOM      9  N   UNL     1      45.269   2.144   9.485  0.00  0.00    +0.000 NA
ATOM     10  C   UNL     1      46.015   1.809   8.401  0.00  0.00    +0.000 A 
ATOM     11  H   UNL     1      44.023   2.828  11.260  0.00  0.00    +0.000 HD
BRANCH   4  13
ATOM     12  N   UNL     1      47.250   3.013   5.182  0.00  0.00    +0.000 N 
ATOM     13  C   UNL     1      47.260   2.243   6.314  0.00  0.00    +0.000 C 
ATOM     14  O   UNL     1      47.923   1.220   6.376  0.00  0.00    +0.000 OA
ATOM     15  H   UNL     1      47.874   2.724   4.438  0.00  0.00    +0.000 HD
ATOM     16  H   UNL     1      46.921   3.966   5.168  0.00  0.00    +0.000 HD
ENDBRANCH   4  13
ENDBRANCH   1   8
BRANCH   1  17
ATOM     17  C   UNL     1      45.354   5.405  12.088  0.00  0.00    +0.000 A 
ATOM     18  C   UNL     1      46.145   6.375  11.466  0.00  0.00    +0.000 A 
ATOM     19  C   UNL     1      47.300   6.809  12.093  0.00  0.00    +0.000 A 
ATOM     20  N   UNL     1      47.729   6.346  13.285  0.00  0.00    +0.000 NA
ATOM     21  C   UNL     1      46.998   5.375  13.883  0.00  0.00    +0.000 A 
ATOM     22  C   UNL     1      45.825   4.889  13.307  0.00  0.00    +0.000 A 
BRANCH  21  23
ATOM     23  C   UNL     1      47.505   4.888  15.182  0.00  0.00    +0.000 A 
ATOM     24  C   UNL     1      48.315   5.709  15.993  0.00  0.00    +0.000 A 
ATOM     25  C   UNL     1      48.804   5.260  17.224  0.00  0.00    +0.000 A 
ATOM     26  C   UNL     1      48.492   3.980  17.656  0.00  0.00    +0.000 A 
ATOM     27  F   UNL     1      48.968   3.544  18.831  0.00  0.00    +0.000 F 
ATOM     28  C   UNL     1      47.698   3.143  16.887  0.00  0.00    +0.000 A 
ATOM     29  C   UNL     1      47.207   3.595  15.658  0.00  0.00    +0.000 A 
ENDBRANCH  21  23
ENDBRANCH   1  17
TORSDOF 4
ENDMDL
MODEL 3
REMARK VINA RESULT:    -7.354      3.495      6.805
REMARK INTER + INTRA:         -10.006
REMARK INTER:                  -9.257
REMARK INTRA:                  -0.750
REMARK UNBOUND:                -0.933
REMARK  Name = 
REMARK  4 active torsions:
REMARK  status: ('A' for Active; 'I' for Inactive)
REMARK    1  A    between atoms: C_2  and  C_4
REMARK    2  A    between atoms: N_8  and  C_9
REMARK    3  A    between atoms: C_9  and  C_10
REMARK    4  A    between atoms: C_14  and  C_15
REMARK                            x       y       z     vdW  Elec       q    Type
REMARK                         _______ _______ _______ _____ _____    ______ ____
ROOT
ATOM      1  C   UNL     1      43.806   5.446  11.677  0.00  0.00    +0.000 C 
ATOM      2  C   UNL     1      42.366   5.958  11.677  0.00  0.00    +0.000 C 
ATOM      3  C   UNL     1      42.962   5.439  12.939  0.00  0.00    +0.000 C 
ENDROOT
BRANCH   1   8
ATOM      4  C   UNL     1      48.547   7.048  13.147  0.00  0.00    +0.000 A 
ATOM      5  C   UNL     1      47.548   6.457  13.913  0.00  0.00    +0.000 A 
ATOM      6  C   UNL     1      46.296   6.217  13.339  0.00  0.00    +0.000 A 
ATOM      7  C   UNL     1      46.063   6.582  12.017  0.00  0.00    +0.000 A 
ATOM      8  N   UNL     1      44.820   6.466  11.393  0.00  0.00    +0.000 N 
ATOM      9  N   UNL     1      47.025   7.163  11.268  0.00  0.00    +0.000 NA
ATOM     10  C   UNL     1      48.236   7.389  11.841  0.00  0.00    +0.000 A 
ATOM     11  H   UNL     1      44.958   6.736  10.422  0.00  0.00    +0.000 HD
BRANCH   4  13
ATOM     12  N   UNL     1      50.832   7.783  12.769  0.00  0.00    +0.000 N 
ATOM     13  C   UNL     1      49.893   7.357  13.670  0.00  0.00    +0.000 C 
ATOM     14  O   UNL     1      50.153   7.270  14.860  0.00  0.00    +0.000 OA
ATOM     15  H   UNL     1      51.718   8.086  13.155  0.00  0.00    +0.000 HD
ATOM     16  H   UNL     1      50.599   8.095  11.839  0.00  0.00    +0.000 HD
ENDBRANCH   4  13
ENDBRANCH   1   8
BRANCH   1  17
ATOM     17  C   UNL     1      44.064   4.101  11.005  0.00  0.00    +0.000 A 
ATOM     18  C   UNL     1      43.444   2.927  11.442  0.00  0.00    +0.000 A 
ATOM     19  C   UNL     1      43.649   1.753  10.739  0.00  0.00    +0.000 A 
ATOM     20  N   UNL     1      44.429   1.658   9.642  0.00  0.00    +0.000 NA
ATOM     21  C   UNL     1      45.072   2.776   9.229  0.00  0.00    +0.000 A 
ATOM     22  C   UNL     1      44.913   3.993   9.891  0.00  0.00    +0.000 A 
BRANCH  21  23
ATOM     23  C   UNL     1      45.923   2.630   8.031  0.00  0.00    +0.000 A 
ATOM     24  C   UNL     1      46.685   1.462   7.827  0.00  0.00    +0.000 A 
ATOM     25  C   UNL     1      47.497   1.312   6.698  0.00  0.00    +0.000 A 
ATOM     26  C   UNL     1      47.560   2.332   5.761  0.00  0.00    +0.000 A 
ATOM     27  F   UNL     1      48.345   2.194   4.684  0.00  0.00    +0.000 F 
ATOM     28  C   UNL     1      46.824   3.496   5.927  0.00  0.00    +0.000 A 
ATOM     29  C   UNL     1      46.010   3.643   7.054  0.00  0.00    +0.000 A 
ENDBRANCH  21  23
ENDBRANCH   1  17
TORSDOF 4
ENDMDL
MODEL 4
REMARK VINA RESULT:    -6.927      4.658      8.474
REMARK INTER + INTRA:          -9.480
REMARK INTER:                  -8.585
REMARK INTRA:                  -0.895
REMARK UNBOUND:                -0.933
REMARK  Name = 
REMARK  4 active torsions:
REMARK  status: ('A' for Active; 'I' for Inactive)
REMARK    1  A    between atoms: C_2  and  C_4
REMARK    2  A    between atoms: N_8  and  C_9
REMARK    3  A    between atoms: C_9  and  C_10
REMARK    4  A    between atoms: C_14  and  C_15
REMARK                            x       y       z     vdW  Elec       q    Type
REMARK                         _______ _______ _______ _____ _____    ______ ____
ROOT
ATOM      1  C   UNL     1      49.062   8.098  12.954  0.00  0.00    +0.000 C 
ATOM      2  C   UNL     1      50.039   8.475  11.841  0.00  0.00    +0.000 C 
ATOM      3  C   UNL     1      49.599   9.512  12.816  0.00  0.00    +0.000 C 
ENDROOT
BRANCH   1   8
ATOM      4  C   UNL     1      48.636   6.656  17.948  0.00  0.00    +0.000 A 
ATOM      5  C   UNL     1      48.508   7.924  17.391  0.00  0.00    +0.000 A 
ATOM      6  C   UNL     1      48.785   8.106  16.033  0.00  0.00    +0.000 A 
ATOM      7  C   UNL     1      49.196   7.024  15.262  0.00  0.00    +0.000 A 
ATOM      8  N   UNL     1      49.583   7.132  13.926  0.00  0.00    +0.000 N 
ATOM      9  N   UNL     1      49.331   5.790  15.797  0.00  0.00    +0.000 NA
ATOM     10  C   UNL     1      49.057   5.630  17.118  0.00  0.00    +0.000 A 
ATOM     11  H   UNL     1      49.762   6.185  13.600  0.00  0.00    +0.000 HD
BRANCH   4  13
ATOM     12  N   UNL     1      47.472   5.389  19.663  0.00  0.00    +0.000 N 
ATOM     13  C   UNL     1      48.383   6.368  19.374  0.00  0.00    +0.000 C 
ATOM     14  O   UNL     1      48.983   6.955  20.262  0.00  0.00    +0.000 OA
ATOM     15  H   UNL     1      47.382   5.134  20.640  0.00  0.00    +0.000 HD
ATOM     16  H   UNL     1      47.141   4.727  18.978  0.00  0.00    +0.000 HD
ENDBRANCH   4  13
ENDBRANCH   1   8
BRANCH   1  17
ATOM     17  C   UNL     1      47.610   7.862  12.552  0.00  0.00    +0.000 A 
ATOM     18  C   UNL     1      46.612   8.807  12.806  0.00  0.00    +0.000 A 
ATOM     19  C   UNL     1      45.329   8.576  12.341  0.00  0.00    +0.000 A 
ATOM     20  N   UNL     1      44.964   7.476  11.652  0.00  0.00    +0.000 NA
ATOM     21  C   UNL     1      45.909   6.529  11.433  0.00  0.00    +0.000 A 
ATOM     22  C   UNL     1      47.220   6.695  11.875  0.00  0.00    +0.000 A 
BRANCH  21  23
ATOM     23  C   UNL     1      45.469   5.335  10.682  0.00  0.00    +0.000 A 
ATOM     24  C   UNL     1      44.825   4.268  11.340  0.00  0.00    +0.000 A 
ATOM     25  C   UNL     1      44.406   3.131  10.642  0.00  0.00    +0.000 A 
ATOM     26  C   UNL     1      44.632   3.046   9.277  0.00  0.00    +0.000 A 
ATOM     27  F   UNL     1      44.240   1.953   8.608  0.00  0.00    +0.000 F 
ATOM     28  C   UNL     1      45.263   4.076   8.595  0.00  0.00    +0.000 A 
ATOM     29  C   UNL     1      45.678   5.213   9.293  0.00  0.00    +0.000 A 
ENDBRANCH  21  23
ENDBRANCH   1  17
TORSDOF 4
ENDMDL
MODEL 5
REMARK VINA RESULT:    -6.897      4.053      7.747
REMARK INTER + INTRA:          -9.443
REMARK INTER:                  -9.572
REMARK INTRA:                   0.130
REMARK UNBOUND:                -0.933
REMARK  Name = 
REMARK  4 active torsions:
REMARK  status: ('A' for Active; 'I' for Inactive)
REMARK    1  A    between atoms: C_2  and  C_4
REMARK    2  A    between atoms: N_8  and  C_9
REMARK    3  A    between atoms: C_9  and  C_10
REMARK    4  A    between atoms: C_14  and  C_15
REMARK                            x       y       z     vdW  Elec       q    Type
REMARK                         _______ _______ _______ _____ _____    ______ ____
ROOT
ATOM      1  C   UNL     1      48.569   7.976  12.852  0.00  0.00    +0.000 C 
ATOM      2  C   UNL     1      49.748   7.439  12.042  0.00  0.00    +0.000 C 
ATOM      3  C   UNL     1      49.459   8.900  12.040  0.00  0.00    +0.000 C 
ENDROOT
BRANCH   1   8
ATOM      4  C   UNL     1      47.986   4.449  16.649  0.00  0.00    +0.000 A 
ATOM      5  C   UNL     1      47.272   4.581  15.463  0.00  0.00    +0.000 A 
ATOM      6  C   UNL     1      47.515   5.683  14.638  0.00  0.00    +0.000 A 
ATOM      7  C   UNL     1      48.455   6.635  15.017  0.00  0.00    +0.000 A 
ATOM      8  N   UNL     1      48.694   7.810  14.303  0.00  0.00    +0.000 N 
ATOM      9  N   UNL     1      49.148   6.518  16.171  0.00  0.00    +0.000 NA
ATOM     10  C   UNL     1      48.900   5.441  16.962  0.00  0.00    +0.000 A 
ATOM     11  H   UNL     1      49.472   8.275  14.765  0.00  0.00    +0.000 HD
BRANCH   4  13
ATOM     12  N   UNL     1      48.769   3.114  18.522  0.00  0.00    +0.000 N 
ATOM     13  C   UNL     1      47.787   3.331  17.594  0.00  0.00    +0.000 C 
ATOM     14  O   UNL     1      46.775   2.647  17.573  0.00  0.00    +0.000 OA
ATOM     15  H   UNL     1      48.573   2.410  19.225  0.00  0.00    +0.000 HD
ATOM     16  H   UNL     1      49.490   3.789  18.728  0.00  0.00    +0.000 HD
ENDBRANCH   4  13
ENDBRANCH   1   8
BRANCH   1  17
ATOM     17  C   UNL     1      47.171   7.701  12.308  0.00  0.00    +0.000 A 
ATOM     18  C   UNL     1      46.160   8.666  12.349  0.00  0.00    +0.000 A 
ATOM     19  C   UNL     1      44.938   8.390  11.762  0.00  0.00    +0.000 A 
ATOM     20  N   UNL     1      44.644   7.227  11.145  0.00  0.00    +0.000 NA
ATOM     21  C   UNL     1      45.597   6.264  11.132  0.00  0.00    +0.000 A 
ATOM     22  C   UNL     1      46.850   6.473  11.707  0.00  0.00    +0.000 A 
BRANCH  21  23
ATOM     23  C   UNL     1      45.235   5.002  10.455  0.00  0.00    +0.000 A 
ATOM     24  C   UNL     1      44.531   3.993  11.142  0.00  0.00    +0.000 A 
ATOM     25  C   UNL     1      44.184   2.792  10.515  0.00  0.00    +0.000 A 
ATOM     26  C   UNL     1      44.543   2.584   9.191  0.00  0.00    +0.000 A 
ATOM     27  F   UNL     1      44.221   1.431   8.591  0.00  0.00    +0.000 F 
ATOM     28  C   UNL     1      45.236   3.555   8.482  0.00  0.00    +0.000 A 
ATOM     29  C   UNL     1      45.579   4.755   9.110  0.00  0.00    +0.000 A 
ENDBRANCH  21  23
ENDBRANCH   1  17
TORSDOF 4
ENDMDL
MODEL 6
REMARK VINA RESULT:    -6.683      5.402      8.465
REMARK INTER + INTRA:          -9.178
REMARK INTER:                  -8.503
REMARK INTRA:                  -0.676
REMARK UNBOUND:                -0.933
REMARK  Name = 
REMARK  4 active torsions:
REMARK  status: ('A' for Active; 'I' for Inactive)
REMARK    1  A    between atoms: C_2  and  C_4
REMARK    2  A    between atoms: N_8  and  C_9
REMARK    3  A    between atoms: C_9  and  C_10
REMARK    4  A    between atoms: C_14  and  C_15
REMARK                            x       y       z     vdW  Elec       q    Type
REMARK                         _______ _______ _______ _____ _____    ______ ____
ROOT
ATOM      1  C   UNL     1      48.243   4.825  17.309  0.00  0.00    +0.000 C 
ATOM      2  C   UNL     1      47.104   5.141  18.277  0.00  0.00    +0.000 C 
ATOM      3  C   UNL     1      47.127   3.830  17.572  0.00  0.00    +0.000 C 
ENDROOT
BRANCH   1   8
ATOM      4  C   UNL     1      52.426   1.725  17.617  0.00  0.00    +0.000 A 
ATOM      5  C   UNL     1      51.088   1.375  17.464  0.00  0.00    +0.000 A 
ATOM      6  C   UNL     1      50.109   2.370  17.529  0.00  0.00    +0.000 A 
ATOM      7  C   UNL     1      50.481   3.690  17.758  0.00  0.00    +0.000 A 
ATOM      8  N   UNL     1      49.568   4.730  17.931  0.00  0.00    +0.000 N 
ATOM      9  N   UNL     1      51.778   4.038  17.915  0.00  0.00    +0.000 NA
ATOM     10  C   UNL     1      52.718   3.059  17.848  0.00  0.00    +0.000 A 
ATOM     11  H   UNL     1      50.114   5.585  18.008  0.00  0.00    +0.000 HD
BRANCH   4  13
ATOM     12  N   UNL     1      53.357  -0.418  18.285  0.00  0.00    +0.000 N 
ATOM     13  C   UNL     1      53.529   0.743  17.581  0.00  0.00    +0.000 C 
ATOM     14  O   UNL     1      54.541   0.941  16.926  0.00  0.00    +0.000 OA
ATOM     15  H   UNL     1      54.077  -1.122  18.171  0.00  0.00    +0.000 HD
ATOM     16  H   UNL     1      52.460  -0.722  18.633  0.00  0.00    +0.000 HD
ENDBRANCH   4  13
ENDBRANCH   1   8
BRANCH   1  17
ATOM     17  C   UNL     1      48.232   5.545  15.965  0.00  0.00    +0.000 A 
ATOM     18  C   UNL     1      49.134   6.571  15.670  0.00  0.00    +0.000 A 
ATOM     19  C   UNL     1      49.133   7.128  14.402  0.00  0.00    +0.000 A 
ATOM     20  N   UNL     1      48.298   6.748  13.413  0.00  0.00    +0.000 NA
ATOM     21  C   UNL     1      47.388   5.784  13.695  0.00  0.00    +0.000 A 
ATOM     22  C   UNL     1      47.332   5.181  14.950  0.00  0.00    +0.000 A 
BRANCH  21  23
ATOM     23  C   UNL     1      46.487   5.401  12.588  0.00  0.00    +0.000 A 
ATOM     24  C   UNL     1      45.677   4.251  12.685  0.00  0.00    +0.000 A 
ATOM     25  C   UNL     1      44.821   3.875  11.645  0.00  0.00    +0.000 A 
ATOM     26  C   UNL     1      44.770   4.643  10.492  0.00  0.00    +0.000 A 
ATOM     27  F   UNL     1      43.958   4.279   9.490  0.00  0.00    +0.000 F 
ATOM     28  C   UNL     1      45.551   5.782  10.360  0.00  0.00    +0.000 A 
ATOM     29  C   UNL     1      46.403   6.158  11.402  0.00  0.00    +0.000 A 
ENDBRANCH  21  23
ENDBRANCH   1  17
TORSDOF 4
ENDMDL
MODEL 7
REMARK VINA RESULT:    -6.601      3.299      4.957
REMARK INTER + INTRA:          -9.078
REMARK INTER:                  -8.183
REMARK INTRA:                  -0.895
REMARK UNBOUND:                -0.933
REMARK  Name = 
REMARK  4 active torsions:
REMARK  status: ('A' for Active; 'I' for Inactive)
REMARK    1  A    between atoms: C_2  and  C_4
REMARK    2  A    between atoms: N_8  and  C_9
REMARK    3  A    between atoms: C_9  and  C_10
REMARK    4  A    between atoms: C_14  and  C_15
REMARK                            x       y       z     vdW  Elec       q    Type
REMARK                         _______ _______ _______ _____ _____    ______ ____
ROOT
ATOM      1  C   UNL     1      45.526   8.045  12.120  0.00  0.00    +0.000 C 
ATOM      2  C   UNL     1      44.976   9.352  12.688  0.00  0.00    +0.000 C 
ATOM      3  C   UNL     1      45.570   9.336  11.322  0.00  0.00    +0.000 C 
ENDROOT
BRANCH   1   8
ATOM      4  C   UNL     1      44.833   3.432   9.787  0.00  0.00    +0.000 A 
ATOM      5  C   UNL     1      45.633   4.499   9.392  0.00  0.00    +0.000 A 
ATOM      6  C   UNL     1      45.575   5.699  10.107  0.00  0.00    +0.000 A 
ATOM      7  C   UNL     1      44.713   5.814  11.192  0.00  0.00    +0.000 A 
ATOM      8  N   UNL     1      44.521   6.999  11.902  0.00  0.00    +0.000 N 
ATOM      9  N   UNL     1      43.927   4.784  11.578  0.00  0.00    +0.000 NA
ATOM     10  C   UNL     1      43.996   3.625  10.873  0.00  0.00    +0.000 A 
ATOM     11  H   UNL     1      43.900   6.775  12.676  0.00  0.00    +0.000 HD
BRANCH   4  13
ATOM     12  N   UNL     1      45.940   1.773   8.399  0.00  0.00    +0.000 N 
ATOM     13  C   UNL     1      44.812   2.132   9.085  0.00  0.00    +0.000 C 
ATOM     14  O   UNL     1      43.842   1.391   9.139  0.00  0.00    +0.000 OA
ATOM     15  H   UNL     1      45.948   0.839   8.007  0.00  0.00    +0.000 HD
ATOM     16  H   UNL     1      46.830   2.231   8.526  0.00  0.00    +0.000 HD
ENDBRANCH   4  13
ENDBRANCH   1   8
BRANCH   1  17
ATOM     17  C   UNL     1      46.844   7.538  12.697  0.00  0.00    +0.000 A 
ATOM     18  C   UNL     1      48.077   7.907  12.154  0.00  0.00    +0.000 A 
ATOM     19  C   UNL     1      49.242   7.486  12.773  0.00  0.00    +0.000 A 
ATOM     20  N   UNL     1      49.270   6.721  13.883  0.00  0.00    +0.000 NA
ATOM     21  C   UNL     1      48.084   6.317  14.399  0.00  0.00    +0.000 A 
ATOM     22  C   UNL     1      46.873   6.702  13.826  0.00  0.00    +0.000 A 
BRANCH  21  23
ATOM     23  C   UNL     1      48.156   5.474  15.610  0.00  0.00    +0.000 A 
ATOM     24  C   UNL     1      49.049   5.789  16.654  0.00  0.00    +0.000 A 
ATOM     25  C   UNL     1      49.130   4.997  17.805  0.00  0.00    +0.000 A 
ATOM     26  C   UNL     1      48.321   3.877  17.921  0.00  0.00    +0.000 A 
ATOM     27  F   UNL     1      48.404   3.112  19.018  0.00  0.00    +0.000 F 
ATOM     28  C   UNL     1      47.430   3.535  16.915  0.00  0.00    +0.000 A 
ATOM     29  C   UNL     1      47.348   4.329  15.767  0.00  0.00    +0.000 A 
ENDBRANCH  21  23
ENDBRANCH   1  17
TORSDOF 4
ENDMDL
MODEL 8
REMARK VINA RESULT:    -6.483      4.229      6.399
REMARK INTER + INTRA:          -8.932
REMARK INTER:                  -8.667
REMARK INTRA:                  -0.266
REMARK UNBOUND:                -0.933
REMARK  Name = 
REMARK  4 active torsions:
REMARK  status: ('A' for Active; 'I' for Inactive)
REMARK    1  A    between atoms: C_2  and  C_4
REMARK    2  A    between atoms: N_8  and  C_9
REMARK    3  A    between atoms: C_9  and  C_10
REMARK    4  A    between atoms: C_14  and  C_15
REMARK                            x       y       z     vdW  Elec       q    Type
REMARK                         _______ _______ _______ _____ _____    ______ ____
ROOT
ATOM      1  C   UNL     1      47.761   8.433  13.701  0.00  0.00    +0.000 C 
ATOM      2  C   UNL     1      48.178   9.803  13.168  0.00  0.00    +0.000 C 
ATOM      3  C   UNL     1      48.772   8.573  12.576  0.00  0.00    +0.000 C 
ENDROOT
BRANCH   1   8
ATOM      4  C   UNL     1      44.699   5.164  11.029  0.00  0.00    +0.000 A 
ATOM      5  C   UNL     1      45.927   5.706  10.664  0.00  0.00    +0.000 A 
ATOM      6  C   UNL     1      46.523   6.666  11.487  0.00  0.00    +0.000 A 
ATOM      7  C   UNL     1      45.878   7.073  12.649  0.00  0.00    +0.000 A 
ATOM      8  N   UNL     1      46.353   8.090  13.479  0.00  0.00    +0.000 N 
ATOM      9  N   UNL     1      44.682   6.557  13.008  0.00  0.00    +0.000 NA
ATOM     10  C   UNL     1      44.116   5.625  12.198  0.00  0.00    +0.000 A 
ATOM     11  H   UNL     1      45.728   8.124  14.281  0.00  0.00    +0.000 HD
BRANCH   4  13
ATOM     12  N   UNL     1      44.056   4.287   8.856  0.00  0.00    +0.000 N 
ATOM     13  C   UNL     1      43.983   4.159  10.217  0.00  0.00    +0.000 C 
ATOM     14  O   UNL     1      43.378   3.231  10.733  0.00  0.00    +0.000 OA
ATOM     15  H   UNL     1      43.645   3.537   8.313  0.00  0.00    +0.000 HD
ATOM     16  H   UNL     1      44.729   4.881   8.395  0.00  0.00    +0.000 HD
ENDBRANCH   4  13
ENDBRANCH   1   8
BRANCH   1  17
ATOM     17  C   UNL     1      48.297   8.028  15.070  0.00  0.00    +0.000 A 
ATOM     18  C   UNL     1      48.328   8.923  16.143  0.00  0.00    +0.000 A 
ATOM     19  C   UNL     1      48.744   8.475  17.385  0.00  0.00    +0.000 A 
ATOM     20  N   UNL     1      49.137   7.209  17.636  0.00  0.00    +0.000 NA
ATOM     21  C   UNL     1      49.154   6.339  16.598  0.00  0.00    +0.000 A 
ATOM     22  C   UNL     1      48.750   6.723  15.321  0.00  0.00    +0.000 A 
BRANCH  21  23
ATOM     23  C   UNL     1      49.598   4.965  16.911  0.00  0.00    +0.000 A 
ATOM     24  C   UNL     1      50.920   4.713  17.328  0.00  0.00    +0.000 A 
ATOM     25  C   UNL     1      51.355   3.417  17.624  0.00  0.00    +0.000 A 
ATOM     26  C   UNL     1      50.471   2.356  17.502  0.00  0.00    +0.000 A 
ATOM     27  F   UNL     1      50.888   1.112  17.777  0.00  0.00    +0.000 F 
ATOM     28  C   UNL     1      49.162   2.564  17.096  0.00  0.00    +0.000 A 
ATOM     29  C   UNL     1      48.728   3.860  16.803  0.00  0.00    +0.000 A 
ENDBRANCH  21  23
ENDBRANCH   1  17
TORSDOF 4
ENDMDL
MODEL 9
REMARK VINA RESULT:    -6.461      3.560      7.065
REMARK INTER + INTRA:          -8.905
REMARK INTER:                  -9.101
REMARK INTRA:                   0.196
REMARK UNBOUND:                -0.933
REMARK  Name = 
REMARK  4 active torsions:
REMARK  status: ('A' for Active; 'I' for Inactive)
REMARK    1  A    between atoms: C_2  and  C_4
REMARK    2  A    between atoms: N_8  and  C_9
REMARK    3  A    between atoms: C_9  and  C_10
REMARK    4  A    between atoms: C_14  and  C_15
REMARK                            x       y       z     vdW  Elec       q    Type
REMARK                         _______ _______ _______ _____ _____    ______ ____
ROOT
ATOM      1  C   UNL     1      45.442   7.479  12.411  0.00  0.00    +0.000 C 
ATOM      2  C   UNL     1      45.603   8.722  11.538  0.00  0.00    +0.000 C 
ATOM      3  C   UNL     1      44.580   8.711  12.621  0.00  0.00    +0.000 C 
ENDROOT
BRANCH   1   8
ATOM      4  C   UNL     1      50.606   8.156  12.696  0.00  0.00    +0.000 A 
ATOM      5  C   UNL     1      49.802   8.026  11.568  0.00  0.00    +0.000 A 
ATOM      6  C   UNL     1      48.447   7.727  11.725  0.00  0.00    +0.000 A 
ATOM      7  C   UNL     1      47.922   7.551  13.000  0.00  0.00    +0.000 A 
ATOM      8  N   UNL     1      46.605   7.160  13.245  0.00  0.00    +0.000 N 
ATOM      9  N   UNL     1      48.696   7.669  14.101  0.00  0.00    +0.000 NA
ATOM     10  C   UNL     1      50.012   7.960  13.932  0.00  0.00    +0.000 A 
ATOM     11  H   UNL     1      46.481   7.181  14.255  0.00  0.00    +0.000 HD
BRANCH   4  13
ATOM     12  N   UNL     1      52.863   7.806  13.523  0.00  0.00    +0.000 N 
ATOM     13  C   UNL     1      52.051   8.453  12.632  0.00  0.00    +0.000 C 
ATOM     14  O   UNL     1      52.511   9.218  11.798  0.00  0.00    +0.000 OA
ATOM     15  H   UNL     1      53.860   7.943  13.402  0.00  0.00    +0.000 HD
ATOM     16  H   UNL     1      52.565   7.002  14.055  0.00  0.00    +0.000 HD
ENDBRANCH   4  13
ENDBRANCH   1   8
BRANCH   1  17
ATOM     17  C   UNL     1      44.776   6.264  11.773  0.00  0.00    +0.000 A 
ATOM     18  C   UNL     1      43.468   5.889  12.090  0.00  0.00    +0.000 A 
ATOM     19  C   UNL     1      42.886   4.830  11.415  0.00  0.00    +0.000 A 
ATOM     20  N   UNL     1      43.510   4.113  10.457  0.00  0.00    +0.000 NA
ATOM     21  C   UNL     1      44.793   4.436  10.167  0.00  0.00    +0.000 A 
ATOM     22  C   UNL     1      45.442   5.489  10.809  0.00  0.00    +0.000 A 
BRANCH  21  23
ATOM     23  C   UNL     1      45.444   3.623   9.119  0.00  0.00    +0.000 A 
ATOM     24  C   UNL     1      46.054   4.238   8.006  0.00  0.00    +0.000 A 
ATOM     25  C   UNL     1      46.671   3.481   7.005  0.00  0.00    +0.000 A 
ATOM     26  C   UNL     1      46.682   2.098   7.103  0.00  0.00    +0.000 A 
ATOM     27  F   UNL     1      47.265   1.371   6.140  0.00  0.00    +0.000 F 
ATOM     28  C   UNL     1      46.094   1.457   8.183  0.00  0.00    +0.000 A 
ATOM     29  C   UNL     1      45.480   2.216   9.184  0.00  0.00    +0.000 A 
ENDBRANCH  21  23
ENDBRANCH   1  17
TORSDOF 4
ENDMDL
