MODEL 1
REMARK VINA RESULT:    -9.591      0.000      0.000
REMARK INTER + INTRA:         -12.277
REMARK INTER:                 -11.834
REMARK INTRA:                  -0.443
REMARK UNBOUND:                -0.443
REMARK  Name = 
REMARK  4 active torsions:
REMARK  status: ('A' for Active; 'I' for Inactive)
REMARK    1  A    between atoms: C_2  and  C_4
REMARK    2  A    between atoms: N_8  and  C_9
REMARK    3  A    between atoms: C_9  and  C_10
REMARK    4  A    between atoms: C_14  and  C_15
REMARK                            x       y       z     vdW  Elec       q    Type
REMARK                         _______ _______ _______ _____ _____    ______ ____
ROOT
ATOM      1  C   UNL     1      43.872   4.923  11.489  0.00  0.00    +0.000 C 
ATOM      2  C   UNL     1      42.732   5.000  12.497  0.00  0.00    +0.000 C 
ATOM      3  C   UNL     1      42.783   5.969  11.362  0.00  0.00    +0.000 C 
ENDROOT
BRANCH   1   8
ATOM      4  C   UNL     1      46.420   2.714   7.526  0.00  0.00    +0.000 A 
ATOM      5  C   UNL     1      45.996   4.034   7.646  0.00  0.00    +0.000 A 
ATOM      6  C   UNL     1      45.182   4.397   8.723  0.00  0.00    +0.000 A 
ATOM      7  C   UNL     1      44.803   3.434   9.651  0.00  0.00    +0.000 A 
ATOM      8  N   UNL     1      43.894   3.685  10.686  0.00  0.00    +0.000 N 
ATOM      9  N   UNL     1      45.216   2.152   9.549  0.00  0.00    +0.000 NA
ATOM     10  C   UNL     1      46.006   1.816   8.496  0.00  0.00    +0.000 A 
ATOM     11  H   UNL     1      43.874   2.821  11.228  0.00  0.00    +0.000 HD
BRANCH   4  13
ATOM     12  N   UNL     1      47.256   2.979   5.256  0.00  0.00    +0.000 N 
ATOM     13  C   UNL     1      47.235   2.222   6.394  0.00  0.00    +0.000 C 
ATOM     14  O   UNL     1      47.882   1.187   6.474  0.00  0.00    +0.000 OA
ATOM     15  H   UNL     1      47.878   2.670   4.520  0.00  0.00    +0.000 HD
ATOM     16  H   UNL     1      46.941   3.939   5.229  0.00  0.00    +0.000 HD
ENDBRANCH   4  13
ENDBRANCH   1   8
BRANCH   1  17
ATOM     17  C   UNL     1      45.267   5.363  11.925  0.00  0.00    +0.000 A 
ATOM     18  C   UNL     1      45.999   6.318  11.203  0.00  0.00    +0.000 A 
ATOM     19  C   UNL     1      47.201   6.830  11.689  0.00  0.00    +0.000 A 
ATOM     20  C   UNL     1      47.686   6.411  12.927  0.00  0.00    +0.000 A 
ATOM     21  C   UNL     1      46.992   5.461  13.694  0.00  0.00    +0.000 A 
ATOM     22  C   UNL     1      45.809   4.924  13.150  0.00  0.00    +0.000 A 
BRANCH  21  23
ATOM     23  C   UNL     1      47.422   5.114  15.064  0.00  0.00    +0.000 A 
ATOM     24  C   UNL     1      48.382   5.848  15.766  0.00  0.00    +0.000 A 
ATOM     25  N   UNL     1      48.854   5.535  17.000  0.00  0.00    +0.000 NA
ATOM     26  C   UNL     1      48.336   4.426  17.579  0.00  0.00    +0.000 A 
ATOM     27  C   UNL     1      47.378   3.634  16.980  0.00  0.00    +0.000 A 
ATOM     28  F   UNL     1      46.904   2.545  17.599  0.00  0.00    +0.000 F 
ATOM     29  C   UNL     1      46.915   3.976  15.719  0.00  0.00    +0.000 A 
ENDBRANCH  21  23
ENDBRANCH   1  17
TORSDOF 4
ENDMDL
MODEL 2
REMARK VINA RESULT:    -9.545      2.665      3.681
REMARK INTER + INTRA:         -12.220
REMARK INTER:                 -11.085
REMARK INTRA:                  -1.136
REMARK UNBOUND:                -0.443
REMARK  Name = 
REMARK  4 active torsions:
REMARK  status: ('A' for Active; 'I' for Inactive)
REMARK    1  A    between atoms: C_2  and  C_4
REMARK    2  A    between atoms: N_8  and  C_9
REMARK    3  A    between atoms: C_9  and  C_10
REMARK    4  A    between atoms: C_14  and  C_15
REMARK                            x       y       z     vdW  Elec       q    Type
REMARK                         _______ _______ _______ _____ _____    ______ ____
ROOT
ATOM      1  C   UNL     1      43.783   4.883  11.358  0.00  0.00    +0.000 C 
ATOM      2  C   UNL     1      42.438   5.128  12.032  0.00  0.00    +0.000 C 
ATOM      3  C   UNL     1      42.955   6.111  11.035  0.00  0.00    +0.000 C 
ENDROOT
BRANCH   1   8
ATOM      4  C   UNL     1      46.578   2.765   7.514  0.00  0.00    +0.000 A 
ATOM      5  C   UNL     1      46.203   4.097   7.672  0.00  0.00    +0.000 A 
ATOM      6  C   UNL     1      45.313   4.441   8.693  0.00  0.00    +0.000 A 
ATOM      7  C   UNL     1      44.808   3.450   9.527  0.00  0.00    +0.000 A 
ATOM      8  N   UNL     1      43.822   3.690  10.491  0.00  0.00    +0.000 N 
ATOM      9  N   UNL     1      45.172   2.157   9.388  0.00  0.00    +0.000 NA
ATOM     10  C   UNL     1      46.038   1.839   8.391  0.00  0.00    +0.000 A 
ATOM     11  H   UNL     1      43.714   2.801  10.977  0.00  0.00    +0.000 HD
BRANCH   4  13
ATOM     12  N   UNL     1      47.400   2.944   5.231  0.00  0.00    +0.000 N 
ATOM     13  C   UNL     1      47.469   2.294   6.431  0.00  0.00    +0.000 C 
ATOM     14  O   UNL     1      48.253   1.372   6.605  0.00  0.00    +0.000 OA
ATOM     15  H   UNL     1      48.069   2.661   4.526  0.00  0.00    +0.000 HD
ATOM     16  H   UNL     1      46.954   3.844   5.118  0.00  0.00    +0.000 HD
ENDBRANCH   4  13
ENDBRANCH   1   8
BRANCH   1  17
ATOM     17  C   UNL     1      45.057   5.051  12.181  0.00  0.00    +0.000 A 
ATOM     18  C   UNL     1      45.551   4.019  12.994  0.00  0.00    +0.000 A 
ATOM     19  C   UNL     1      46.792   4.120  13.620  0.00  0.00    +0.000 A 
ATOM     20  C   UNL     1      47.581   5.253  13.423  0.00  0.00    +0.000 A 
ATOM     21  C   UNL     1      47.139   6.312  12.615  0.00  0.00    +0.000 A 
ATOM     22  C   UNL     1      45.857   6.203  12.041  0.00  0.00    +0.000 A 
BRANCH  21  23
ATOM     23  C   UNL     1      48.020   7.452  12.287  0.00  0.00    +0.000 A 
ATOM     24  C   UNL     1      47.544   8.754  12.115  0.00  0.00    +0.000 A 
ATOM     25  N   UNL     1      48.303   9.820  11.754  0.00  0.00    +0.000 NA
ATOM     26  C   UNL     1      49.621   9.583  11.557  0.00  0.00    +0.000 A 
ATOM     27  C   UNL     1      50.198   8.338  11.709  0.00  0.00    +0.000 A 
ATOM     28  F   UNL     1      51.509   8.160  11.498  0.00  0.00    +0.000 F 
ATOM     29  C   UNL     1      49.400   7.266  12.076  0.00  0.00    +0.000 A 
ENDBRANCH  21  23
ENDBRANCH   1  17
TORSDOF 4
ENDMDL
MODEL 3
REMARK VINA RESULT:    -7.629      4.126      8.433
REMARK INTER + INTRA:          -9.856
REMARK INTER:                  -8.863
REMARK INTRA:                  -0.992
REMARK UNBOUND:                -0.443
REMARK  Name = 
REMARK  4 active torsions:
REMARK  status: ('A' for Active; 'I' for Inactive)
REMARK    1  A    between atoms: C_2  and  C_4
REMARK    2  A    between atoms: N_8  and  C_9
REMARK    3  A    between atoms: C_9  and  C_10
REMARK    4  A    between atoms: C_14  and  C_15
REMARK                            x       y       z     vdW  Elec       q    Type
REMARK                         _______ _______ _______ _____ _____    ______ ____
ROOT
ATOM      1  C   UNL     1      48.998   7.922  12.630  0.00  0.00    +0.000 C 
ATOM      2  C   UNL     1      49.943   8.124  11.451  0.00  0.00    +0.000 C 
ATOM      3  C   UNL     1      49.651   9.264  12.369  0.00  0.00    +0.000 C 
ENDROOT
BRANCH   1   8
ATOM      4  C   UNL     1      48.455   6.771  17.675  0.00  0.00    +0.000 A 
ATOM      5  C   UNL     1      48.558   8.028  17.086  0.00  0.00    +0.000 A 
ATOM      6  C   UNL     1      48.861   8.124  15.725  0.00  0.00    +0.000 A 
ATOM      7  C   UNL     1      49.063   6.965  14.983  0.00  0.00    +0.000 A 
ATOM      8  N   UNL     1      49.488   6.975  13.649  0.00  0.00    +0.000 N 
ATOM      9  N   UNL     1      48.956   5.741  15.542  0.00  0.00    +0.000 NA
ATOM     10  C   UNL     1      48.662   5.665  16.866  0.00  0.00    +0.000 A 
ATOM     11  H   UNL     1      49.477   5.995  13.368  0.00  0.00    +0.000 HD
BRANCH   4  13
ATOM     12  N   UNL     1      47.402   5.511  19.470  0.00  0.00    +0.000 N 
ATOM     13  C   UNL     1      48.195   6.567  19.117  0.00  0.00    +0.000 C 
ATOM     14  O   UNL     1      48.684   7.300  19.965  0.00  0.00    +0.000 OA
ATOM     15  H   UNL     1      47.296   5.340  20.462  0.00  0.00    +0.000 HD
ATOM     16  H   UNL     1      47.180   4.754  18.839  0.00  0.00    +0.000 HD
ENDBRANCH   4  13
ENDBRANCH   1   8
BRANCH   1  17
ATOM     17  C   UNL     1      47.505   7.764  12.353  0.00  0.00    +0.000 A 
ATOM     18  C   UNL     1      46.608   8.831  12.515  0.00  0.00    +0.000 A 
ATOM     19  C   UNL     1      45.277   8.728  12.114  0.00  0.00    +0.000 A 
ATOM     20  C   UNL     1      44.821   7.554  11.516  0.00  0.00    +0.000 A 
ATOM     21  C   UNL     1      45.676   6.458  11.324  0.00  0.00    +0.000 A 
ATOM     22  C   UNL     1      47.000   6.575  11.789  0.00  0.00    +0.000 A 
BRANCH  21  23
ATOM     23  C   UNL     1      45.242   5.265  10.568  0.00  0.00    +0.000 A 
ATOM     24  C   UNL     1      44.490   4.237  11.141  0.00  0.00    +0.000 A 
ATOM     25  N   UNL     1      44.120   3.094  10.507  0.00  0.00    +0.000 NA
ATOM     26  C   UNL     1      44.516   2.965   9.219  0.00  0.00    +0.000 A 
ATOM     27  C   UNL     1      45.254   3.922   8.553  0.00  0.00    +0.000 A 
ATOM     28  F   UNL     1      45.621   3.740   7.278  0.00  0.00    +0.000 F 
ATOM     29  C   UNL     1      45.619   5.078   9.225  0.00  0.00    +0.000 A 
ENDBRANCH  21  23
ENDBRANCH   1  17
TORSDOF 4
ENDMDL
MODEL 4
REMARK VINA RESULT:    -7.526      3.544      7.742
REMARK INTER + INTRA:          -9.729
REMARK INTER:                  -9.741
REMARK INTRA:                   0.012
REMARK UNBOUND:                -0.443
REMARK  Name = 
REMARK  4 active torsions:
REMARK  status: ('A' for Active; 'I' for Inactive)
REMARK    1  A    between atoms: C_2  and  C_4
REMARK    2  A    between atoms: N_8  and  C_9
REMARK    3  A    between atoms: C_9  and  C_10
REMARK    4  A    between atoms: C_14  and  C_15
REMARK                            x       y       z     vdW  Elec       q    Type
REMARK                         _______ _______ _______ _____ _____    ______ ____
ROOT
ATOM      1  C   UNL     1      48.380   7.744  12.727  0.00  0.00    +0.000 C 
ATOM      2  C   UNL     1      49.513   7.102  11.934  0.00  0.00    +0.000 C 
ATOM      3  C   UNL     1      49.304   8.578  11.862  0.00  0.00    +0.000 C 
ENDROOT
BRANCH   1   8
ATOM      4  C   UNL     1      47.985   4.291  16.598  0.00  0.00    +0.000 A 
ATOM      5  C   UNL     1      47.139   4.459  15.506  0.00  0.00    +0.000 A 
ATOM      6  C   UNL     1      47.326   5.552  14.656  0.00  0.00    +0.000 A 
ATOM      7  C   UNL     1      48.347   6.458  14.918  0.00  0.00    +0.000 A 
ATOM      8  N   UNL     1      48.526   7.641  14.191  0.00  0.00    +0.000 N 
ATOM      9  N   UNL     1      49.181   6.299  15.969  0.00  0.00    +0.000 NA
ATOM     10  C   UNL     1      48.984   5.232  16.786  0.00  0.00    +0.000 A 
ATOM     11  H   UNL     1      49.381   8.049  14.568  0.00  0.00    +0.000 HD
BRANCH   4  13
ATOM     12  N   UNL     1      48.908   2.913  18.379  0.00  0.00    +0.000 N 
ATOM     13  C   UNL     1      47.833   3.199  17.585  0.00  0.00    +0.000 C 
ATOM     14  O   UNL     1      46.781   2.587  17.703  0.00  0.00    +0.000 OA
ATOM     15  H   UNL     1      48.764   2.217  19.099  0.00  0.00    +0.000 HD
ATOM     16  H   UNL     1      49.696   3.537  18.482  0.00  0.00    +0.000 HD
ENDBRANCH   4  13
ENDBRANCH   1   8
BRANCH   1  17
ATOM     17  C   UNL     1      46.943   7.520  12.264  0.00  0.00    +0.000 A 
ATOM     18  C   UNL     1      45.989   8.549  12.295  0.00  0.00    +0.000 A 
ATOM     19  C   UNL     1      44.726   8.385  11.729  0.00  0.00    +0.000 A 
ATOM     20  C   UNL     1      44.399   7.188  11.093  0.00  0.00    +0.000 A 
ATOM     21  C   UNL     1      45.317   6.128  11.027  0.00  0.00    +0.000 A 
ATOM     22  C   UNL     1      46.564   6.306  11.656  0.00  0.00    +0.000 A 
BRANCH  21  23
ATOM     23  C   UNL     1      45.033   4.911  10.239  0.00  0.00    +0.000 A 
ATOM     24  C   UNL     1      44.313   3.828  10.749  0.00  0.00    +0.000 A 
ATOM     25  N   UNL     1      44.079   2.666  10.087  0.00  0.00    +0.000 NA
ATOM     26  C   UNL     1      44.588   2.573   8.835  0.00  0.00    +0.000 A 
ATOM     27  C   UNL     1      45.306   3.585   8.231  0.00  0.00    +0.000 A 
ATOM     28  F   UNL     1      45.789   3.436   6.991  0.00  0.00    +0.000 F 
ATOM     29  C   UNL     1      45.531   4.760   8.931  0.00  0.00    +0.000 A 
ENDBRANCH  21  23
ENDBRANCH   1  17
TORSDOF 4
ENDMDL
MODEL 5
REMARK VINA RESULT:    -7.253      4.248      7.488
REMARK INTER + INTRA:          -9.391
REMARK INTER:                  -8.415
REMARK INTRA:                  -0.976
REMARK UNBOUND:                -0.443
REMARK  Name = 
REMARK  4 active torsions:
REMARK  status: ('A' for Active; 'I' for Inactive)
REMARK    1  A    between atoms: C_2  and  C_4
REMARK    2  A    between atoms: N_8  and  C_9
REMARK    3  A    between atoms: C_9  and  C_10
REMARK    4  A    between atoms: C_14  and  C_15
REMARK                            x       y       z     vdW  Elec       q    Type
REMARK                         _______ _______ _______ _____ _____    ______ ____
ROOT
ATOM      1  C   UNL     1      46.095   5.074  13.298  0.00  0.00    +0.000 C 
ATOM      2  C   UNL     1      45.981   4.158  14.512  0.00  0.00    +0.000 C 
ATOM      3  C   UNL     1      47.199   4.096  13.650  0.00  0.00    +0.000 C 
ENDROOT
BRANCH   1   8
ATOM      4  C   UNL     1      48.274   9.498  11.640  0.00  0.00    +0.000 A 
ATOM      5  C   UNL     1      48.856   8.238  11.740  0.00  0.00    +0.000 A 
ATOM      6  C   UNL     1      48.150   7.205  12.363  0.00  0.00    +0.000 A 
ATOM      7  C   UNL     1      46.884   7.453  12.879  0.00  0.00    +0.000 A 
ATOM      8  N   UNL     1      46.162   6.511  13.623  0.00  0.00    +0.000 N 
ATOM      9  N   UNL     1      46.305   8.669  12.779  0.00  0.00    +0.000 NA
ATOM     10  C   UNL     1      47.005   9.663  12.172  0.00  0.00    +0.000 A 
ATOM     11  H   UNL     1      45.261   6.956  13.798  0.00  0.00    +0.000 HD
BRANCH   4  13
ATOM     12  N   UNL     1      48.229  11.486  10.238  0.00  0.00    +0.000 N 
ATOM     13  C   UNL     1      48.962  10.667  11.050  0.00  0.00    +0.000 C 
ATOM     14  O   UNL     1      50.137  10.908  11.293  0.00  0.00    +0.000 OA
ATOM     15  H   UNL     1      48.692  12.322   9.904  0.00  0.00    +0.000 HD
ATOM     16  H   UNL     1      47.219  11.465  10.204  0.00  0.00    +0.000 HD
ENDBRANCH   4  13
ENDBRANCH   1   8
BRANCH   1  17
ATOM     17  C   UNL     1      45.221   4.789  12.080  0.00  0.00    +0.000 A 
ATOM     18  C   UNL     1      44.025   5.486  11.851  0.00  0.00    +0.000 A 
ATOM     19  C   UNL     1      43.312   5.334  10.663  0.00  0.00    +0.000 A 
ATOM     20  C   UNL     1      43.798   4.493   9.663  0.00  0.00    +0.000 A 
ATOM     21  C   UNL     1      44.992   3.774   9.837  0.00  0.00    +0.000 A 
ATOM     22  C   UNL     1      45.660   3.909  11.069  0.00  0.00    +0.000 A 
BRANCH  21  23
ATOM     23  C   UNL     1      45.588   2.991   8.735  0.00  0.00    +0.000 A 
ATOM     24  C   UNL     1      45.818   1.616   8.821  0.00  0.00    +0.000 A 
ATOM     25  N   UNL     1      46.418   0.864   7.862  0.00  0.00    +0.000 NA
ATOM     26  C   UNL     1      46.809   1.516   6.742  0.00  0.00    +0.000 A 
ATOM     27  C   UNL     1      46.622   2.870   6.548  0.00  0.00    +0.000 A 
ATOM     28  F   UNL     1      47.032   3.464   5.420  0.00  0.00    +0.000 F 
ATOM     29  C   UNL     1      46.009   3.614   7.545  0.00  0.00    +0.000 A 
ENDBRANCH  21  23
ENDBRANCH   1  17
TORSDOF 4
ENDMDL
MODEL 6
REMARK VINA RESULT:    -7.168      2.794      4.555
REMARK INTER + INTRA:          -9.287
REMARK INTER:                  -8.858
REMARK INTRA:                  -0.429
REMARK UNBOUND:                -0.443
REMARK  Name = 
REMARK  4 active torsions:
REMARK  status: ('A' for Active; 'I' for Inactive)
REMARK    1  A    between atoms: C_2  and  C_4
REMARK    2  A    between atoms: N_8  and  C_9
REMARK    3  A    between atoms: C_9  and  C_10
REMARK    4  A    between atoms: C_14  and  C_15
REMARK                            x       y       z     vdW  Elec       q    Type
REMARK                         _______ _______ _______ _____ _____    ______ ____
ROOT
ATOM      1  C   UNL     1      47.339   8.514  13.152  0.00  0.00    +0.000 C 
ATOM      2  C   UNL     1      47.477   9.843  12.419  0.00  0.00    +0.000 C 
ATOM      3  C   UNL     1      48.172   8.632  11.891  0.00  0.00    +0.000 C 
ENDROOT
BRANCH   1   8
ATOM      4  C   UNL     1      44.632   4.379  11.524  0.00  0.00    +0.000 A 
ATOM      5  C   UNL     1      45.612   5.090  10.837  0.00  0.00    +0.000 A 
ATOM      6  C   UNL     1      46.111   6.274  11.387  0.00  0.00    +0.000 A 
ATOM      7  C   UNL     1      45.616   6.728  12.604  0.00  0.00    +0.000 A 
ATOM      8  N   UNL     1      45.971   7.962  13.163  0.00  0.00    +0.000 N 
ATOM      9  N   UNL     1      44.672   6.042  13.284  0.00  0.00    +0.000 NA
ATOM     10  C   UNL     1      44.197   4.893  12.735  0.00  0.00    +0.000 A 
ATOM     11  H   UNL     1      45.507   7.978  14.071  0.00  0.00    +0.000 HD
BRANCH   4  13
ATOM     12  N   UNL     1      44.675   2.462  10.027  0.00  0.00    +0.000 N 
ATOM     13  C   UNL     1      44.003   3.148  11.000  0.00  0.00    +0.000 C 
ATOM     14  O   UNL     1      42.932   2.744  11.431  0.00  0.00    +0.000 OA
ATOM     15  H   UNL     1      44.269   1.583   9.734  0.00  0.00    +0.000 HD
ATOM     16  H   UNL     1      45.651   2.620   9.818  0.00  0.00    +0.000 HD
ENDBRANCH   4  13
ENDBRANCH   1   8
BRANCH   1  17
ATOM     17  C   UNL     1      48.052   8.338  14.490  0.00  0.00    +0.000 A 
ATOM     18  C   UNL     1      48.263   9.417  15.362  0.00  0.00    +0.000 A 
ATOM     19  C   UNL     1      48.772   9.225  16.645  0.00  0.00    +0.000 A 
ATOM     20  C   UNL     1      49.059   7.937  17.094  0.00  0.00    +0.000 A 
ATOM     21  C   UNL     1      48.862   6.820  16.267  0.00  0.00    +0.000 A 
ATOM     22  C   UNL     1      48.398   7.053  14.958  0.00  0.00    +0.000 A 
BRANCH  21  23
ATOM     23  C   UNL     1      49.030   5.444  16.777  0.00  0.00    +0.000 A 
ATOM     24  C   UNL     1      50.280   4.885  17.053  0.00  0.00    +0.000 A 
ATOM     25  N   UNL     1      50.489   3.607  17.463  0.00  0.00    +0.000 NA
ATOM     26  C   UNL     1      49.387   2.836  17.617  0.00  0.00    +0.000 A 
ATOM     27  C   UNL     1      48.105   3.289  17.382  0.00  0.00    +0.000 A 
ATOM     28  F   UNL     1      47.051   2.479  17.547  0.00  0.00    +0.000 F 
ATOM     29  C   UNL     1      47.920   4.597  16.961  0.00  0.00    +0.000 A 
ENDBRANCH  21  23
ENDBRANCH   1  17
TORSDOF 4
ENDMDL
MODEL 7
REMARK VINA RESULT:    -7.025      3.752      5.442
REMARK INTER + INTRA:          -9.111
REMARK INTER:                  -8.159
REMARK INTRA:                  -0.951
REMARK UNBOUND:                -0.443
REMARK  Name = 
REMARK  4 active torsions:
REMARK  status: ('A' for Active; 'I' for Inactive)
REMARK    1  A    between atoms: C_2  and  C_4
REMARK    2  A    between atoms: N_8  and  C_9
REMARK    3  A    between atoms: C_9  and  C_10
REMARK    4  A    between atoms: C_14  and  C_15
REMARK                            x       y       z     vdW  Elec       q    Type
REMARK                         _______ _______ _______ _____ _____    ______ ____
ROOT
ATOM      1  C   UNL     1      48.954   8.349  12.649  0.00  0.00    +0.000 C 
ATOM      2  C   UNL     1      49.820   9.396  11.958  0.00  0.00    +0.000 C 
ATOM      3  C   UNL     1      50.206   7.956  11.891  0.00  0.00    +0.000 C 
ENDROOT
BRANCH   1   8
ATOM      4  C   UNL     1      44.809   5.207  12.803  0.00  0.00    +0.000 A 
ATOM      5  C   UNL     1      46.154   4.854  12.740  0.00  0.00    +0.000 A 
ATOM      6  C   UNL     1      47.115   5.850  12.544  0.00  0.00    +0.000 A 
ATOM      7  C   UNL     1      46.714   7.174  12.406  0.00  0.00    +0.000 A 
ATOM      8  N   UNL     1      47.598   8.211  12.086  0.00  0.00    +0.000 N 
ATOM      9  N   UNL     1      45.413   7.529  12.474  0.00  0.00    +0.000 NA
ATOM     10  C   UNL     1      44.491   6.549  12.665  0.00  0.00    +0.000 A 
ATOM     11  H   UNL     1      47.028   9.056  12.123  0.00  0.00    +0.000 HD
BRANCH   4  13
ATOM     12  N   UNL     1      43.998   2.918  12.656  0.00  0.00    +0.000 N 
ATOM     13  C   UNL     1      43.716   4.223  12.951  0.00  0.00    +0.000 C 
ATOM     14  O   UNL     1      42.605   4.555  13.342  0.00  0.00    +0.000 OA
ATOM     15  H   UNL     1      43.263   2.246  12.836  0.00  0.00    +0.000 HD
ATOM     16  H   UNL     1      44.941   2.567  12.567  0.00  0.00    +0.000 HD
ENDBRANCH   4  13
ENDBRANCH   1   8
BRANCH   1  17
ATOM     17  C   UNL     1      48.965   8.280  14.174  0.00  0.00    +0.000 A 
ATOM     18  C   UNL     1      48.565   9.369  14.965  0.00  0.00    +0.000 A 
ATOM     19  C   UNL     1      48.428   9.250  16.347  0.00  0.00    +0.000 A 
ATOM     20  C   UNL     1      48.665   8.024  16.966  0.00  0.00    +0.000 A 
ATOM     21  C   UNL     1      49.062   6.900  16.223  0.00  0.00    +0.000 A 
ATOM     22  C   UNL     1      49.243   7.068  14.837  0.00  0.00    +0.000 A 
BRANCH  21  23
ATOM     23  C   UNL     1      49.180   5.566  16.847  0.00  0.00    +0.000 A 
ATOM     24  C   UNL     1      50.387   5.065  17.340  0.00  0.00    +0.000 A 
ATOM     25  N   UNL     1      50.560   3.824  17.865  0.00  0.00    +0.000 NA
ATOM     26  C   UNL     1      49.463   3.032  17.910  0.00  0.00    +0.000 A 
ATOM     27  C   UNL     1      48.221   3.429  17.460  0.00  0.00    +0.000 A 
ATOM     28  F   UNL     1      47.170   2.601  17.527  0.00  0.00    +0.000 F 
ATOM     29  C   UNL     1      48.073   4.700  16.927  0.00  0.00    +0.000 A 
ENDBRANCH  21  23
ENDBRANCH   1  17
TORSDOF 4
ENDMDL
MODEL 8
REMARK VINA RESULT:    -6.998      3.062      3.676
REMARK INTER + INTRA:          -9.077
REMARK INTER:                  -9.134
REMARK INTRA:                   0.057
REMARK UNBOUND:                -0.443
REMARK  Name = 
REMARK  4 active torsions:
REMARK  status: ('A' for Active; 'I' for Inactive)
REMARK    1  A    between atoms: C_2  and  C_4
REMARK    2  A    between atoms: N_8  and  C_9
REMARK    3  A    between atoms: C_9  and  C_10
REMARK    4  A    between atoms: C_14  and  C_15
REMARK                            x       y       z     vdW  Elec       q    Type
REMARK                         _______ _______ _______ _____ _____    ______ ____
ROOT
ATOM      1  C   UNL     1      44.043   4.227  11.811  0.00  0.00    +0.000 C 
ATOM      2  C   UNL     1      44.833   3.503  12.895  0.00  0.00    +0.000 C 
ATOM      3  C   UNL     1      43.400   3.848  13.130  0.00  0.00    +0.000 C 
ENDROOT
BRANCH   1   8
ATOM      4  C   UNL     1      46.463   3.056   7.356  0.00  0.00    +0.000 A 
ATOM      5  C   UNL     1      46.390   4.290   7.997  0.00  0.00    +0.000 A 
ATOM      6  C   UNL     1      45.554   4.437   9.107  0.00  0.00    +0.000 A 
ATOM      7  C   UNL     1      44.802   3.354   9.548  0.00  0.00    +0.000 A 
ATOM      8  N   UNL     1      43.852   3.449  10.572  0.00  0.00    +0.000 N 
ATOM      9  N   UNL     1      44.872   2.150   8.940  0.00  0.00    +0.000 NA
ATOM     10  C   UNL     1      45.689   2.024   7.862  0.00  0.00    +0.000 A 
ATOM     11  H   UNL     1      43.525   2.492  10.711  0.00  0.00    +0.000 HD
BRANCH   4  13
ATOM     12  N   UNL     1      48.593   2.508   6.318  0.00  0.00    +0.000 N 
ATOM     13  C   UNL     1      47.273   2.817   6.142  0.00  0.00    +0.000 C 
ATOM     14  O   UNL     1      46.782   2.872   5.024  0.00  0.00    +0.000 OA
ATOM     15  H   UNL     1      49.115   2.272   5.483  0.00  0.00    +0.000 HD
ATOM     16  H   UNL     1      48.977   2.219   7.207  0.00  0.00    +0.000 HD
ENDBRANCH   4  13
ENDBRANCH   1   8
BRANCH   1  17
ATOM     17  C   UNL     1      44.350   5.696  11.538  0.00  0.00    +0.000 A 
ATOM     18  C   UNL     1      43.344   6.608  11.182  0.00  0.00    +0.000 A 
ATOM     19  C   UNL     1      43.603   7.974  11.087  0.00  0.00    +0.000 A 
ATOM     20  C   UNL     1      44.877   8.462  11.371  0.00  0.00    +0.000 A 
ATOM     21  C   UNL     1      45.920   7.597  11.737  0.00  0.00    +0.000 A 
ATOM     22  C   UNL     1      45.640   6.217  11.772  0.00  0.00    +0.000 A 
BRANCH  21  23
ATOM     23  C   UNL     1      47.233   8.114  12.175  0.00  0.00    +0.000 A 
ATOM     24  C   UNL     1      47.368   9.151  13.101  0.00  0.00    +0.000 A 
ATOM     25  N   UNL     1      48.548   9.702  13.488  0.00  0.00    +0.000 NA
ATOM     26  C   UNL     1      49.666   9.186  12.926  0.00  0.00    +0.000 A 
ATOM     27  C   UNL     1      49.648   8.156  12.008  0.00  0.00    +0.000 A 
ATOM     28  F   UNL     1      50.787   7.687  11.481  0.00  0.00    +0.000 F 
ATOM     29  C   UNL     1      48.430   7.614  11.629  0.00  0.00    +0.000 A 
ENDBRANCH  21  23
ENDBRANCH   1  17
TORSDOF 4
ENDMDL
MODEL 9
REMARK VINA RESULT:    -6.896      1.859      2.706
REMARK INTER + INTRA:          -8.952
REMARK INTER:                  -8.009
REMARK INTRA:                  -0.943
REMARK UNBOUND:                -0.443
REMARK  Name = 
REMARK  4 active torsions:
REMARK  status: ('A' for Active; 'I' for Inactive)
REMARK    1  A    between atoms: C_2  and  C_4
REMARK    2  A    between atoms: N_8  and  C_9
REMARK    3  A    between atoms: C_9  and  C_10
REMARK    4  A    between atoms: C_14  and  C_15
REMARK                            x       y       z     vdW  Elec       q    Type
REMARK                         _______ _______ _______ _____ _____    ______ ____
ROOT
ATOM      1  C   UNL     1      45.453   8.143  11.963  0.00  0.00    +0.000 C 
ATOM      2  C   UNL     1      44.851   9.380  12.621  0.00  0.00    +0.000 C 
ATOM      3  C   UNL     1      45.368   9.463  11.223  0.00  0.00    +0.000 C 
ENDROOT
BRANCH   1   8
ATOM      4  C   UNL     1      45.078   3.509   9.626  0.00  0.00    +0.000 A 
ATOM      5  C   UNL     1      45.663   4.674   9.138  0.00  0.00    +0.000 A 
ATOM      6  C   UNL     1      45.520   5.865   9.855  0.00  0.00    +0.000 A 
ATOM      7  C   UNL     1      44.790   5.871  11.038  0.00  0.00    +0.000 A 
ATOM      8  N   UNL     1      44.497   7.040  11.750  0.00  0.00    +0.000 N 
ATOM      9  N   UNL     1      44.226   4.745  11.526  0.00  0.00    +0.000 NA
ATOM     10  C   UNL     1      44.373   3.596  10.816  0.00  0.00    +0.000 A 
ATOM     11  H   UNL     1      44.017   6.717  12.590  0.00  0.00    +0.000 HD
BRANCH   4  13
ATOM     12  N   UNL     1      46.172   2.003   8.060  0.00  0.00    +0.000 N 
ATOM     13  C   UNL     1      45.125   2.215   8.913  0.00  0.00    +0.000 C 
ATOM     14  O   UNL     1      44.273   1.355   9.091  0.00  0.00    +0.000 OA
ATOM     15  H   UNL     1      46.232   1.084   7.639  0.00  0.00    +0.000 HD
ATOM     16  H   UNL     1      47.008   2.570   8.065  0.00  0.00    +0.000 HD
ENDBRANCH   4  13
ENDBRANCH   1   8
BRANCH   1  17
ATOM     17  C   UNL     1      46.818   7.652  12.437  0.00  0.00    +0.000 A 
ATOM     18  C   UNL     1      48.008   8.082  11.831  0.00  0.00    +0.000 A 
ATOM     19  C   UNL     1      49.253   7.754  12.365  0.00  0.00    +0.000 A 
ATOM     20  C   UNL     1      49.333   7.005  13.538  0.00  0.00    +0.000 A 
ATOM     21  C   UNL     1      48.174   6.553  14.189  0.00  0.00    +0.000 A 
ATOM     22  C   UNL     1      46.933   6.855  13.595  0.00  0.00    +0.000 A 
BRANCH  21  23
ATOM     23  C   UNL     1      48.241   5.881  15.503  0.00  0.00    +0.000 A 
ATOM     24  C   UNL     1      49.064   6.325  16.540  0.00  0.00    +0.000 A 
ATOM     25  N   UNL     1      49.207   5.707  17.741  0.00  0.00    +0.000 NA
ATOM     26  C   UNL     1      48.482   4.579  17.928  0.00  0.00    +0.000 A 
ATOM     27  C   UNL     1      47.631   4.058  16.975  0.00  0.00    +0.000 A 
ATOM     28  F   UNL     1      46.939   2.936  17.214  0.00  0.00    +0.000 F 
ATOM     29  C   UNL     1      47.506   4.708  15.757  0.00  0.00    +0.000 A 
ENDBRANCH  21  23
ENDBRANCH   1  17
TORSDOF 4
ENDMDL
