MODEL 1
REMARK VINA RESULT:    -9.315      0.000      0.000
REMARK INTER + INTRA:         -12.173
REMARK INTER:                 -11.494
REMARK INTRA:                  -0.679
REMARK UNBOUND:                -0.679
REMARK  Name = 
REMARK  4 active torsions:
REMARK  status: ('A' for Active; 'I' for Inactive)
REMARK    1  A    between atoms: C_2  and  C_4
REMARK    2  A    between atoms: N_8  and  C_9
REMARK    3  A    between atoms: C_9  and  C_10
REMARK    4  A    between atoms: C_14  and  C_15
REMARK                            x       y       z     vdW  Elec       q    Type
REMARK                         _______ _______ _______ _____ _____    ______ ____
ROOT
ATOM      1  C   UNL     1      43.528   4.914  10.996  0.00  0.00    +0.000 C 
ENDROOT
BRANCH   1   6
ATOM      2  C   UNL     1      46.405   2.271   7.667  0.00  0.00    +0.000 A 
ATOM      3  C   UNL     1      45.650   1.799   8.735  0.00  0.00    +0.000 A 
ATOM      4  C   UNL     1      44.807   2.679   9.414  0.00  0.00    +0.000 A 
ATOM      5  C   UNL     1      44.738   4.012   9.026  0.00  0.00    +0.000 A 
ATOM      6  N   UNL     1      43.861   4.915   9.583  0.00  0.00    +0.000 N 
ATOM      7  N   UNL     1      45.479   4.485   8.003  0.00  0.00    +0.000 NA
ATOM      8  C   UNL     1      46.301   3.617   7.354  0.00  0.00    +0.000 A 
ATOM      9  H   UNL     1      44.032   5.823   9.166  0.00  0.00    +0.000 HD
BRANCH   2  11
ATOM     10  N   UNL     1      48.409   1.984   6.328  0.00  0.00    +0.000 N 
ATOM     11  C   UNL     1      47.297   1.402   6.873  0.00  0.00    +0.000 C 
ATOM     12  O   UNL     1      47.072   0.209   6.735  0.00  0.00    +0.000 OA
ATOM     13  H   UNL     1      49.062   1.364   5.862  0.00  0.00    +0.000 HD
ATOM     14  H   UNL     1      48.755   2.889   6.620  0.00  0.00    +0.000 HD
ENDBRANCH   2  11
ENDBRANCH   1   6
BRANCH   1  15
ATOM     15  C   UNL     1      44.713   5.091  11.911  0.00  0.00    +0.000 A 
ATOM     16  C   UNL     1      44.794   4.362  13.092  0.00  0.00    +0.000 A 
ATOM     17  N   UNL     1      45.762   4.520  14.018  0.00  0.00    +0.000 NA
ATOM     18  C   UNL     1      46.706   5.456  13.757  0.00  0.00    +0.000 A 
ATOM     19  C   UNL     1      46.744   6.266  12.621  0.00  0.00    +0.000 A 
ATOM     20  C   UNL     1      45.703   6.061  11.700  0.00  0.00    +0.000 A 
BRANCH  19  21
ATOM     21  C   UNL     1      47.798   7.280  12.397  0.00  0.00    +0.000 A 
ATOM     22  C   UNL     1      49.161   6.976  12.596  0.00  0.00    +0.000 A 
ATOM     23  C   UNL     1      50.168   7.924  12.376  0.00  0.00    +0.000 A 
ATOM     24  C   UNL     1      49.833   9.207  11.962  0.00  0.00    +0.000 A 
ATOM     25  C   UNL     1      48.497   9.527  11.767  0.00  0.00    +0.000 A 
ATOM     26  F   UNL     1      48.167  10.763  11.372  0.00  0.00    +0.000 F 
ATOM     27  C   UNL     1      47.489   8.586  11.973  0.00  0.00    +0.000 A 
ENDBRANCH  19  21
ENDBRANCH   1  15
TORSDOF 4
ENDMDL
MODEL 2
REMARK VINA RESULT:    -8.666      2.664      3.583
REMARK INTER + INTRA:         -11.372
REMARK INTER:                 -10.663
REMARK INTRA:                  -0.709
REMARK UNBOUND:                -0.679
REMARK  Name = 
REMARK  4 active torsions:
REMARK  status: ('A' for Active; 'I' for Inactive)
REMARK    1  A    between atoms: C_2  and  C_4
REMARK    2  A    between atoms: N_8  and  C_9
REMARK    3  A    between atoms: C_9  and  C_10
REMARK    4  A    between atoms: C_14  and  C_15
REMARK                            x       y       z     vdW  Elec       q    Type
REMARK                         _______ _______ _______ _____ _____    ______ ____
ROOT
ATOM      1  C   UNL     1      43.780   4.855  11.194  0.00  0.00    +0.000 C 
ENDROOT
BRANCH   1   6
ATOM      2  C   UNL     1      46.389   2.248   7.625  0.00  0.00    +0.000 A 
ATOM      3  C   UNL     1      45.780   1.773   8.781  0.00  0.00    +0.000 A 
ATOM      4  C   UNL     1      44.978   2.634   9.531  0.00  0.00    +0.000 A 
ATOM      5  C   UNL     1      44.804   3.952   9.122  0.00  0.00    +0.000 A 
ATOM      6  N   UNL     1      43.953   4.831   9.753  0.00  0.00    +0.000 N 
ATOM      7  N   UNL     1      45.404   4.428   8.011  0.00  0.00    +0.000 NA
ATOM      8  C   UNL     1      46.188   3.579   7.295  0.00  0.00    +0.000 A 
ATOM      9  H   UNL     1      44.034   5.734   9.298  0.00  0.00    +0.000 HD
BRANCH   2  11
ATOM     10  N   UNL     1      48.225   2.017   6.054  0.00  0.00    +0.000 N 
ATOM     11  C   UNL     1      47.227   1.397   6.756  0.00  0.00    +0.000 C 
ATOM     12  O   UNL     1      47.059   0.188   6.690  0.00  0.00    +0.000 OA
ATOM     13  H   UNL     1      48.852   1.414   5.531  0.00  0.00    +0.000 HD
ATOM     14  H   UNL     1      48.548   2.951   6.267  0.00  0.00    +0.000 HD
ENDBRANCH   2  11
ENDBRANCH   1   6
BRANCH   1  15
ATOM     15  C   UNL     1      44.806   5.682  11.927  0.00  0.00    +0.000 A 
ATOM     16  C   UNL     1      45.158   6.938  11.446  0.00  0.00    +0.000 A 
ATOM     17  N   UNL     1      46.130   7.710  11.975  0.00  0.00    +0.000 NA
ATOM     18  C   UNL     1      46.790   7.206  13.047  0.00  0.00    +0.000 A 
ATOM     19  C   UNL     1      46.550   5.960  13.627  0.00  0.00    +0.000 A 
ATOM     20  C   UNL     1      45.533   5.200  13.024  0.00  0.00    +0.000 A 
BRANCH  19  21
ATOM     21  C   UNL     1      47.313   5.461  14.792  0.00  0.00    +0.000 A 
ATOM     22  C   UNL     1      48.323   6.240  15.395  0.00  0.00    +0.000 A 
ATOM     23  C   UNL     1      49.043   5.784  16.506  0.00  0.00    +0.000 A 
ATOM     24  C   UNL     1      48.778   4.525  17.033  0.00  0.00    +0.000 A 
ATOM     25  C   UNL     1      47.794   3.741  16.449  0.00  0.00    +0.000 A 
ATOM     26  F   UNL     1      47.537   2.527  16.950  0.00  0.00    +0.000 F 
ATOM     27  C   UNL     1      47.064   4.194  15.351  0.00  0.00    +0.000 A 
ENDBRANCH  19  21
ENDBRANCH   1  15
TORSDOF 4
ENDMDL
MODEL 3
REMARK VINA RESULT:    -8.594      4.038      7.058
REMARK INTER + INTRA:         -11.282
REMARK INTER:                 -10.756
REMARK INTRA:                  -0.526
REMARK UNBOUND:                -0.679
REMARK  Name = 
REMARK  4 active torsions:
REMARK  status: ('A' for Active; 'I' for Inactive)
REMARK    1  A    between atoms: C_2  and  C_4
REMARK    2  A    between atoms: N_8  and  C_9
REMARK    3  A    between atoms: C_9  and  C_10
REMARK    4  A    between atoms: C_14  and  C_15
REMARK                            x       y       z     vdW  Elec       q    Type
REMARK                         _______ _______ _______ _____ _____    ______ ____
ROOT
ATOM      1  C   UNL     1      43.764   6.599  11.388  0.00  0.00    +0.000 C 
ENDROOT
BRANCH   1   6
ATOM      2  C   UNL     1      48.371   7.094  13.596  0.00  0.00    +0.000 A 
ATOM      3  C   UNL     1      47.584   5.955  13.465  0.00  0.00    +0.000 A 
ATOM      4  C   UNL     1      46.433   6.010  12.678  0.00  0.00    +0.000 A 
ATOM      5  C   UNL     1      46.081   7.197  12.047  0.00  0.00    +0.000 A 
ATOM      6  N   UNL     1      45.016   7.304  11.180  0.00  0.00    +0.000 N 
ATOM      7  N   UNL     1      46.827   8.313  12.181  0.00  0.00    +0.000 NA
ATOM      8  C   UNL     1      47.943   8.246  12.956  0.00  0.00    +0.000 A 
ATOM      9  H   UNL     1      44.940   8.271  10.887  0.00  0.00    +0.000 HD
BRANCH   2  11
ATOM     10  N   UNL     1      50.668   7.832  13.866  0.00  0.00    +0.000 N 
ATOM     11  C   UNL     1      49.623   7.114  14.381  0.00  0.00    +0.000 C 
ATOM     12  O   UNL     1      49.712   6.545  15.458  0.00  0.00    +0.000 OA
ATOM     13  H   UNL     1      51.491   7.916  14.452  0.00  0.00    +0.000 HD
ATOM     14  H   UNL     1      50.558   8.506  13.119  0.00  0.00    +0.000 HD
ENDBRANCH   2  11
ENDBRANCH   1   6
BRANCH   1  15
ATOM     15  C   UNL     1      43.792   5.151  10.968  0.00  0.00    +0.000 A 
ATOM     16  C   UNL     1      43.088   4.202  11.700  0.00  0.00    +0.000 A 
ATOM     17  N   UNL     1      43.127   2.875  11.460  0.00  0.00    +0.000 NA
ATOM     18  C   UNL     1      43.911   2.466  10.433  0.00  0.00    +0.000 A 
ATOM     19  C   UNL     1      44.678   3.304   9.623  0.00  0.00    +0.000 A 
ATOM     20  C   UNL     1      44.603   4.673   9.929  0.00  0.00    +0.000 A 
BRANCH  19  21
ATOM     21  C   UNL     1      45.523   2.794   8.520  0.00  0.00    +0.000 A 
ATOM     22  C   UNL     1      45.955   3.640   7.477  0.00  0.00    +0.000 A 
ATOM     23  C   UNL     1      46.765   3.172   6.435  0.00  0.00    +0.000 A 
ATOM     24  C   UNL     1      47.154   1.838   6.406  0.00  0.00    +0.000 A 
ATOM     25  C   UNL     1      46.734   0.989   7.420  0.00  0.00    +0.000 A 
ATOM     26  F   UNL     1      47.102  -0.297   7.395  0.00  0.00    +0.000 F 
ATOM     27  C   UNL     1      45.937   1.450   8.467  0.00  0.00    +0.000 A 
ENDBRANCH  19  21
ENDBRANCH   1  15
TORSDOF 4
ENDMDL
MODEL 4
REMARK VINA RESULT:    -8.420      3.966      6.971
REMARK INTER + INTRA:         -11.068
REMARK INTER:                 -10.251
REMARK INTRA:                  -0.817
REMARK UNBOUND:                -0.679
REMARK  Name = 
REMARK  4 active torsions:
REMARK  status: ('A' for Active; 'I' for Inactive)
REMARK    1  A    between atoms: C_2  and  C_4
REMARK    2  A    between atoms: N_8  and  C_9
REMARK    3  A    between atoms: C_9  and  C_10
REMARK    4  A    between atoms: C_14  and  C_15
REMARK                            x       y       z     vdW  Elec       q    Type
REMARK                         _______ _______ _______ _____ _____    ______ ____
ROOT
ATOM      1  C   UNL     1      43.794   6.309  11.759  0.00  0.00    +0.000 C 
ENDROOT
BRANCH   1   6
ATOM      2  C   UNL     1      48.710   7.419  12.732  0.00  0.00    +0.000 A 
ATOM      3  C   UNL     1      47.884   7.920  11.732  0.00  0.00    +0.000 A 
ATOM      4  C   UNL     1      46.525   7.604  11.750  0.00  0.00    +0.000 A 
ATOM      5  C   UNL     1      46.015   6.790  12.755  0.00  0.00    +0.000 A 
ATOM      6  N   UNL     1      44.674   6.513  12.895  0.00  0.00    +0.000 N 
ATOM      7  N   UNL     1      46.811   6.283  13.720  0.00  0.00    +0.000 NA
ATOM      8  C   UNL     1      48.134   6.594  13.685  0.00  0.00    +0.000 A 
ATOM      9  H   UNL     1      44.561   5.868  13.668  0.00  0.00    +0.000 HD
BRANCH   2  11
ATOM     10  N   UNL     1      50.917   7.397  11.722  0.00  0.00    +0.000 N 
ATOM     11  C   UNL     1      50.152   7.729  12.807  0.00  0.00    +0.000 C 
ATOM     12  O   UNL     1      50.637   8.288  13.779  0.00  0.00    +0.000 OA
ATOM     13  H   UNL     1      51.886   7.694  11.744  0.00  0.00    +0.000 HD
ATOM     14  H   UNL     1      50.521   7.166  10.820  0.00  0.00    +0.000 HD
ENDBRANCH   2  11
ENDBRANCH   1   6
BRANCH   1  15
ATOM     15  C   UNL     1      43.825   4.911  11.195  0.00  0.00    +0.000 A 
ATOM     16  C   UNL     1      43.124   3.891  11.828  0.00  0.00    +0.000 A 
ATOM     17  N   UNL     1      43.167   2.595  11.457  0.00  0.00    +0.000 NA
ATOM     18  C   UNL     1      43.951   2.293  10.393  0.00  0.00    +0.000 A 
ATOM     19  C   UNL     1      44.716   3.210   9.671  0.00  0.00    +0.000 A 
ATOM     20  C   UNL     1      44.637   4.542  10.113  0.00  0.00    +0.000 A 
BRANCH  19  21
ATOM     21  C   UNL     1      45.562   2.816   8.523  0.00  0.00    +0.000 A 
ATOM     22  C   UNL     1      45.962   3.757   7.551  0.00  0.00    +0.000 A 
ATOM     23  C   UNL     1      46.772   3.399   6.467  0.00  0.00    +0.000 A 
ATOM     24  C   UNL     1      47.193   2.082   6.322  0.00  0.00    +0.000 A 
ATOM     25  C   UNL     1      46.804   1.141   7.264  0.00  0.00    +0.000 A 
ATOM     26  F   UNL     1      47.203  -0.130   7.128  0.00  0.00    +0.000 F 
ATOM     27  C   UNL     1      46.007   1.493   8.353  0.00  0.00    +0.000 A 
ENDBRANCH  19  21
ENDBRANCH   1  15
TORSDOF 4
ENDMDL
MODEL 5
REMARK VINA RESULT:    -8.387      4.196      7.407
REMARK INTER + INTRA:         -11.027
REMARK INTER:                 -10.518
REMARK INTRA:                  -0.508
REMARK UNBOUND:                -0.679
REMARK  Name = 
REMARK  4 active torsions:
REMARK  status: ('A' for Active; 'I' for Inactive)
REMARK    1  A    between atoms: C_2  and  C_4
REMARK    2  A    between atoms: N_8  and  C_9
REMARK    3  A    between atoms: C_9  and  C_10
REMARK    4  A    between atoms: C_14  and  C_15
REMARK                            x       y       z     vdW  Elec       q    Type
REMARK                         _______ _______ _______ _____ _____    ______ ____
ROOT
ATOM      1  C   UNL     1      44.887   6.799  11.473  0.00  0.00    +0.000 C 
ENDROOT
BRANCH   1   6
ATOM      2  C   UNL     1      47.995   5.552  15.362  0.00  0.00    +0.000 A 
ATOM      3  C   UNL     1      46.970   4.807  14.791  0.00  0.00    +0.000 A 
ATOM      4  C   UNL     1      46.356   5.273  13.628  0.00  0.00    +0.000 A 
ATOM      5  C   UNL     1      46.766   6.474  13.061  0.00  0.00    +0.000 A 
ATOM      6  N   UNL     1      46.277   6.950  11.865  0.00  0.00    +0.000 N 
ATOM      7  N   UNL     1      47.747   7.215  13.617  0.00  0.00    +0.000 NA
ATOM      8  C   UNL     1      48.332   6.751  14.754  0.00  0.00    +0.000 A 
ATOM      9  H   UNL     1      46.694   7.856  11.689  0.00  0.00    +0.000 HD
BRANCH   2  11
ATOM     10  N   UNL     1      47.967   4.645  17.614  0.00  0.00    +0.000 N 
ATOM     11  C   UNL     1      48.720   5.117  16.574  0.00  0.00    +0.000 C 
ATOM     12  O   UNL     1      49.940   5.146  16.634  0.00  0.00    +0.000 OA
ATOM     13  H   UNL     1      48.475   4.265  18.405  0.00  0.00    +0.000 HD
ATOM     14  H   UNL     1      46.996   4.377  17.513  0.00  0.00    +0.000 HD
ENDBRANCH   2  11
ENDBRANCH   1   6
BRANCH   1  15
ATOM     15  C   UNL     1      44.542   5.438  10.926  0.00  0.00    +0.000 A 
ATOM     16  C   UNL     1      43.525   4.692  11.510  0.00  0.00    +0.000 A 
ATOM     17  N   UNL     1      43.207   3.429  11.154  0.00  0.00    +0.000 NA
ATOM     18  C   UNL     1      43.942   2.875  10.159  0.00  0.00    +0.000 A 
ATOM     19  C   UNL     1      44.996   3.502   9.492  0.00  0.00    +0.000 A 
ATOM     20  C   UNL     1      45.284   4.810   9.915  0.00  0.00    +0.000 A 
BRANCH  19  21
ATOM     21  C   UNL     1      45.768   2.839   8.418  0.00  0.00    +0.000 A 
ATOM     22  C   UNL     1      46.310   3.576   7.344  0.00  0.00    +0.000 A 
ATOM     23  C   UNL     1      47.053   2.961   6.328  0.00  0.00    +0.000 A 
ATOM     24  C   UNL     1      47.261   1.588   6.357  0.00  0.00    +0.000 A 
ATOM     25  C   UNL     1      46.730   0.845   7.402  0.00  0.00    +0.000 A 
ATOM     26  F   UNL     1      46.925  -0.479   7.433  0.00  0.00    +0.000 F 
ATOM     27  C   UNL     1      46.000   1.451   8.423  0.00  0.00    +0.000 A 
ENDBRANCH  19  21
ENDBRANCH   1  15
TORSDOF 4
ENDMDL
MODEL 6
REMARK VINA RESULT:    -8.041      4.133      7.139
REMARK INTER + INTRA:         -10.601
REMARK INTER:                  -9.881
REMARK INTRA:                  -0.720
REMARK UNBOUND:                -0.679
REMARK  Name = 
REMARK  4 active torsions:
REMARK  status: ('A' for Active; 'I' for Inactive)
REMARK    1  A    between atoms: C_2  and  C_4
REMARK    2  A    between atoms: N_8  and  C_9
REMARK    3  A    between atoms: C_9  and  C_10
REMARK    4  A    between atoms: C_14  and  C_15
REMARK                            x       y       z     vdW  Elec       q    Type
REMARK                         _______ _______ _______ _____ _____    ______ ____
ROOT
ATOM      1  C   UNL     1      44.851   5.426  13.198  0.00  0.00    +0.000 C 
ENDROOT
BRANCH   1   6
ATOM      2  C   UNL     1      48.172   9.127  11.931  0.00  0.00    +0.000 A 
ATOM      3  C   UNL     1      48.280   7.755  11.737  0.00  0.00    +0.000 A 
ATOM      4  C   UNL     1      47.180   6.941  12.010  0.00  0.00    +0.000 A 
ATOM      5  C   UNL     1      45.999   7.505  12.480  0.00  0.00    +0.000 A 
ATOM      6  N   UNL     1      44.845   6.782  12.679  0.00  0.00    +0.000 N 
ATOM      7  N   UNL     1      45.890   8.833  12.689  0.00  0.00    +0.000 NA
ATOM      8  C   UNL     1      46.972   9.613  12.424  0.00  0.00    +0.000 A 
ATOM      9  H   UNL     1      44.142   7.403  13.063  0.00  0.00    +0.000 HD
BRANCH   2  11
ATOM     10  N   UNL     1      50.490   9.517  11.324  0.00  0.00    +0.000 N 
ATOM     11  C   UNL     1      49.276  10.064  11.635  0.00  0.00    +0.000 C 
ATOM     12  O   UNL     1      49.105  11.274  11.637  0.00  0.00    +0.000 OA
ATOM     13  H   UNL     1      51.217  10.163  11.035  0.00  0.00    +0.000 HD
ATOM     14  H   UNL     1      50.607   8.543  11.074  0.00  0.00    +0.000 HD
ENDBRANCH   2  11
ENDBRANCH   1   6
BRANCH   1  15
ATOM     15  C   UNL     1      44.452   4.376  12.193  0.00  0.00    +0.000 A 
ATOM     16  C   UNL     1      43.423   3.489  12.486  0.00  0.00    +0.000 A 
ATOM     17  N   UNL     1      43.059   2.458  11.694  0.00  0.00    +0.000 NA
ATOM     18  C   UNL     1      43.757   2.300  10.543  0.00  0.00    +0.000 A 
ATOM     19  C   UNL     1      44.817   3.107  10.128  0.00  0.00    +0.000 A 
ATOM     20  C   UNL     1      45.155   4.155  11.000  0.00  0.00    +0.000 A 
BRANCH  19  21
ATOM     21  C   UNL     1      45.548   2.876   8.862  0.00  0.00    +0.000 A 
ATOM     22  C   UNL     1      45.867   3.943   7.995  0.00  0.00    +0.000 A 
ATOM     23  C   UNL     1      46.568   3.739   6.801  0.00  0.00    +0.000 A 
ATOM     24  C   UNL     1      46.958   2.455   6.438  0.00  0.00    +0.000 A 
ATOM     25  C   UNL     1      46.648   1.392   7.274  0.00  0.00    +0.000 A 
ATOM     26  F   UNL     1      47.018   0.153   6.928  0.00  0.00    +0.000 F 
ATOM     27  C   UNL     1      45.960   1.589   8.470  0.00  0.00    +0.000 A 
ENDBRANCH  19  21
ENDBRANCH   1  15
TORSDOF 4
ENDMDL
MODEL 7
REMARK VINA RESULT:    -8.020      2.028      2.568
REMARK INTER + INTRA:         -10.574
REMARK INTER:                 -10.310
REMARK INTRA:                  -0.264
REMARK UNBOUND:                -0.679
REMARK  Name = 
REMARK  4 active torsions:
REMARK  status: ('A' for Active; 'I' for Inactive)
REMARK    1  A    between atoms: C_2  and  C_4
REMARK    2  A    between atoms: N_8  and  C_9
REMARK    3  A    between atoms: C_9  and  C_10
REMARK    4  A    between atoms: C_14  and  C_15
REMARK                            x       y       z     vdW  Elec       q    Type
REMARK                         _______ _______ _______ _____ _____    ______ ____
ROOT
ATOM      1  C   UNL     1      43.448   3.466  11.015  0.00  0.00    +0.000 C 
ENDROOT
BRANCH   1   6
ATOM      2  C   UNL     1      46.699   2.507   7.162  0.00  0.00    +0.000 A 
ATOM      3  C   UNL     1      46.248   3.733   7.637  0.00  0.00    +0.000 A 
ATOM      4  C   UNL     1      45.490   3.771   8.809  0.00  0.00    +0.000 A 
ATOM      5  C   UNL     1      45.188   2.591   9.478  0.00  0.00    +0.000 A 
ATOM      6  N   UNL     1      44.531   2.556  10.687  0.00  0.00    +0.000 N 
ATOM      7  N   UNL     1      45.606   1.394   9.016  0.00  0.00    +0.000 NA
ATOM      8  C   UNL     1      46.338   1.372   7.870  0.00  0.00    +0.000 A 
ATOM      9  H   UNL     1      44.392   1.586  10.946  0.00  0.00    +0.000 HD
BRANCH   2  11
ATOM     10  N   UNL     1      47.387   3.342   4.989  0.00  0.00    +0.000 N 
ATOM     11  C   UNL     1      47.533   2.378   5.949  0.00  0.00    +0.000 C 
ATOM     12  O   UNL     1      48.343   1.472   5.822  0.00  0.00    +0.000 OA
ATOM     13  H   UNL     1      48.025   3.297   4.202  0.00  0.00    +0.000 HD
ATOM     14  H   UNL     1      46.921   4.224   5.161  0.00  0.00    +0.000 HD
ENDBRANCH   2  11
ENDBRANCH   1   6
BRANCH   1  15
ATOM     15  C   UNL     1      43.897   4.862  11.365  0.00  0.00    +0.000 A 
ATOM     16  C   UNL     1      43.044   5.939  11.156  0.00  0.00    +0.000 A 
ATOM     17  N   UNL     1      43.388   7.230  11.347  0.00  0.00    +0.000 NA
ATOM     18  C   UNL     1      44.653   7.465  11.773  0.00  0.00    +0.000 A 
ATOM     19  C   UNL     1      45.617   6.485  12.013  0.00  0.00    +0.000 A 
ATOM     20  C   UNL     1      45.201   5.162  11.786  0.00  0.00    +0.000 A 
BRANCH  19  21
ATOM     21  C   UNL     1      46.987   6.807  12.468  0.00  0.00    +0.000 A 
ATOM     22  C   UNL     1      47.898   7.483  11.629  0.00  0.00    +0.000 A 
ATOM     23  C   UNL     1      49.193   7.803  12.052  0.00  0.00    +0.000 A 
ATOM     24  C   UNL     1      49.614   7.442  13.327  0.00  0.00    +0.000 A 
ATOM     25  C   UNL     1      48.735   6.770  14.164  0.00  0.00    +0.000 A 
ATOM     26  F   UNL     1      49.136   6.417  15.391  0.00  0.00    +0.000 F 
ATOM     27  C   UNL     1      47.440   6.459  13.754  0.00  0.00    +0.000 A 
ENDBRANCH  19  21
ENDBRANCH   1  15
TORSDOF 4
ENDMDL
MODEL 8
REMARK VINA RESULT:    -7.776      4.794      8.153
REMARK INTER + INTRA:         -10.274
REMARK INTER:                  -9.802
REMARK INTRA:                  -0.472
REMARK UNBOUND:                -0.679
REMARK  Name = 
REMARK  4 active torsions:
REMARK  status: ('A' for Active; 'I' for Inactive)
REMARK    1  A    between atoms: C_2  and  C_4
REMARK    2  A    between atoms: N_8  and  C_9
REMARK    3  A    between atoms: C_9  and  C_10
REMARK    4  A    between atoms: C_14  and  C_15
REMARK                            x       y       z     vdW  Elec       q    Type
REMARK                         _______ _______ _______ _____ _____    ______ ____
ROOT
ATOM      1  C   UNL     1      45.367   4.488  13.575  0.00  0.00    +0.000 C 
ENDROOT
BRANCH   1   6
ATOM      2  C   UNL     1      48.836   5.091  17.308  0.00  0.00    +0.000 A 
ATOM      3  C   UNL     1      47.880   4.093  17.159  0.00  0.00    +0.000 A 
ATOM      4  C   UNL     1      47.143   4.028  15.975  0.00  0.00    +0.000 A 
ATOM      5  C   UNL     1      47.364   4.961  14.969  0.00  0.00    +0.000 A 
ATOM      6  N   UNL     1      46.748   4.904  13.739  0.00  0.00    +0.000 N 
ATOM      7  N   UNL     1      48.277   5.945  15.110  0.00  0.00    +0.000 NA
ATOM      8  C   UNL     1      48.982   5.999  16.272  0.00  0.00    +0.000 A 
ATOM      9  H   UNL     1      47.037   5.713  13.200  0.00  0.00    +0.000 HD
BRANCH   2  11
ATOM     10  N   UNL     1      50.113   4.050  19.090  0.00  0.00    +0.000 N 
ATOM     11  C   UNL     1      49.682   5.214  18.513  0.00  0.00    +0.000 C 
ATOM     12  O   UNL     1      50.011   6.303  18.956  0.00  0.00    +0.000 OA
ATOM     13  H   UNL     1      50.766   4.142  19.862  0.00  0.00    +0.000 HD
ATOM     14  H   UNL     1      50.071   3.155  18.622  0.00  0.00    +0.000 HD
ENDBRANCH   2  11
ENDBRANCH   1   6
BRANCH   1  15
ATOM     15  C   UNL     1      44.876   4.518  12.149  0.00  0.00    +0.000 A 
ATOM     16  C   UNL     1      43.671   5.140  11.843  0.00  0.00    +0.000 A 
ATOM     17  N   UNL     1      43.104   5.136  10.618  0.00  0.00    +0.000 NA
ATOM     18  C   UNL     1      43.773   4.478   9.640  0.00  0.00    +0.000 A 
ATOM     19  C   UNL     1      44.983   3.804   9.807  0.00  0.00    +0.000 A 
ATOM     20  C   UNL     1      45.517   3.835  11.106  0.00  0.00    +0.000 A 
BRANCH  19  21
ATOM     21  C   UNL     1      45.661   3.094   8.700  0.00  0.00    +0.000 A 
ATOM     22  C   UNL     1      46.145   3.789   7.571  0.00  0.00    +0.000 A 
ATOM     23  C   UNL     1      46.799   3.130   6.523  0.00  0.00    +0.000 A 
ATOM     24  C   UNL     1      46.973   1.752   6.574  0.00  0.00    +0.000 A 
ATOM     25  C   UNL     1      46.498   1.050   7.672  0.00  0.00    +0.000 A 
ATOM     26  F   UNL     1      46.660  -0.278   7.724  0.00  0.00    +0.000 F 
ATOM     27  C   UNL     1      45.857   1.701   8.725  0.00  0.00    +0.000 A 
ENDBRANCH  19  21
ENDBRANCH   1  15
TORSDOF 4
ENDMDL
MODEL 9
REMARK VINA RESULT:    -7.494      3.568      7.021
REMARK INTER + INTRA:          -9.925
REMARK INTER:                  -9.271
REMARK INTRA:                  -0.654
REMARK UNBOUND:                -0.679
REMARK  Name = 
REMARK  4 active torsions:
REMARK  status: ('A' for Active; 'I' for Inactive)
REMARK    1  A    between atoms: C_2  and  C_4
REMARK    2  A    between atoms: N_8  and  C_9
REMARK    3  A    between atoms: C_9  and  C_10
REMARK    4  A    between atoms: C_14  and  C_15
REMARK                            x       y       z     vdW  Elec       q    Type
REMARK                         _______ _______ _______ _____ _____    ______ ____
ROOT
ATOM      1  C   UNL     1      44.974   6.563  12.152  0.00  0.00    +0.000 C 
ENDROOT
BRANCH   1   6
ATOM      2  C   UNL     1      49.796   8.315  12.040  0.00  0.00    +0.000 A 
ATOM      3  C   UNL     1      48.615   8.994  11.762  0.00  0.00    +0.000 A 
ATOM      4  C   UNL     1      47.394   8.367  12.016  0.00  0.00    +0.000 A 
ATOM      5  C   UNL     1      47.372   7.076  12.531  0.00  0.00    +0.000 A 
ATOM      6  N   UNL     1      46.212   6.430  12.897  0.00  0.00    +0.000 N 
ATOM      7  N   UNL     1      48.512   6.401  12.788  0.00  0.00    +0.000 NA
ATOM      8  C   UNL     1      49.694   7.023  12.529  0.00  0.00    +0.000 A 
ATOM      9  H   UNL     1      46.452   5.493  13.200  0.00  0.00    +0.000 HD
BRANCH   2  11
ATOM     10  N   UNL     1      51.888   9.148  12.949  0.00  0.00    +0.000 N 
ATOM     11  C   UNL     1      51.130   8.916  11.833  0.00  0.00    +0.000 C 
ATOM     12  O   UNL     1      51.553   9.164  10.714  0.00  0.00    +0.000 OA
ATOM     13  H   UNL     1      52.835   9.476  12.792  0.00  0.00    +0.000 HD
ATOM     14  H   UNL     1      51.681   8.737  13.849  0.00  0.00    +0.000 HD
ENDBRANCH   2  11
ENDBRANCH   1   6
BRANCH   1  15
ATOM     15  C   UNL     1      44.535   5.303  11.450  0.00  0.00    +0.000 A 
ATOM     16  C   UNL     1      43.472   4.562  11.954  0.00  0.00    +0.000 A 
ATOM     17  N   UNL     1      43.068   3.375  11.454  0.00  0.00    +0.000 NA
ATOM     18  C   UNL     1      43.759   2.897  10.391  0.00  0.00    +0.000 A 
ATOM     19  C   UNL     1      44.849   3.527   9.790  0.00  0.00    +0.000 A 
ATOM     20  C   UNL     1      45.228   4.753  10.363  0.00  0.00    +0.000 A 
BRANCH  19  21
ATOM     21  C   UNL     1      45.570   2.948   8.635  0.00  0.00    +0.000 A 
ATOM     22  C   UNL     1      45.974   1.596   8.627  0.00  0.00    +0.000 A 
ATOM     23  C   UNL     1      46.646   1.034   7.534  0.00  0.00    +0.000 A 
ATOM     24  C   UNL     1      46.941   1.817   6.425  0.00  0.00    +0.000 A 
ATOM     25  C   UNL     1      46.558   3.151   6.418  0.00  0.00    +0.000 A 
ATOM     26  F   UNL     1      46.843   3.911   5.354  0.00  0.00    +0.000 F 
ATOM     27  C   UNL     1      45.879   3.714   7.496  0.00  0.00    +0.000 A 
ENDBRANCH  19  21
ENDBRANCH   1  15
TORSDOF 4
ENDMDL
