MODEL 1
REMARK VINA RESULT:    -9.031      0.000      0.000
REMARK INTER + INTRA:         -14.319
REMARK INTER:                 -13.254
REMARK INTRA:                  -1.065
REMARK UNBOUND:                -1.065
REMARK  Name = 
REMARK  9 active torsions:
REMARK  status: ('A' for Active; 'I' for Inactive)
REMARK    1  A    between atoms: C_2  and  O_3
REMARK    2  A    between atoms: C_2  and  C_4
REMARK    3  A    between atoms: N_8  and  C_9
REMARK    4  A    between atoms: C_9  and  C_10
REMARK    5  A    between atoms: C_10  and  C_13
REMARK    6  A    between atoms: C_17  and  N_18
REMARK    7  A    between atoms: C_21  and  C_22
REMARK    8  A    between atoms: C_22  and  C_23
REMARK    9  A    between atoms: C_23  and  O_24
REMARK                            x       y       z     vdW  Elec       q    Type
REMARK                         _______ _______ _______ _____ _____    ______ ____
ROOT
ATOM      1  C   UNL     1      43.193   5.621  11.995  0.00  0.00    +0.000 C 
ATOM      2  F   UNL     1      42.297   6.600  11.657  0.00  0.00    +0.000 F 
ATOM      3  F   UNL     1      42.633   4.994  13.077  0.00  0.00    +0.000 F 
ENDROOT
BRANCH   1   4
ATOM      4  C   UNL     1      44.543   6.223  12.361  0.00  0.00    +0.000 A 
ATOM      5  C   UNL     1      44.834   7.514  11.901  0.00  0.00    +0.000 A 
ATOM      6  C   UNL     1      46.028   8.138  12.250  0.00  0.00    +0.000 A 
ATOM      7  C   UNL     1      46.945   7.482  13.077  0.00  0.00    +0.000 A 
ATOM      8  C   UNL     1      46.705   6.192  13.558  0.00  0.00    +0.000 A 
ATOM      9  C   UNL     1      45.501   5.578  13.170  0.00  0.00    +0.000 A 
BRANCH   8  10
ATOM     10  N   UNL     1      47.585   5.547  14.408  0.00  0.00    +0.000 N 
ATOM     11  C   UNL     1      47.347   4.172  14.855  0.00  0.00    +0.000 C 
ATOM     12  C   UNL     1      47.131   4.136  16.367  0.00  0.00    +0.000 C 
ATOM     13  C   UNL     1      48.271   4.832  17.136  0.00  0.00    +0.000 C 
ATOM     14  C   UNL     1      48.416   6.265  16.593  0.00  0.00    +0.000 C 
ATOM     15  C   UNL     1      48.653   6.291  15.080  0.00  0.00    +0.000 C 
BRANCH  13  16
ATOM     16  C   UNL     1      49.580   4.017  17.072  0.00  0.00    +0.000 C 
BRANCH  16  17
ATOM     17  C   UNL     1      49.378   2.519  17.283  0.00  0.00    +0.000 C 
BRANCH  17  18
ATOM     18  O   UNL     1      49.771   1.811  16.114  0.00  0.00    +0.000 OA
ATOM     19  H   UNL     1      49.135   1.092  15.978  0.00  0.00    +0.000 HD
ENDBRANCH  17  18
ENDBRANCH  16  17
ENDBRANCH  13  16
ENDBRANCH   8  10
ENDBRANCH   1   4
BRANCH   1  20
ATOM     20  C   UNL     1      43.240   4.599  10.834  0.00  0.00    +0.000 C 
BRANCH  20  25
ATOM     21  C   UNL     1      46.497   2.275   7.635  0.00  0.00    +0.000 A 
ATOM     22  C   UNL     1      45.762   1.795   8.709  0.00  0.00    +0.000 A 
ATOM     23  C   UNL     1      44.951   2.675   9.423  0.00  0.00    +0.000 A 
ATOM     24  C   UNL     1      44.882   4.018   9.052  0.00  0.00    +0.000 A 
ATOM     25  N   UNL     1      44.144   4.945   9.739  0.00  0.00    +0.000 N 
ATOM     26  N   UNL     1      45.575   4.484   7.994  0.00  0.00    +0.000 NA
ATOM     27  C   UNL     1      46.349   3.611   7.299  0.00  0.00    +0.000 A 
ATOM     28  H   UNL     1      44.117   5.875   9.334  0.00  0.00    +0.000 HD
BRANCH  21  30
ATOM     29  O   UNL     1      48.353   1.729   6.279  0.00  0.00    +0.000 OA
ATOM     30  C   UNL     1      47.360   1.350   6.878  0.00  0.00    +0.000 C 
BRANCH  30  31
ATOM     31  O   UNL     1      46.925   0.075   6.858  0.00  0.00    +0.000 OA
ATOM     32  H   UNL     1      47.506  -0.586   7.279  0.00  0.00    +0.000 HD
ENDBRANCH  30  31
ENDBRANCH  21  30
ENDBRANCH  20  25
ENDBRANCH   1  20
TORSDOF 9
ENDMDL
MODEL 2
REMARK VINA RESULT:    -8.883      1.662      1.978
REMARK INTER + INTRA:         -14.102
REMARK INTER:                 -12.883
REMARK INTRA:                  -1.220
REMARK UNBOUND:                -1.065
REMARK  Name = 
REMARK  9 active torsions:
REMARK  status: ('A' for Active; 'I' for Inactive)
REMARK    1  A    between atoms: C_2  and  O_3
REMARK    2  A    between atoms: C_2  and  C_4
REMARK    3  A    between atoms: N_8  and  C_9
REMARK    4  A    between atoms: C_9  and  C_10
REMARK    5  A    between atoms: C_10  and  C_13
REMARK    6  A    between atoms: C_17  and  N_18
REMARK    7  A    between atoms: C_21  and  C_22
REMARK    8  A    between atoms: C_22  and  C_23
REMARK    9  A    between atoms: C_23  and  O_24
REMARK                            x       y       z     vdW  Elec       q    Type
REMARK                         _______ _______ _______ _____ _____    ______ ____
ROOT
ATOM      1  C   UNL     1      43.736   4.571  12.457  0.00  0.00    +0.000 C 
ATOM      2  F   UNL     1      42.789   5.442  12.929  0.00  0.00    +0.000 F 
ATOM      3  F   UNL     1      43.519   3.412  13.155  0.00  0.00    +0.000 F 
ENDROOT
BRANCH   1   4
ATOM      4  C   UNL     1      45.140   5.101  12.717  0.00  0.00    +0.000 A 
ATOM      5  C   UNL     1      45.691   5.988  11.784  0.00  0.00    +0.000 A 
ATOM      6  C   UNL     1      46.946   6.550  11.995  0.00  0.00    +0.000 A 
ATOM      7  C   UNL     1      47.666   6.238  13.153  0.00  0.00    +0.000 A 
ATOM      8  C   UNL     1      47.164   5.354  14.112  0.00  0.00    +0.000 A 
ATOM      9  C   UNL     1      45.902   4.786  13.861  0.00  0.00    +0.000 A 
BRANCH   8  10
ATOM     10  N   UNL     1      47.847   5.068  15.280  0.00  0.00    +0.000 N 
ATOM     11  C   UNL     1      47.567   3.854  16.051  0.00  0.00    +0.000 C 
ATOM     12  C   UNL     1      47.007   4.216  17.426  0.00  0.00    +0.000 C 
ATOM     13  C   UNL     1      47.907   5.215  18.178  0.00  0.00    +0.000 C 
ATOM     14  C   UNL     1      48.117   6.448  17.281  0.00  0.00    +0.000 C 
ATOM     15  C   UNL     1      48.697   6.078  15.913  0.00  0.00    +0.000 C 
BRANCH  13  16
ATOM     16  C   UNL     1      49.227   4.558  18.634  0.00  0.00    +0.000 C 
BRANCH  16  17
ATOM     17  C   UNL     1      49.451   4.619  20.143  0.00  0.00    +0.000 C 
BRANCH  17  18
ATOM     18  O   UNL     1      48.513   3.776  20.802  0.00  0.00    +0.000 OA
ATOM     19  H   UNL     1      47.625   4.074  20.553  0.00  0.00    +0.000 HD
ENDBRANCH  17  18
ENDBRANCH  16  17
ENDBRANCH  13  16
ENDBRANCH   8  10
ENDBRANCH   1   4
BRANCH   1  20
ATOM     20  C   UNL     1      43.422   4.288  10.969  0.00  0.00    +0.000 C 
BRANCH  20  25
ATOM     21  C   UNL     1      46.574   2.567   7.316  0.00  0.00    +0.000 A 
ATOM     22  C   UNL     1      46.122   3.844   7.616  0.00  0.00    +0.000 A 
ATOM     23  C   UNL     1      45.241   4.019   8.681  0.00  0.00    +0.000 A 
ATOM     24  C   UNL     1      44.827   2.920   9.434  0.00  0.00    +0.000 A 
ATOM     25  N   UNL     1      43.926   3.014  10.460  0.00  0.00    +0.000 N 
ATOM     26  N   UNL     1      45.283   1.680   9.162  0.00  0.00    +0.000 NA
ATOM     27  C   UNL     1      46.153   1.528   8.130  0.00  0.00    +0.000 A 
ATOM     28  H   UNL     1      43.757   2.158  10.978  0.00  0.00    +0.000 HD
BRANCH  21  30
ATOM     29  O   UNL     1      48.340   1.487   6.178  0.00  0.00    +0.000 OA
ATOM     30  C   UNL     1      47.503   2.374   6.189  0.00  0.00    +0.000 C 
BRANCH  30  31
ATOM     31  O   UNL     1      47.387   3.293   5.210  0.00  0.00    +0.000 OA
ATOM     32  H   UNL     1      48.047   4.012   5.211  0.00  0.00    +0.000 HD
ENDBRANCH  30  31
ENDBRANCH  21  30
ENDBRANCH  20  25
ENDBRANCH   1  20
TORSDOF 9
ENDMDL
MODEL 3
REMARK VINA RESULT:    -8.532      2.791      4.085
REMARK INTER + INTRA:         -13.587
REMARK INTER:                 -12.312
REMARK INTRA:                  -1.275
REMARK UNBOUND:                -1.065
REMARK  Name = 
REMARK  9 active torsions:
REMARK  status: ('A' for Active; 'I' for Inactive)
REMARK    1  A    between atoms: C_2  and  O_3
REMARK    2  A    between atoms: C_2  and  C_4
REMARK    3  A    between atoms: N_8  and  C_9
REMARK    4  A    between atoms: C_9  and  C_10
REMARK    5  A    between atoms: C_10  and  C_13
REMARK    6  A    between atoms: C_17  and  N_18
REMARK    7  A    between atoms: C_21  and  C_22
REMARK    8  A    between atoms: C_22  and  C_23
REMARK    9  A    between atoms: C_23  and  O_24
REMARK                            x       y       z     vdW  Elec       q    Type
REMARK                         _______ _______ _______ _____ _____    ______ ____
ROOT
ATOM      1  C   UNL     1      43.481   5.915  11.925  0.00  0.00    +0.000 C 
ATOM      2  F   UNL     1      43.272   7.197  11.491  0.00  0.00    +0.000 F 
ATOM      3  F   UNL     1      42.444   5.665  12.785  0.00  0.00    +0.000 F 
ENDROOT
BRANCH   1   4
ATOM      4  C   UNL     1      44.818   5.797  12.646  0.00  0.00    +0.000 A 
ATOM      5  C   UNL     1      45.107   4.594  13.302  0.00  0.00    +0.000 A 
ATOM      6  C   UNL     1      46.335   4.407  13.930  0.00  0.00    +0.000 A 
ATOM      7  C   UNL     1      47.298   5.421  13.901  0.00  0.00    +0.000 A 
ATOM      8  C   UNL     1      47.056   6.642  13.265  0.00  0.00    +0.000 A 
ATOM      9  C   UNL     1      45.799   6.810  12.658  0.00  0.00    +0.000 A 
BRANCH   8  10
ATOM     10  N   UNL     1      48.014   7.638  13.194  0.00  0.00    +0.000 N 
ATOM     11  C   UNL     1      47.643   9.055  13.193  0.00  0.00    +0.000 C 
ATOM     12  C   UNL     1      48.037   9.705  11.867  0.00  0.00    +0.000 C 
ATOM     13  C   UNL     1      49.520   9.468  11.520  0.00  0.00    +0.000 C 
ATOM     14  C   UNL     1      49.785   7.952  11.537  0.00  0.00    +0.000 C 
ATOM     15  C   UNL     1      49.405   7.313  12.876  0.00  0.00    +0.000 C 
BRANCH  13  16
ATOM     16  C   UNL     1      50.456  10.265  12.453  0.00  0.00    +0.000 C 
BRANCH  16  17
ATOM     17  C   UNL     1      51.935  10.121  12.104  0.00  0.00    +0.000 C 
BRANCH  17  18
ATOM     18  O   UNL     1      52.260  10.989  11.025  0.00  0.00    +0.000 OA
ATOM     19  H   UNL     1      52.997  10.588  10.538  0.00  0.00    +0.000 HD
ENDBRANCH  17  18
ENDBRANCH  16  17
ENDBRANCH  13  16
ENDBRANCH   8  10
ENDBRANCH   1   4
BRANCH   1  20
ATOM     20  C   UNL     1      43.322   4.970  10.711  0.00  0.00    +0.000 C 
BRANCH  20  25
ATOM     21  C   UNL     1      46.420   2.073   7.839  0.00  0.00    +0.000 A 
ATOM     22  C   UNL     1      45.570   1.753   8.885  0.00  0.00    +0.000 A 
ATOM     23  C   UNL     1      44.842   2.768   9.504  0.00  0.00    +0.000 A 
ATOM     24  C   UNL     1      44.970   4.086   9.066  0.00  0.00    +0.000 A 
ATOM     25  N   UNL     1      44.323   5.136   9.660  0.00  0.00    +0.000 N 
ATOM     26  N   UNL     1      45.777   4.399   8.032  0.00  0.00    +0.000 NA
ATOM     27  C   UNL     1      46.468   3.397   7.430  0.00  0.00    +0.000 A 
ATOM     28  H   UNL     1      44.441   6.037   9.209  0.00  0.00    +0.000 HD
BRANCH  21  30
ATOM     29  O   UNL     1      47.949   1.227   6.249  0.00  0.00    +0.000 OA
ATOM     30  C   UNL     1      47.196   1.006   7.183  0.00  0.00    +0.000 C 
BRANCH  30  31
ATOM     31  O   UNL     1      46.955  -0.231   7.663  0.00  0.00    +0.000 OA
ATOM     32  H   UNL     1      47.569  -0.933   7.374  0.00  0.00    +0.000 HD
ENDBRANCH  30  31
ENDBRANCH  21  30
ENDBRANCH  20  25
ENDBRANCH   1  20
TORSDOF 9
ENDMDL
MODEL 4
REMARK VINA RESULT:    -8.163      2.860      3.537
REMARK INTER + INTRA:         -13.046
REMARK INTER:                 -11.811
REMARK INTRA:                  -1.236
REMARK UNBOUND:                -1.065
REMARK  Name = 
REMARK  9 active torsions:
REMARK  status: ('A' for Active; 'I' for Inactive)
REMARK    1  A    between atoms: C_2  and  O_3
REMARK    2  A    between atoms: C_2  and  C_4
REMARK    3  A    between atoms: N_8  and  C_9
REMARK    4  A    between atoms: C_9  and  C_10
REMARK    5  A    between atoms: C_10  and  C_13
REMARK    6  A    between atoms: C_17  and  N_18
REMARK    7  A    between atoms: C_21  and  C_22
REMARK    8  A    between atoms: C_22  and  C_23
REMARK    9  A    between atoms: C_23  and  O_24
REMARK                            x       y       z     vdW  Elec       q    Type
REMARK                         _______ _______ _______ _____ _____    ______ ____
ROOT
ATOM      1  C   UNL     1      44.379   3.790  12.235  0.00  0.00    +0.000 C 
ATOM      2  F   UNL     1      43.537   3.687  13.310  0.00  0.00    +0.000 F 
ATOM      3  F   UNL     1      45.390   2.903  12.499  0.00  0.00    +0.000 F 
ENDROOT
BRANCH   1   4
ATOM      4  C   UNL     1      44.926   5.206  12.107  0.00  0.00    +0.000 A 
ATOM      5  C   UNL     1      44.118   6.170  11.491  0.00  0.00    +0.000 A 
ATOM      6  C   UNL     1      44.539   7.493  11.396  0.00  0.00    +0.000 A 
ATOM      7  C   UNL     1      45.775   7.873  11.927  0.00  0.00    +0.000 A 
ATOM      8  C   UNL     1      46.622   6.949  12.547  0.00  0.00    +0.000 A 
ATOM      9  C   UNL     1      46.179   5.616  12.608  0.00  0.00    +0.000 A 
BRANCH   8  10
ATOM     10  N   UNL     1      47.829   7.319  13.111  0.00  0.00    +0.000 N 
ATOM     11  C   UNL     1      47.897   8.311  14.187  0.00  0.00    +0.000 C 
ATOM     12  C   UNL     1      48.663   9.548  13.719  0.00  0.00    +0.000 C 
ATOM     13  C   UNL     1      50.046   9.192  13.138  0.00  0.00    +0.000 C 
ATOM     14  C   UNL     1      49.846   8.159  12.014  0.00  0.00    +0.000 C 
ATOM     15  C   UNL     1      49.095   6.915  12.496  0.00  0.00    +0.000 C 
BRANCH  13  16
ATOM     16  C   UNL     1      51.020   8.720  14.238  0.00  0.00    +0.000 C 
BRANCH  16  17
ATOM     17  C   UNL     1      52.447   8.505  13.740  0.00  0.00    +0.000 C 
BRANCH  17  18
ATOM     18  O   UNL     1      53.030   7.398  14.415  0.00  0.00    +0.000 OA
ATOM     19  H   UNL     1      52.670   7.380  15.315  0.00  0.00    +0.000 HD
ENDBRANCH  17  18
ENDBRANCH  16  17
ENDBRANCH  13  16
ENDBRANCH   8  10
ENDBRANCH   1   4
BRANCH   1  20
ATOM     20  C   UNL     1      43.622   3.280  10.986  0.00  0.00    +0.000 C 
BRANCH  20  25
ATOM     21  C   UNL     1      46.653   2.414   6.948  0.00  0.00    +0.000 A 
ATOM     22  C   UNL     1      46.062   3.575   7.424  0.00  0.00    +0.000 A 
ATOM     23  C   UNL     1      45.259   3.512   8.561  0.00  0.00    +0.000 A 
ATOM     24  C   UNL     1      45.061   2.292   9.209  0.00  0.00    +0.000 A 
ATOM     25  N   UNL     1      44.247   2.151  10.300  0.00  0.00    +0.000 N 
ATOM     26  N   UNL     1      45.654   1.165   8.766  0.00  0.00    +0.000 NA
ATOM     27  C   UNL     1      46.445   1.246   7.665  0.00  0.00    +0.000 A 
ATOM     28  H   UNL     1      44.237   1.230  10.726  0.00  0.00    +0.000 HD
BRANCH  21  30
ATOM     29  O   UNL     1      47.157   3.065   4.734  0.00  0.00    +0.000 OA
ATOM     30  C   UNL     1      47.500   2.473   5.744  0.00  0.00    +0.000 C 
BRANCH  30  31
ATOM     31  O   UNL     1      48.647   1.772   5.838  0.00  0.00    +0.000 OA
ATOM     32  H   UNL     1      49.109   1.585   4.998  0.00  0.00    +0.000 HD
ENDBRANCH  30  31
ENDBRANCH  21  30
ENDBRANCH  20  25
ENDBRANCH   1  20
TORSDOF 9
ENDMDL
MODEL 5
REMARK VINA RESULT:    -8.010      1.768      2.220
REMARK INTER + INTRA:         -12.821
REMARK INTER:                 -11.773
REMARK INTRA:                  -1.048
REMARK UNBOUND:                -1.065
REMARK  Name = 
REMARK  9 active torsions:
REMARK  status: ('A' for Active; 'I' for Inactive)
REMARK    1  A    between atoms: C_2  and  O_3
REMARK    2  A    between atoms: C_2  and  C_4
REMARK    3  A    between atoms: N_8  and  C_9
REMARK    4  A    between atoms: C_9  and  C_10
REMARK    5  A    between atoms: C_10  and  C_13
REMARK    6  A    between atoms: C_17  and  N_18
REMARK    7  A    between atoms: C_21  and  C_22
REMARK    8  A    between atoms: C_22  and  C_23
REMARK    9  A    between atoms: C_23  and  O_24
REMARK                            x       y       z     vdW  Elec       q    Type
REMARK                         _______ _______ _______ _____ _____    ______ ____
ROOT
ATOM      1  C   UNL     1      44.049   4.944  12.294  0.00  0.00    +0.000 C 
ATOM      2  F   UNL     1      42.981   5.033  13.146  0.00  0.00    +0.000 F 
ATOM      3  F   UNL     1      44.603   3.719  12.557  0.00  0.00    +0.000 F 
ENDROOT
BRANCH   1   4
ATOM      4  C   UNL     1      45.053   6.058  12.563  0.00  0.00    +0.000 A 
ATOM      5  C   UNL     1      44.702   7.363  12.196  0.00  0.00    +0.000 A 
ATOM      6  C   UNL     1      45.554   8.429  12.467  0.00  0.00    +0.000 A 
ATOM      7  C   UNL     1      46.769   8.204  13.123  0.00  0.00    +0.000 A 
ATOM      8  C   UNL     1      47.169   6.920  13.505  0.00  0.00    +0.000 A 
ATOM      9  C   UNL     1      46.297   5.861  13.198  0.00  0.00    +0.000 A 
BRANCH   8  10
ATOM     10  N   UNL     1      48.349   6.689  14.189  0.00  0.00    +0.000 N 
ATOM     11  C   UNL     1      48.423   5.705  15.271  0.00  0.00    +0.000 C 
ATOM     12  C   UNL     1      48.739   6.397  16.597  0.00  0.00    +0.000 C 
ATOM     13  C   UNL     1      49.992   7.290  16.504  0.00  0.00    +0.000 C 
ATOM     14  C   UNL     1      49.791   8.287  15.349  0.00  0.00    +0.000 C 
ATOM     15  C   UNL     1      49.495   7.584  14.021  0.00  0.00    +0.000 C 
BRANCH  13  16
ATOM     16  C   UNL     1      51.280   6.450  16.372  0.00  0.00    +0.000 C 
BRANCH  16  17
ATOM     17  C   UNL     1      52.541   7.289  16.185  0.00  0.00    +0.000 C 
BRANCH  17  18
ATOM     18  O   UNL     1      53.099   7.039  14.900  0.00  0.00    +0.000 OA
ATOM     19  H   UNL     1      52.572   6.341  14.483  0.00  0.00    +0.000 HD
ENDBRANCH  17  18
ENDBRANCH  16  17
ENDBRANCH  13  16
ENDBRANCH   8  10
ENDBRANCH   1   4
BRANCH   1  20
ATOM     20  C   UNL     1      43.502   4.910  10.847  0.00  0.00    +0.000 C 
BRANCH  20  25
ATOM     21  C   UNL     1      46.544   2.347   7.620  0.00  0.00    +0.000 A 
ATOM     22  C   UNL     1      45.709   1.913   8.638  0.00  0.00    +0.000 A 
ATOM     23  C   UNL     1      44.995   2.854   9.378  0.00  0.00    +0.000 A 
ATOM     24  C   UNL     1      45.120   4.212   9.087  0.00  0.00    +0.000 A 
ATOM     25  N   UNL     1      44.486   5.191   9.805  0.00  0.00    +0.000 N 
ATOM     26  N   UNL     1      45.911   4.638   8.081  0.00  0.00    +0.000 NA
ATOM     27  C   UNL     1      46.589   3.708   7.360  0.00  0.00    +0.000 A 
ATOM     28  H   UNL     1      44.600   6.137   9.455  0.00  0.00    +0.000 HD
BRANCH  21  30
ATOM     29  O   UNL     1      47.011   0.175   6.818  0.00  0.00    +0.000 OA
ATOM     30  C   UNL     1      47.306   1.358   6.836  0.00  0.00    +0.000 C 
BRANCH  30  31
ATOM     31  O   UNL     1      48.379   1.864   6.197  0.00  0.00    +0.000 OA
ATOM     32  H   UNL     1      48.268   2.048   5.245  0.00  0.00    +0.000 HD
ENDBRANCH  30  31
ENDBRANCH  21  30
ENDBRANCH  20  25
ENDBRANCH   1  20
TORSDOF 9
ENDMDL
MODEL 6
REMARK VINA RESULT:    -7.747      2.719      3.172
REMARK INTER + INTRA:         -12.435
REMARK INTER:                 -11.395
REMARK INTRA:                  -1.039
REMARK UNBOUND:                -1.065
REMARK  Name = 
REMARK  9 active torsions:
REMARK  status: ('A' for Active; 'I' for Inactive)
REMARK    1  A    between atoms: C_2  and  O_3
REMARK    2  A    between atoms: C_2  and  C_4
REMARK    3  A    between atoms: N_8  and  C_9
REMARK    4  A    between atoms: C_9  and  C_10
REMARK    5  A    between atoms: C_10  and  C_13
REMARK    6  A    between atoms: C_17  and  N_18
REMARK    7  A    between atoms: C_21  and  C_22
REMARK    8  A    between atoms: C_22  and  C_23
REMARK    9  A    between atoms: C_23  and  O_24
REMARK                            x       y       z     vdW  Elec       q    Type
REMARK                         _______ _______ _______ _____ _____    ______ ____
ROOT
ATOM      1  C   UNL     1      43.854   5.266  12.202  0.00  0.00    +0.000 C 
ATOM      2  F   UNL     1      42.769   5.432  13.021  0.00  0.00    +0.000 F 
ATOM      3  F   UNL     1      44.504   4.169  12.703  0.00  0.00    +0.000 F 
ENDROOT
BRANCH   1   4
ATOM      4  C   UNL     1      44.758   6.492  12.242  0.00  0.00    +0.000 A 
ATOM      5  C   UNL     1      44.258   7.695  11.727  0.00  0.00    +0.000 A 
ATOM      6  C   UNL     1      45.015   8.860  11.788  0.00  0.00    +0.000 A 
ATOM      7  C   UNL     1      46.283   8.841  12.377  0.00  0.00    +0.000 A 
ATOM      8  C   UNL     1      46.830   7.666  12.900  0.00  0.00    +0.000 A 
ATOM      9  C   UNL     1      46.051   6.500  12.805  0.00  0.00    +0.000 A 
BRANCH   8  10
ATOM     10  N   UNL     1      48.066   7.641  13.521  0.00  0.00    +0.000 N 
ATOM     11  C   UNL     1      48.348   8.471  14.694  0.00  0.00    +0.000 C 
ATOM     12  C   UNL     1      49.437   9.494  14.371  0.00  0.00    +0.000 C 
ATOM     13  C   UNL     1      50.699   8.835  13.779  0.00  0.00    +0.000 C 
ATOM     14  C   UNL     1      50.281   8.007  12.551  0.00  0.00    +0.000 C 
ATOM     15  C   UNL     1      49.205   6.971  12.889  0.00  0.00    +0.000 C 
BRANCH  13  16
ATOM     16  C   UNL     1      51.462   8.016  14.841  0.00  0.00    +0.000 C 
BRANCH  16  17
ATOM     17  C   UNL     1      52.977   8.180  14.766  0.00  0.00    +0.000 C 
BRANCH  17  18
ATOM     18  O   UNL     1      53.300   9.315  13.971  0.00  0.00    +0.000 OA
ATOM     19  H   UNL     1      52.980  10.101  14.439  0.00  0.00    +0.000 HD
ENDBRANCH  17  18
ENDBRANCH  16  17
ENDBRANCH  13  16
ENDBRANCH   8  10
ENDBRANCH   1   4
BRANCH   1  20
ATOM     20  C   UNL     1      43.334   4.899  10.792  0.00  0.00    +0.000 C 
BRANCH  20  25
ATOM     21  C   UNL     1      46.449   2.221   7.732  0.00  0.00    +0.000 A 
ATOM     22  C   UNL     1      45.664   1.838   8.808  0.00  0.00    +0.000 A 
ATOM     23  C   UNL     1      44.912   2.802   9.477  0.00  0.00    +0.000 A 
ATOM     24  C   UNL     1      44.951   4.132   9.059  0.00  0.00    +0.000 A 
ATOM     25  N   UNL     1      44.277   5.136   9.701  0.00  0.00    +0.000 N 
ATOM     26  N   UNL     1      45.694   4.506   7.997  0.00  0.00    +0.000 NA
ATOM     27  C   UNL     1      46.409   3.552   7.347  0.00  0.00    +0.000 A 
ATOM     28  H   UNL     1      44.327   6.050   9.263  0.00  0.00    +0.000 HD
BRANCH  21  30
ATOM     29  O   UNL     1      48.098   1.507   6.198  0.00  0.00    +0.000 OA
ATOM     30  C   UNL     1      47.249   1.208   7.022  0.00  0.00    +0.000 C 
BRANCH  30  31
ATOM     31  O   UNL     1      46.921  -0.066   7.317  0.00  0.00    +0.000 OA
ATOM     32  H   UNL     1      47.282  -0.753   6.725  0.00  0.00    +0.000 HD
ENDBRANCH  30  31
ENDBRANCH  21  30
ENDBRANCH  20  25
ENDBRANCH   1  20
TORSDOF 9
ENDMDL
MODEL 7
REMARK VINA RESULT:    -7.526      1.662      7.663
REMARK INTER + INTRA:         -12.110
REMARK INTER:                 -10.914
REMARK INTRA:                  -1.197
REMARK UNBOUND:                -1.065
REMARK  Name = 
REMARK  9 active torsions:
REMARK  status: ('A' for Active; 'I' for Inactive)
REMARK    1  A    between atoms: C_2  and  O_3
REMARK    2  A    between atoms: C_2  and  C_4
REMARK    3  A    between atoms: N_8  and  C_9
REMARK    4  A    between atoms: C_9  and  C_10
REMARK    5  A    between atoms: C_10  and  C_13
REMARK    6  A    between atoms: C_17  and  N_18
REMARK    7  A    between atoms: C_21  and  C_22
REMARK    8  A    between atoms: C_22  and  C_23
REMARK    9  A    between atoms: C_23  and  O_24
REMARK                            x       y       z     vdW  Elec       q    Type
REMARK                         _______ _______ _______ _____ _____    ______ ____
ROOT
ATOM      1  C   UNL     1      45.720   7.651  12.201  0.00  0.00    +0.000 C 
ATOM      2  F   UNL     1      45.307   8.010  13.457  0.00  0.00    +0.000 F 
ATOM      3  F   UNL     1      45.434   8.738  11.416  0.00  0.00    +0.000 F 
ENDROOT
BRANCH   1   4
ATOM      4  C   UNL     1      44.967   6.421  11.712  0.00  0.00    +0.000 A 
ATOM      5  C   UNL     1      43.834   6.016  12.428  0.00  0.00    +0.000 A 
ATOM      6  C   UNL     1      43.073   4.933  11.998  0.00  0.00    +0.000 A 
ATOM      7  C   UNL     1      43.430   4.246  10.833  0.00  0.00    +0.000 A 
ATOM      8  C   UNL     1      44.554   4.607  10.085  0.00  0.00    +0.000 A 
ATOM      9  C   UNL     1      45.316   5.691  10.557  0.00  0.00    +0.000 A 
BRANCH   8  10
ATOM     10  N   UNL     1      44.896   3.962   8.910  0.00  0.00    +0.000 N 
ATOM     11  C   UNL     1      44.622   2.536   8.715  0.00  0.00    +0.000 C 
ATOM     12  C   UNL     1      45.931   1.760   8.569  0.00  0.00    +0.000 C 
ATOM     13  C   UNL     1      46.844   2.355   7.479  0.00  0.00    +0.000 C 
ATOM     14  C   UNL     1      47.071   3.843   7.798  0.00  0.00    +0.000 C 
ATOM     15  C   UNL     1      45.755   4.617   7.922  0.00  0.00    +0.000 C 
BRANCH  13  16
ATOM     16  C   UNL     1      46.274   2.111   6.066  0.00  0.00    +0.000 C 
BRANCH  16  17
ATOM     17  C   UNL     1      47.260   2.428   4.946  0.00  0.00    +0.000 C 
BRANCH  17  18
ATOM     18  O   UNL     1      48.545   1.917   5.277  0.00  0.00    +0.000 OA
ATOM     19  H   UNL     1      49.129   2.076   4.520  0.00  0.00    +0.000 HD
ENDBRANCH  17  18
ENDBRANCH  16  17
ENDBRANCH  13  16
ENDBRANCH   8  10
ENDBRANCH   1   4
BRANCH   1  20
ATOM     20  C   UNL     1      47.259   7.490  12.235  0.00  0.00    +0.000 C 
BRANCH  20  25
ATOM     21  C   UNL     1      47.759   4.134  16.072  0.00  0.00    +0.000 A 
ATOM     22  C   UNL     1      47.074   4.060  14.869  0.00  0.00    +0.000 A 
ATOM     23  C   UNL     1      47.102   5.153  14.004  0.00  0.00    +0.000 A 
ATOM     24  C   UNL     1      47.817   6.300  14.351  0.00  0.00    +0.000 A 
ATOM     25  N   UNL     1      47.846   7.425  13.572  0.00  0.00    +0.000 N 
ATOM     26  N   UNL     1      48.505   6.367  15.509  0.00  0.00    +0.000 NA
ATOM     27  C   UNL     1      48.480   5.288  16.333  0.00  0.00    +0.000 A 
ATOM     28  H   UNL     1      48.455   8.169  13.895  0.00  0.00    +0.000 HD
BRANCH  21  30
ATOM     29  O   UNL     1      48.644   2.177  17.057  0.00  0.00    +0.000 OA
ATOM     30  C   UNL     1      47.731   2.983  16.993  0.00  0.00    +0.000 C 
BRANCH  30  31
ATOM     31  O   UNL     1      46.592   2.870  17.705  0.00  0.00    +0.000 OA
ATOM     32  H   UNL     1      45.923   3.566  17.562  0.00  0.00    +0.000 HD
ENDBRANCH  30  31
ENDBRANCH  21  30
ENDBRANCH  20  25
ENDBRANCH   1  20
TORSDOF 9
ENDMDL
MODEL 8
REMARK VINA RESULT:    -6.794      3.238      7.398
REMARK INTER + INTRA:         -11.036
REMARK INTER:                  -9.979
REMARK INTRA:                  -1.058
REMARK UNBOUND:                -1.065
REMARK  Name = 
REMARK  9 active torsions:
REMARK  status: ('A' for Active; 'I' for Inactive)
REMARK    1  A    between atoms: C_2  and  O_3
REMARK    2  A    between atoms: C_2  and  C_4
REMARK    3  A    between atoms: N_8  and  C_9
REMARK    4  A    between atoms: C_9  and  C_10
REMARK    5  A    between atoms: C_10  and  C_13
REMARK    6  A    between atoms: C_17  and  N_18
REMARK    7  A    between atoms: C_21  and  C_22
REMARK    8  A    between atoms: C_22  and  C_23
REMARK    9  A    between atoms: C_23  and  O_24
REMARK                            x       y       z     vdW  Elec       q    Type
REMARK                         _______ _______ _______ _____ _____    ______ ____
ROOT
ATOM      1  C   UNL     1      48.794   9.080  12.337  0.00  0.00    +0.000 C 
ATOM      2  F   UNL     1      49.032   9.887  13.419  0.00  0.00    +0.000 F 
ATOM      3  F   UNL     1      49.386   9.728  11.285  0.00  0.00    +0.000 F 
ENDROOT
BRANCH   1   4
ATOM      4  C   UNL     1      47.299   8.919  12.098  0.00  0.00    +0.000 A 
ATOM      5  C   UNL     1      46.520  10.078  11.994  0.00  0.00    +0.000 A 
ATOM      6  C   UNL     1      45.159   9.995  11.720  0.00  0.00    +0.000 A 
ATOM      7  C   UNL     1      44.557   8.746  11.534  0.00  0.00    +0.000 A 
ATOM      8  C   UNL     1      45.289   7.559  11.633  0.00  0.00    +0.000 A 
ATOM      9  C   UNL     1      46.657   7.674  11.932  0.00  0.00    +0.000 A 
BRANCH   8  10
ATOM     10  N   UNL     1      44.715   6.320  11.412  0.00  0.00    +0.000 N 
ATOM     11  C   UNL     1      43.277   6.102  11.586  0.00  0.00    +0.000 C 
ATOM     12  C   UNL     1      43.024   5.114  12.724  0.00  0.00    +0.000 C 
ATOM     13  C   UNL     1      43.816   3.803  12.545  0.00  0.00    +0.000 C 
ATOM     14  C   UNL     1      45.306   4.157  12.388  0.00  0.00    +0.000 C 
ATOM     15  C   UNL     1      45.552   5.132  11.233  0.00  0.00    +0.000 C 
BRANCH  13  16
ATOM     16  C   UNL     1      43.260   2.959  11.380  0.00  0.00    +0.000 C 
BRANCH  16  17
ATOM     17  C   UNL     1      44.313   2.583  10.341  0.00  0.00    +0.000 C 
BRANCH  17  18
ATOM     18  O   UNL     1      43.904   3.037   9.056  0.00  0.00    +0.000 OA
ATOM     19  H   UNL     1      43.719   3.986   9.125  0.00  0.00    +0.000 HD
ENDBRANCH  17  18
ENDBRANCH  16  17
ENDBRANCH  13  16
ENDBRANCH   8  10
ENDBRANCH   1   4
BRANCH   1  20
ATOM     20  C   UNL     1      49.557   7.752  12.558  0.00  0.00    +0.000 C 
BRANCH  20  25
ATOM     21  C   UNL     1      47.835   4.995  16.517  0.00  0.00    +0.000 A 
ATOM     22  C   UNL     1      47.303   5.229  15.258  0.00  0.00    +0.000 A 
ATOM     23  C   UNL     1      47.997   6.048  14.369  0.00  0.00    +0.000 A 
ATOM     24  C   UNL     1      49.213   6.617  14.749  0.00  0.00    +0.000 A 
ATOM     25  N   UNL     1      49.921   7.470  13.944  0.00  0.00    +0.000 N 
ATOM     26  N   UNL     1      49.747   6.373  15.963  0.00  0.00    +0.000 NA
ATOM     27  C   UNL     1      49.065   5.560  16.811  0.00  0.00    +0.000 A 
ATOM     28  H   UNL     1      50.824   7.764  14.302  0.00  0.00    +0.000 HD
BRANCH  21  30
ATOM     29  O   UNL     1      46.822   2.974  17.204  0.00  0.00    +0.000 OA
ATOM     30  C   UNL     1      47.104   4.132  17.463  0.00  0.00    +0.000 C 
BRANCH  30  31
ATOM     31  O   UNL     1      46.728   4.750  18.600  0.00  0.00    +0.000 OA
ATOM     32  H   UNL     1      46.515   4.170  19.356  0.00  0.00    +0.000 HD
ENDBRANCH  30  31
ENDBRANCH  21  30
ENDBRANCH  20  25
ENDBRANCH   1  20
TORSDOF 9
ENDMDL
MODEL 9
REMARK VINA RESULT:    -6.543      3.141      4.354
REMARK INTER + INTRA:         -10.667
REMARK INTER:                  -9.864
REMARK INTRA:                  -0.803
REMARK UNBOUND:                -1.065
REMARK  Name = 
REMARK  9 active torsions:
REMARK  status: ('A' for Active; 'I' for Inactive)
REMARK    1  A    between atoms: C_2  and  O_3
REMARK    2  A    between atoms: C_2  and  C_4
REMARK    3  A    between atoms: N_8  and  C_9
REMARK    4  A    between atoms: C_9  and  C_10
REMARK    5  A    between atoms: C_10  and  C_13
REMARK    6  A    between atoms: C_17  and  N_18
REMARK    7  A    between atoms: C_21  and  C_22
REMARK    8  A    between atoms: C_22  and  C_23
REMARK    9  A    between atoms: C_23  and  O_24
REMARK                            x       y       z     vdW  Elec       q    Type
REMARK                         _______ _______ _______ _____ _____    ______ ____
ROOT
ATOM      1  C   UNL     1      47.588   8.944  12.269  0.00  0.00    +0.000 C 
ATOM      2  F   UNL     1      48.041   7.953  11.440  0.00  0.00    +0.000 F 
ATOM      3  F   UNL     1      48.090  10.102  11.735  0.00  0.00    +0.000 F 
ENDROOT
BRANCH   1   4
ATOM      4  C   UNL     1      48.099   8.741  13.689  0.00  0.00    +0.000 A 
ATOM      5  C   UNL     1      48.268   9.874  14.496  0.00  0.00    +0.000 A 
ATOM      6  C   UNL     1      48.678   9.747  15.819  0.00  0.00    +0.000 A 
ATOM      7  C   UNL     1      48.916   8.480  16.360  0.00  0.00    +0.000 A 
ATOM      8  C   UNL     1      48.769   7.318  15.595  0.00  0.00    +0.000 A 
ATOM      9  C   UNL     1      48.374   7.480  14.256  0.00  0.00    +0.000 A 
BRANCH   8  10
ATOM     10  N   UNL     1      48.963   6.056  16.128  0.00  0.00    +0.000 N 
ATOM     11  C   UNL     1      47.977   4.989  15.940  0.00  0.00    +0.000 C 
ATOM     12  C   UNL     1      47.378   4.577  17.284  0.00  0.00    +0.000 C 
ATOM     13  C   UNL     1      48.462   4.224  18.322  0.00  0.00    +0.000 C 
ATOM     14  C   UNL     1      49.423   5.419  18.444  0.00  0.00    +0.000 C 
ATOM     15  C   UNL     1      50.034   5.812  17.095  0.00  0.00    +0.000 C 
BRANCH  13  16
ATOM     16  C   UNL     1      49.172   2.899  17.973  0.00  0.00    +0.000 C 
BRANCH  16  17
ATOM     17  C   UNL     1      48.616   2.218  16.725  0.00  0.00    +0.000 C 
BRANCH  17  18
ATOM     18  O   UNL     1      49.688   1.770  15.904  0.00  0.00    +0.000 OA
ATOM     19  H   UNL     1      50.450   2.344  16.077  0.00  0.00    +0.000 HD
ENDBRANCH  17  18
ENDBRANCH  16  17
ENDBRANCH  13  16
ENDBRANCH   8  10
ENDBRANCH   1   4
BRANCH   1  20
ATOM     20  C   UNL     1      46.046   9.001  12.144  0.00  0.00    +0.000 C 
BRANCH  20  25
ATOM     21  C   UNL     1      44.248   4.258  11.433  0.00  0.00    +0.000 A 
ATOM     22  C   UNL     1      44.850   5.154  10.563  0.00  0.00    +0.000 A 
ATOM     23  C   UNL     1      45.234   6.406  11.037  0.00  0.00    +0.000 A 
ATOM     24  C   UNL     1      45.017   6.744  12.373  0.00  0.00    +0.000 A 
ATOM     25  N   UNL     1      45.326   7.973  12.892  0.00  0.00    +0.000 N 
ATOM     26  N   UNL     1      44.455   5.867  13.229  0.00  0.00    +0.000 NA
ATOM     27  C   UNL     1      44.099   4.645  12.755  0.00  0.00    +0.000 A 
ATOM     28  H   UNL     1      45.186   8.076  13.892  0.00  0.00    +0.000 HD
BRANCH  21  30
ATOM     29  O   UNL     1      44.213   2.491   9.865  0.00  0.00    +0.000 OA
ATOM     30  C   UNL     1      43.835   2.933  10.937  0.00  0.00    +0.000 C 
BRANCH  30  31
ATOM     31  O   UNL     1      42.964   2.287  11.738  0.00  0.00    +0.000 OA
ATOM     32  H   UNL     1      42.172   1.916  11.304  0.00  0.00    +0.000 HD
ENDBRANCH  30  31
ENDBRANCH  21  30
ENDBRANCH  20  25
ENDBRANCH   1  20
TORSDOF 9
ENDMDL
